data_mof_unit_7954.cif
_audit_creation_date              2013-03-05T15:45:30-0500
_audit_creation_method            fapswitch 2.2
_symmetry_space_group_name_H-M    P1
_symmetry_Int_Tables_number       1
_space_group_crystal_system       triclinic
_cell_length_a                    11.046659
_cell_length_b                    10.901523
_cell_length_c                    18.716964
_cell_angle_alpha                 90.360375
_cell_angle_beta                  89.925033
_cell_angle_gamma                 60.611118
_cell_volume                      1963.86503884

loop_
_atom_site_label
_atom_site_type_symbol
_atom_site_description
_atom_site_fract_x
_atom_site_fract_y
_atom_site_fract_z
_atom_type_partial_charge
O1    O     O_R   0.507430 0.255570 0.581420 -0.464174
O2    O     O_R   0.280190 0.527390 0.578910 -0.443950
C1    C     C_R   0.227369 0.649225 0.607063 0.624277
O3    O     O_R   0.260310 0.739740 0.584580 -0.419402
O4    O     O_R   0.532250 0.695150 0.573830 -0.414438
C2    C     C_R   0.654806 0.625876 0.599171 0.559027
O5    O     O_R   0.744930 0.503430 0.576380 -0.517740
O6    O     O_R   0.699250 0.276390 0.571950 -0.487135
C3    C     C_R   0.627946 0.227397 0.602220 0.598929
O7    O     O_R   0.499020 0.256400 0.419850 -0.479011
O8    O     O_R   0.272400 0.528160 0.429140 -0.534851
C4    C     C_R   0.216745 0.650776 0.403337 0.531282
O9    O     O_R   0.251910 0.740570 0.423020 -0.482808
O10   O     O_R   0.524460 0.695920 0.424060 -0.453056
C5    C     C_R   0.643142 0.626174 0.393475 0.541534
O11   O     O_R   0.736530 0.504260 0.414810 -0.536728
O12   O     O_R   0.691460 0.277160 0.422180 -0.482209
C6    C     C_R   0.577534 0.299275 0.388757 0.544706
Cr1   Cr    Cr6+3 0.392930 0.397900 0.502230 1.146203
Cr2   Cr    Cr6+3 0.398240 0.708600 0.501260 1.213723
Cr3   Cr    Cr6+3 0.708800 0.393470 0.496460 1.100645
O13   O     O_3   0.499990 0.499990 0.499980 -0.329204
C7    C     C_3   0.578803 0.817410 0.781696 -0.206552
C8    C     C_3   0.581468 0.814841 0.699083 0.063659
H1    H     H_    0.639122 0.868454 0.681733 0.177519
C9    C     C_3   0.835974 0.653796 0.767436 0.038704
C10   C     C_3   0.673366 0.552340 0.801381 0.296640
C11   C     C_3   0.703425 0.677824 0.811307 -0.042884
C12   C     C_3   0.670278 0.655051 0.674466 -0.067791
C13   C     C_3   0.823342 0.613788 0.689078 -0.275795
C14   C     C_3   0.640369 0.550788 0.720042 0.086230
C15   C     C_R   0.776549 0.171581 0.709887 -0.039670
C16   C     C_R   0.792248 0.148764 0.783375 -0.016280
C17   C     C_R   0.683853 0.151045 0.822791 0.094101
C18   C     C_R   0.564352 0.168566 0.786939 -0.074762
C19   C     C_R   0.560978 0.166084 0.714075 -0.072779
C20   C     C_R   0.663119 0.175304 0.674630 0.058412
C21   C     C_R   0.177383 0.553573 0.719072 0.183874
C22   C     C_R   0.181454 0.560799 0.793911 -0.085448
C23   C     C_R   0.157066 0.684873 0.828504 0.027415
C24   C     C_R   0.126624 0.803960 0.787425 0.000789
C25   C     C_R   0.120441 0.800326 0.713149 0.265668
C26   C     C_R   0.160999 0.670836 0.678196 0.056865
C27   C     C_R   0.777771 0.572541 0.284527 -0.195642
C28   C     C_R   0.779186 0.570649 0.211684 -0.194726
C29   C     C_R   0.666967 0.673075 0.172486 -0.020713
C30   C     C_R   0.547340 0.775198 0.208583 0.175457
C31   C     C_R   0.545279 0.776201 0.284023 0.186326
C32   C     C_R   0.658994 0.668172 0.321579 -0.017174
C33   C     C_R   0.488302 0.258225 0.274897 -0.111282
H2    H     H_    0.401846 0.259380 0.302813 0.172561
C34   C     C_R   0.508638 0.218448 0.203703 -0.109755
C35   C     C_R   0.627261 0.201192 0.167333 0.016810
C36   C     C_R   0.707984 0.253360 0.198566 -0.076420
H3    H     H_    0.793275 0.251848 0.169231 0.180323
C37   C     C_R   0.686817 0.294955 0.270538 -0.090874
C38   C     C_R   0.584842 0.284425 0.310575 0.005489
C39   C     C_R   0.073130 0.816433 0.313589 -0.057870
C40   C     C_R   0.048096 0.840269 0.241289 0.209709
C41   C     C_R   0.056008 0.728879 0.196900 -0.002822
C42   C     C_R   0.089142 0.599084 0.228177 -0.167753
C43   C     C_R   0.129941 0.574086 0.299268 -0.150579
C44   C     C_R   0.130240 0.681495 0.340398 -0.014158
O14   O     O_R   0.089490 0.825610 0.930610 -0.482887
O15   O     O_R   0.818370 0.054540 0.929880 -0.472630
C45   C     C_R   0.700788 0.103216 0.896543 0.613455
O16   O     O_R   0.605870 0.077310 0.915530 -0.529556
O17   O     O_R   0.646440 0.806700 0.917570 -0.472756
C46   C     C_R   0.728071 0.690899 0.887180 0.661045
O18   O     O_R   0.837200 0.593290 0.915250 -0.458462
O19   O     O_R   0.065330 0.635370 0.931590 -0.494165
C47   C     C_R   0.116232 0.707768 0.904345 0.618445
O20   O     O_R   0.068300 0.828790 0.091860 -0.419485
O21   O     O_R   0.798730 0.057480 0.079370 -0.510374
C48   C     C_R   0.671679 0.113595 0.102269 0.533240
O22   O     O_R   0.584680 0.080480 0.076790 -0.503650
O23   O     O_R   0.626790 0.809640 0.067050 -0.445572
C49   C     C_R   0.697352 0.689936 0.098208 0.582122
O24   O     O_R   0.816010 0.596460 0.076500 -0.531923
O25   O     O_R   0.045680 0.638310 0.081070 -0.511383
C50   C     C_R   0.029100 0.746901 0.119812 0.542781
Cr4   Cr    Cr6+3 0.937620 0.938540 0.007640 1.147310
Cr5   Cr    Cr6+3 0.625150 0.937450 0.994520 1.128787
Cr6   Cr    Cr6+3 0.937990 0.625080 0.001190 1.098547
O26   O     O_3   0.833590 0.833690 0.001120 -0.309771
H4    H     H_    0.585154 0.911201 0.799578 0.162141
H5    H     H_    0.709032 0.442560 0.699569 0.143542
H6    H     H_    0.931441 0.566014 0.790423 0.190429
H7    H     H_    0.891300 0.498992 0.680991 0.224036
H8    H     H_    0.849090 0.191588 0.680681 0.214391
H9    H     H_    0.886534 0.131790 0.809292 0.198544
H10   H     H_    0.476046 0.173066 0.814635 0.169011
H11   H     H_    0.471667 0.168604 0.689064 0.220850
N1    N     N_R   0.182584 0.430559 0.686446 0.082817
O27   O     O_R   0.220343 0.317498 0.723972 -0.299334
O28   O     O_R   0.121588 0.440257 0.625657 -0.326721
H12   H     H_    0.193363 0.472863 0.825654 0.168977
H13   H     H_    0.097595 0.903805 0.813168 0.170322
H14   H     H_    0.479451 0.832081 0.803302 0.232579
N2    N     N_R   0.074142 0.928179 0.673555 0.101110
O29   O     O_R   0.005826 0.947444 0.614222 -0.328858
O30   O     O_R   0.086169 0.031867 0.700383 -0.266882
H15   H     H_    0.867757 0.490893 0.311574 0.176415
H16   H     H_    0.873401 0.490157 0.186467 0.174883
N3    N     N_R   0.428636 0.874614 0.168916 0.123521
O31   O     O_R   0.385159 0.832177 0.114521 -0.261551
O32   O     O_R   0.364769 0.007538 0.186008 -0.283448
N4    N     N_R   0.428628 0.885013 0.321973 0.113657
O33   O     O_R   0.447698 0.960866 0.369851 -0.300320
O34   O     O_R   0.303440 0.908613 0.309027 -0.256753
H17   H     H_    0.436908 0.190801 0.179055 0.200058
H18   H     H_    0.756173 0.325178 0.295983 0.173471
H19   H     H_    0.068141 0.900088 0.347230 0.212657
N5    N     N_R   0.443147 0.902717 0.667819 0.120232
O35   O     O_R   0.435994 0.953306 0.604141 -0.284430
O36   O     O_R   0.337750 0.974237 0.710014 -0.228435
N6    N     N_R   0.029816 0.972913 0.215850 0.085177
O37   O     O_R   0.119999 0.973581 0.171541 -0.192355
O38   O     O_R   0.968736 0.081334 0.258254 -0.377099
H20   H     H_    0.093529 0.513388 0.196634 0.154620
H21   H     H_    0.169716 0.469086 0.320359 0.149287
N7    N     N_R   0.851084 0.780848 0.771144 -0.001471
O39   O     O_R   0.856728 0.831872 0.832968 -0.394421
O40   O     O_R   0.848524 0.850506 0.714504 -0.406632
H22   H     H_    0.860939 0.662708 0.649292 0.196485
N8    N     N_R   0.797412 0.418542 0.822213 0.036327
O41   O     O_R   0.906534 0.355555 0.781161 -0.376659
O42   O     O_R   0.802772 0.365854 0.885194 -0.288697
N9    N     N_R   0.554836 0.567463 0.846101 0.127191
O43   O     O_R   0.522341 0.467738 0.845006 -0.297858
O44   O     O_R   0.489203 0.670671 0.891330 -0.329415
N10   N     N_R   0.498546 0.579657 0.709133 0.076675
O45   O     O_R   0.396128 0.700118 0.728446 -0.329975
O46   O     O_R   0.474750 0.478120 0.691814 -0.371652

loop_
_geom_bond_atom_site_label_1
_geom_bond_atom_site_label_2
_geom_bond_distance
_ccdc_geom_bond_type
C27   C32   1.391171 A    
O6    C3    1.281498 A    
C7    H14   1.104261 S    
O16   Cr5   2.065509 S    
N8    O41   1.301363 A    
C24   C25   1.393255 A    
C11   C46   1.465507 S    
O25   Cr6   1.960019 S    
C17   C45   1.458222 S    
N5    O35   1.302569 A    
O4    Cr2   1.962819 S    
C31   N4    1.434890 S    
O23   C49   1.289581 A    
C37   C38   1.403393 A    
C8    N5    1.472286 S    
N3    O32   1.300035 A    
C1    C26   1.479742 S    
C14   N10   1.453598 S    
C19   C20   1.392241 A    
O19   Cr6   1.959664 S    
C16   H9    1.080581 S    
O4    C2    1.277057 A    
C10   N8    1.484630 S    
O17   Cr5   1.950808 S    
C22   H12   1.082993 S    
O23   Cr5   1.945169 S    
C5    O11   1.285361 A    
N4    O33   1.301282 A    
C17   C18   1.409212 A    
C8    C12   1.587643 S    
C29   C30   1.409419 A    
C19   H11   1.080746 S    
C15   H8    1.077225 S    
C18   C19   1.364804 A    
N4    O34   1.299928 A    
N10   O45   1.292267 A    
C30   N3    1.436368 S    
C7    H4    1.108394 S    
C39   H19   1.083770 S    
C33   C34   1.382218 A    
C7    C8    1.546315 S    
O18   Cr6   2.079308 S    
C42   C43   1.390505 A    
C18   H10   1.083552 S    
C5    C32   1.461833 S    
C45   O16   1.263478 A    
C13   H22   1.110403 S    
C40   C41   1.433688 A    
C40   N6    1.442503 S    
Cr3   O13   2.010762 S    
C42   H20   1.082692 S    
O24   Cr6   2.076801 S    
C35   C48   1.469564 S    
O21   Cr4   1.964156 S    
C13   H7    1.108086 S    
O22   Cr5   2.070283 S    
O20   C50   1.281736 A    
C27   H15   1.084087 S    
C33   H2    1.082637 S    
C36   C37   1.400841 A    
O1    Cr1   2.076510 S    
C14   H5    1.108797 S    
O21   C48   1.296218 A    
C10   C14   1.567825 S    
O10   Cr2   1.963194 S    
Cr1   O13   1.982766 S    
O1    C3    1.272714 A    
C8    H1    1.104473 S    
C22   C23   1.397219 A    
C29   C49   1.463506 S    
C4    C44   1.451516 S    
C49   O24   1.266518 A    
O17   C46   1.265987 A    
C34   H17   1.079413 S    
C39   C40   1.382058 A    
C35   C36   1.398313 A    
O12   Cr3   1.947875 S    
C41   C42   1.407654 A    
C48   O22   1.273151 A    
C12   C13   1.546722 S    
C28   H16   1.083106 S    
C25   N2    1.437978 S    
C41   C50   1.468372 S    
C6    C38   1.468995 S    
C30   C31   1.412041 A    
O7    Cr1   2.078815 S    
O8    Cr1   1.958132 S    
C21   N1    1.445191 S    
C43   C44   1.398624 A    
C3    C20   1.450790 S    
O12   C6    1.318881 A    
N1    O27   1.301351 A    
C15   C20   1.399916 A    
Cr6   O26   1.981864 S    
N1    O28   1.301287 A    
O14   Cr4   2.086406 S    
N10   O46   1.296419 A    
C31   C32   1.421192 A    
Cr5   O26   2.010669 S    
N2    O30   1.299211 A    
Cr2   O13   1.981473 S    
C9    C13   1.553363 S    
C10   N9    1.491888 S    
C7    C11   1.573057 S    
C25   C26   1.410079 A    
N7    O40   1.300169 A    
C1    O3    1.280780 A    
O20   Cr4   2.082012 S    
C34   C35   1.403566 A    
N9    O43   1.301514 A    
C39   C44   1.383110 A    
C36   H3    1.082928 S    
C23   C24   1.405137 A    
N8    O42   1.303194 A    
C23   C47   1.471093 S    
O9    Cr2   2.082928 S    
O2    Cr1   1.961619 S    
C24   H13   1.081745 S    
C33   C38   1.401150 A    
C27   C28   1.363370 A    
O25   C50   1.317886 A    
O6    Cr3   1.947066 S    
N5    O36   1.298486 A    
O8    C4    1.265039 A    
O11   Cr3   2.067170 S    
C2    O5    1.281544 A    
Cr4   O26   1.982380 S    
N3    O31   1.301794 A    
C9    C11   1.582569 S    
C15   C16   1.395154 A    
N6    O38   1.298572 A    
O2    C1    1.269637 A    
C21   C26   1.427544 A    
C12   C14   1.583922 S    
O5    Cr3   2.069402 S    
N6    O37   1.298199 A    
O15   Cr4   1.961108 S    
C21   C22   1.404484 A    
O7    C6    1.307429 A    
N2    O29   1.302491 A    
C16   C17   1.395311 A    
O14   C47   1.264317 A    
C46   O18   1.269358 A    
O3    Cr2   2.085258 S    
C28   C29   1.405675 A    
O19   C47   1.280242 A    
C2    C12   1.471336 S    
C4    O9    1.270390 A    
C9    H6    1.108554 S    
O15   C45   1.299166 A    
C10   C11   1.568078 S    
O10   C5    1.280179 A    
C9    N7    1.475395 S    
N7    O39   1.295538 A    
C37   H18   1.081243 S    
C43   H21   1.082424 S    
N9    O44   1.301543 A    
