data_mof_unit_17585.cif
_audit_creation_date              2012-10-26T18:27:34-0400
_audit_creation_method            fapswitch 2.2
_symmetry_space_group_name_H-M    P1
_symmetry_Int_Tables_number       1
_space_group_crystal_system       triclinic
_cell_length_a                    10.855231
_cell_length_b                    10.90832
_cell_length_c                    9.868235
_cell_angle_alpha                 110.067154
_cell_angle_beta                  98.38368
_cell_angle_gamma                 92.106794
_cell_volume                      1081.10593537

loop_
_atom_site_label
_atom_site_type_symbol
_atom_type_description
_atom_site_fract_x
_atom_site_fract_y
_atom_site_fract_z
_atom_type_partial_charge
C1    C     C_R   0.494576 0.253826 0.442163 0.544841
C2    C     C_2   0.577699 0.940435 0.502859 0.112945
C3    C     C_2   0.519737 0.498361 0.074450 0.238537
C4    C     C_R   0.263026 0.505600 0.501905 0.582601
C5    C     C_2   0.492674 0.481882 0.915263 0.021288
C6    C     C_R   0.514656 0.746270 0.557945 0.575047
C7    C     C_R   0.737866 0.509523 0.502549 0.565661
C8    C     C_R   0.170116 0.707332 0.739480 0.127777
C9    C     C_R   0.137238 0.760880 0.877492 -0.097991
C10   C     C_R   0.013046 0.745887 0.894734 0.136896
C11   C     C_R   0.921774 0.693419 0.765834 0.147759
C12   C     C_R   0.087591 0.609076 0.627663 0.005145
C13   C     C_R   0.958119 0.607648 0.634406 -0.007354
C14   C     C_3   0.747437 0.519578 0.119754 -0.306188
C15   C     C_3   0.227246 0.847428 0.610648 -0.309422
C16   C     C_3   0.045998 0.769723 0.152411 -0.316828
C17   C     C_3   0.823389 0.887268 0.766975 -0.320292
C18   C     C_3   0.736961 0.939393 0.345698 -0.305713
C19   C     C_R   0.130252 0.519766 0.505595 0.010986
C20   C     C_R   0.045224 0.436322 0.387295 -0.178647
C21   C     C_R   0.918698 0.437798 0.389145 -0.181465
C22   C     C_R   0.873062 0.522795 0.508816 0.002649
C23   C     C_2   0.507254 0.114944 0.414890 -0.138077
C24   C     C_2   0.559724 0.077786 0.524582 -0.135217
C25   C     C_2   0.523855 0.887255 0.586775 -0.119062
Cu1   Cu    Cu3+1 0.521920 0.521810 0.644910 0.924130
Cu2   Cu    Cu3+1 0.478080 0.478190 0.355090 0.930645
H1    H     H_    0.077007 0.366167 0.294418 0.129977
H2    H     H_    0.763520 0.518927 0.011178 0.143881
H3    H     H_    0.743680 0.417134 0.117362 0.156672
H4    H     H_    0.337238 0.825382 0.791954 0.249802
H5    H     H_    0.263558 0.807809 0.506240 0.160988
H6    H     H_    0.261726 0.952643 0.665753 0.114513
H7    H     H_    0.123476 0.841988 0.583684 0.136899
H8    H     H_    0.204369 0.827914 0.966661 0.114833
H9    H     H_    0.884680 0.805780 0.038540 0.241795
H10   H     H_    0.147769 0.798308 0.169748 0.154346
H11   H     H_    0.029644 0.662347 0.126428 0.143686
H12   H     H_    0.478883 0.043937 0.304929 0.111157
H13   H     H_    0.012492 0.821294 0.256539 0.127259
H14   H     H_    0.753175 0.741966 0.833443 0.258392
H15   H     H_    0.732528 0.929673 0.769435 0.137577
H16   H     H_    0.862047 0.891638 0.670367 0.144798
H17   H     H_    0.887025 0.948955 0.868395 0.153446
H18   H     H_    0.708073 0.806191 0.447001 0.242093
H19   H     H_    0.797277 0.870835 0.280505 0.130701
H20   H     H_    0.797735 0.020080 0.434246 0.141364
H21   H     H_    0.679275 0.978334 0.270285 0.157636
H22   H     H_    0.481523 0.949109 0.676307 0.059722
H23   H     H_    0.422514 0.405562 0.841819 0.115116
H24   H     H_    0.613953 0.633372 0.933967 0.220873
H25   H     H_    0.364911 0.391400 0.071567 0.174842
H26   H     H_    0.856092 0.366553 0.298814 0.124167
H27   H     H_    0.584948 0.147904 0.635586 0.129856
H28   H     H_    0.632611 0.628384 0.262433 0.317696
H29   H     H_    0.827737 0.579033 0.202314 0.134612
N1    N     N_2   0.445130 0.445430 0.137370 -0.343417
N2    N     N_2   0.554930 0.554500 0.862630 -0.362138
N3    N     N_2   0.632215 0.575893 0.155203 -0.492159
N4    N     N_2   0.268884 0.773678 0.704228 -0.482054
N5    N     N_2   0.979063 0.806229 0.035843 -0.528411
N6    N     N_2   0.807513 0.752654 0.760310 -0.488252
N7    N     N_2   0.658782 0.869205 0.407259 -0.496961
O1    O     O_R   0.511700 0.332330 0.577400 -0.501445
O2    O     O_R   0.474680 0.295500 0.332650 -0.490229
O3    O     O_R   0.338160 0.518420 0.622400 -0.475907
O4    O     O_R   0.301140 0.481590 0.377650 -0.506207
O5    O     O_R   0.525320 0.704500 0.667350 -0.489557
O6    O     O_R   0.488300 0.667670 0.422600 -0.488750
O7    O     O_R   0.698860 0.518410 0.622350 -0.479919
O8    O     O_R   0.661840 0.481580 0.377600 -0.513946

loop_
_geom_bond_atom_site_label_1
_geom_bond_atom_site_label_2
_ccdc_geom_bond_type
H4    N4    S    
C6    O6    A    
C14   H29   S    
C23   C24   D    
C17   H16   S    
Cu2   O2    S    
C7    O8    A    
H28   N3    S    
C17   N6    S    
C4    O4    A    
C7    C22   S    
Cu1   N2    S    
C9    C10   A    
C15   H7    S    
C1    O2    A    
C19   C20   A    
Cu2   O6    S    
C16   H10   S    
C8    C12   A    
C11   N6    S    
Cu1   O5    S    
C18   H20   S    
C20   C21   A    
C7    O7    A    
C6    O5    A    
C17   H17   S    
C15   H5    S    
H24   N2    S    
H18   N7    S    
C21   C22   A    
C12   C13   A    
C21   H26   S    
C14   N3    S    
C11   C13   A    
C5    N2    D    
Cu1   Cu2   S    
Cu1   O3    S    
H14   N6    S    
C16   H13   S    
C23   H12   S    
C18   H19   S    
C12   C19   A    
C14   H3    S    
C13   C22   A    
C1    C23   S    
C2    C25   D    
C10   C11   A    
C2    C24   S    
Cu1   O7    S    
C25   H22   S    
C5    H23   S    
C10   N5    S    
Cu2   O4    S    
H25   N1    S    
C14   H2    S    
C24   H27   S    
H9    N5    S    
C6    C25   S    
C1    O1    A    
C3    N1    D    
Cu2   O8    S    
C2    N7    S    
C4    O3    A    
C18   N7    S    
Cu2   N1    S    
C9    H8    S    
Cu1   O1    S    
C17   H15   S    
C20   H1    S    
C16   N5    S    
C4    C19   S    
C18   H21   S    
C15   H6    S    
C15   N4    S    
C8    N4    S    
C16   H11   S    
C8    C9    A    
C3    C5    S    
C3    N3    S    
