data_mof_unit_10317.cif
_audit_creation_date              2012-12-11T15:20:36-0500
_audit_creation_method            fapswitch 2.2
_symmetry_space_group_name_H-M    P1
_symmetry_Int_Tables_number       1
_space_group_crystal_system       triclinic
_cell_length_a                    13.111449
_cell_length_b                    12.998638
_cell_length_c                    15.377888
_cell_angle_alpha                 117.131947
_cell_angle_beta                  63.518925
_cell_angle_gamma                 97.668816
_cell_volume                      2079.69238255

loop_
_atom_site_label
_atom_site_type_symbol
_atom_type_description
_atom_site_fract_x
_atom_site_fract_y
_atom_site_fract_z
_atom_type_partial_charge
C1    C     C_R   0.020721 0.835485 0.033210 -0.075332
C2    C     C_R   0.319170 0.524456 0.782672 -0.020125
C3    C     C_R   0.245878 0.475902 0.102941 -0.209049
C4    C     C_R   0.699635 0.407921 0.210545 0.764519
C5    C     C_R   0.984911 0.302326 0.697362 -0.264486
C6    C     C_R   0.337001 0.538184 0.071482 0.002931
C7    C     C_R   0.921803 0.209059 0.697064 -0.116618
C8    C     C_R   0.328120 0.460172 0.679306 0.107776
C9    C     C_R   0.070444 0.141858 0.982616 -0.054112
C10   C     C_R   0.949024 0.046530 0.418871 -0.251639
C11   C     C_R   0.938189 0.142260 0.513327 -0.140664
C12   C     C_R   0.706263 0.432754 0.304491 -0.067551
C13   C     C_R   0.886918 0.134301 0.611656 0.090425
C14   C     C_R   0.821092 0.041606 0.618015 -0.303020
C15   C     C_R   0.829122 0.946416 0.523071 0.802461
C16   C     C_R   0.746723 0.541679 0.913280 -0.084116
C17   C     C_R   0.907378 0.942966 0.422501 -0.037567
C18   C     C_R   0.589429 0.532474 0.495036 -0.396362
C19   C     C_R   0.496933 0.542295 0.589118 0.621380
C20   C     C_R   0.430845 0.446813 0.584983 -0.102523
C21   C     C_R   0.460176 0.342301 0.490024 -0.435769
C22   C     C_R   0.554777 0.333172 0.396440 0.867883
C23   C     C_R   0.647489 0.499694 0.964486 -0.071485
C24   C     C_R   0.617544 0.429456 0.399724 -0.128773
C25   C     C_2   0.447104 0.525721 0.063174 -0.450838
C26   C     C_2   0.539073 0.512151 0.970936 0.775933
C27   C     C_2   0.876189 0.968058 0.050886 -0.156572
C28   C     C_R   0.946819 0.722189 0.315822 0.790504
C29   C     C_2   0.870579 0.060207 0.141260 -0.020649
C30   C     C_R   0.667676 0.443540 0.012134 -0.148553
C31   C     C_R   0.030953 0.821917 0.221193 -0.280800
C32   C     C_R   0.803184 0.487870 0.302659 -0.175565
C33   C     C_R   0.915312 0.749590 0.943001 -0.100018
C34   C     C_R   0.956284 0.833388 0.324249 -0.083187
C35   C     C_R   0.938696 0.856407 0.007716 0.094132
C36   C     C_3   0.545308 0.689862 0.716953 -0.132859
C37   C     C_3   0.370011 0.770193 0.088099 -0.205685
C38   C     C_R   0.317047 0.585467 0.016856 0.697197
C39   C     C_R   0.899550 0.203528 0.791927 0.836659
C40   C     C_R   0.219355 0.444974 0.683975 -0.111277
C41   C     C_R   0.088990 0.249842 0.051665 -0.260756
C42   C     C_R   0.990592 0.165116 0.955796 0.741264
F1    F     F_    0.815565 0.146654 0.838492 -0.663186
F2    F     F_    0.947269 0.083392 0.890868 -0.673461
F3    F     F_    0.627258 0.337818 0.173496 -0.671964
F4    F     F_    0.764326 0.857739 0.530633 -0.668394
F5    F     F_    0.583975 0.232373 0.303583 -0.657498
F6    F     F_    0.533989 0.507416 0.882615 -0.708203
F7    F     F_    0.906112 0.691830 0.397763 -0.689253
H1    H     H_    0.066977 0.900690 0.071257 0.089533
H2    H     H_    0.635041 0.608324 0.494610 0.225852
H3    H     H_    0.408892 0.269386 0.488427 0.189774
H4    H     H_    0.452920 0.524307 0.130956 0.149174
H5    H     H_    0.826163 0.973567 0.012618 0.210973
H6    H     H_    0.914890 0.059185 0.185997 0.095976
H7    H     H_    0.761584 0.578739 0.858869 0.128539
H8    H     H_    0.612378 0.390135 0.047684 0.199212
H9    H     H_    0.070189 0.890127 0.200266 0.142926
H10   H     H_    0.839719 0.505638 0.358168 0.215141
H11   H     H_    0.858092 0.734557 0.906126 0.109707
H12   H     H_    0.196558 0.402508 0.616937 0.116968
H13   H     H_    0.610588 0.730312 0.668461 0.188859
H14   H     H_    0.586656 0.620045 0.716679 0.143813
H15   H     H_    0.504716 0.758026 0.802185 0.190670
H16   H     H_    0.439510 0.752406 0.103226 0.152578
H17   H     H_    0.286327 0.790825 0.161098 0.120092
H18   H     H_    0.389085 0.848544 0.074091 0.180532
H19   H     H_    0.145533 0.265187 0.089388 0.159926
H20   H     H_    0.387786 0.552220 0.806543 0.189437
H21   H     H_    0.229545 0.436143 0.155684 0.149808
H22   H     H_    0.003247 0.344240 0.646056 0.144696
H23   H     H_    0.999769 0.052119 0.343592 0.147208
H24   H     H_    0.982490 0.215990 0.505458 0.132439
H25   H     H_    0.769980 0.037878 0.694069 0.229874
N1    N     N_R   0.037310 0.720000 0.995790 -0.039062
N2    N     N_R   0.824890 0.517960 0.936420 -0.056230
N3    N     N_R   0.003210 0.648190 0.211380 -0.121669
N4    N     N_R   0.774330 0.457010 0.995840 -0.045194
N5    N     N_R   0.053760 0.709140 0.151960 -0.081561
N6    N     N_R   0.853860 0.498840 0.211410 -0.091951
N7    N     N_R   0.974240 0.667310 0.936390 -0.050596
N8    N     N_R   0.225670 0.542990 0.004160 -0.118059
N9    N     N_R   0.946240 0.290860 0.848040 -0.120114
N10   N     N_R   0.146140 0.501160 0.788590 -0.049114
N11   N     N_R   0.025760 0.332690 0.063610 -0.078812
N12   N     N_R   0.962690 0.280000 0.004210 -0.120618
N13   N     N_R   0.209210 0.553840 0.847990 -0.054898
N14   N     N_R   0.175110 0.482040 0.063580 -0.077241
N15   N     N_R   0.996790 0.351810 0.788620 -0.085240
N16   N     N_R   0.790790 0.446160 0.152010 -0.132848
Ni1   Ni    Ni4+2 0.130310 0.630310 0.999970 0.247346
Ni2   Ni    Ni4+2 0.869690 0.369690 0.000030 0.320954
Ni3   Ni    Ni4+2 0.985640 0.509470 0.863740 0.209365
Ni4   Ni    Ni4+2 0.014360 0.490530 0.136260 0.212189
O1    O     O_3   0.459681 0.649557 0.679999 -0.622890
O2    O     O_3   0.366583 0.677118 0.994572 -0.622621

loop_
_geom_bond_atom_site_label_1
_geom_bond_atom_site_label_2
_ccdc_geom_bond_type
N13   Ni1   S    
C27   C29   D    
C40   N10   A    
C36   H15   S    
C19   C20   A    
N10   N13   A    
C3    C6    A    
C27   H5    S    
N11   N12   A    
N9    Ni2   S    
C9    C42   A    
C8    C20   S    
C18   C24   A    
C14   H25   S    
C31   H9    S    
C25   H4    S    
C6    C25   S    
C10   C17   A    
C30   H8    S    
N3    Ni4   S    
C18   C19   A    
C28   F7    S    
C23   C26   S    
C37   H16   S    
C6    C38   A    
C42   N12   A    
C4    C12   A    
C36   H14   S    
C1    H1    S    
N5    Ni1   S    
C26   F6    S    
C22   F5    S    
C28   C34   A    
C13   C14   A    
C12   C32   A    
N15   Ni3   S    
C42   F2    S    
C36   H13   S    
C18   H2    S    
C41   H19   S    
C4    N16   A    
C4    F3    S    
N3    N5    A    
N9    N15   A    
N14   Ni4   S    
C1    N1    A    
C23   C30   A    
C3    H21   S    
C11   H24   S    
C5    C7    A    
N1    N7    A    
C39   F1    S    
C29   H6    S    
C27   C35   S    
C25   C26   D    
C40   H12   S    
C37   O2    S    
C16   H7    S    
N2    Ni3   S    
C32   N6    A    
N7    Ni3   S    
N11   Ni4   S    
N16   Ni2   S    
C37   H17   S    
C31   C34   A    
C2    N13   A    
C28   N3    A    
C16   C23   A    
C22   C24   A    
C17   C34   S    
N6    Ni4   S    
C2    H20   S    
C19   O1    S    
C1    C35   A    
C15   C17   A    
C3    N14   A    
C16   N2    A    
C2    C8    A    
N2    N4    A    
C31   N5    A    
N1    Ni1   S    
C33   H11   S    
C41   N11   A    
C12   C24   S    
C9    C41   A    
C15   F4    S    
N4    Ni2   S    
C39   N9    A    
C5    H22   S    
N12   Ni2   S    
C11   C13   A    
C36   O1    S    
N8    N14   A    
C37   H18   S    
C33   C35   A    
N10   Ni3   S    
N6    N16   A    
C5    N15   A    
C10   C11   A    
N8    Ni1   S    
C30   N4    A    
C7    C13   S    
C20   C21   A    
C38   O2    S    
C7    C39   A    
C14   C15   A    
C8    C40   A    
C32   H10   S    
C21   C22   A    
C33   N7    A    
C21   H3    S    
C38   N8    A    
C10   H23   S    
