data_mof_unit_9916.cif
_audit_creation_date              2012-12-10T20:41:54-0500
_audit_creation_method            fapswitch 2.2
_symmetry_space_group_name_H-M    P1
_symmetry_Int_Tables_number       1
_space_group_crystal_system       triclinic
_cell_length_a                    14.659288
_cell_length_b                    15.460663
_cell_length_c                    9.973986
_cell_angle_alpha                 90.80655
_cell_angle_beta                  86.219448
_cell_angle_gamma                 90.579657
_cell_volume                      2255.28899248

loop_
_atom_site_label
_atom_site_type_symbol
_atom_type_description
_atom_site_fract_x
_atom_site_fract_y
_atom_site_fract_z
_atom_type_partial_charge
C1    C     C_R   0.388992 0.872572 0.499876 0.944593
C2    C     C_R   0.928879 0.536014 0.079864 -0.134599
C3    C     C_R   0.574865 0.975869 0.063426 0.747428
C4    C     C_R   0.074800 0.475762 0.063436 0.743912
C5    C     C_R   0.575318 0.977349 0.920403 -0.022665
C6    C     C_R   0.075057 0.476639 0.920461 -0.026534
C7    C     C_R   0.426716 0.030008 0.937857 -0.111022
C8    C     C_R   0.926779 0.530805 0.937375 -0.097450
C9    C     C_3   0.333731 0.988732 0.959987 1.215796
C10   C     C_3   0.833631 0.489923 0.954601 1.188831
C11   C     C_3   0.328647 0.020658 0.104081 -0.008922
C12   C     C_R   0.386467 0.125283 0.502053 0.952182
C13   C     C_3   0.829290 0.512848 0.102367 -0.008874
C14   C     C_R   0.625585 0.114911 0.497034 0.884170
C15   C     C_R   0.622886 0.882752 0.496691 0.895312
C16   C     C_R   0.125172 0.615318 0.497230 0.881100
C17   C     C_R   0.122465 0.382455 0.496594 0.896957
C18   C     C_R   0.281910 0.227047 0.619600 -0.165518
C19   C     C_R   0.318190 0.743883 0.612185 -0.194085
C20   C     C_R   0.786765 0.731220 0.620828 -0.168357
C21   C     C_R   0.819199 0.241765 0.612807 -0.207794
C22   C     C_R   0.336088 0.204935 0.505489 -0.209308
C23   C     C_R   0.889154 0.372206 0.500199 0.970767
C24   C     C_R   0.346523 0.787199 0.495342 -0.212056
C25   C     C_R   0.837701 0.706221 0.504949 -0.209712
C26   C     C_R   0.847526 0.285871 0.496578 -0.171702
C27   C     C_R   0.337675 0.262016 0.394460 -0.052733
C28   C     C_R   0.330927 0.743503 0.371884 -0.024904
C29   C     C_R   0.837176 0.761291 0.391656 -0.051582
C30   C     C_R   0.833903 0.241887 0.373401 -0.026597
C31   C     C_R   0.766339 0.821240 0.386301 0.708217
C32   C     C_R   0.760394 0.182512 0.369847 0.651016
C33   C     C_R   0.266806 0.321933 0.388509 0.707712
C34   C     C_R   0.886854 0.625625 0.501960 0.960715
C35   C     C_R   0.258924 0.683375 0.370162 0.708899
C36   C     C_R   0.699977 0.826887 0.494230 -0.293031
C37   C     C_R   0.711095 0.161529 0.491287 -0.254872
C38   C     C_R   0.198151 0.325244 0.493617 -0.293413
C39   C     C_R   0.209778 0.663018 0.491824 -0.285942
C40   C     C_R   0.717189 0.788145 0.613779 -0.105666
C41   C     C_R   0.751848 0.180021 0.610007 -0.100317
C42   C     C_R   0.212226 0.283406 0.611501 -0.106947
C43   C     C_R   0.250289 0.682844 0.610466 -0.097528
C44   C     C_3   0.654466 0.742814 0.713843 0.417896
C45   C     C_3   0.227651 0.176253 0.723223 0.696855
C46   C     C_3   0.712869 0.199830 0.748498 0.446425
C47   C     C_3   0.147793 0.236329 0.706985 0.407479
C48   C     C_3   0.212544 0.703317 0.749571 0.455724
C49   C     C_3   0.289350 0.770072 0.752493 0.668895
C50   C     C_3   0.733829 0.682047 0.727696 0.698765
C51   C     C_3   0.788181 0.267661 0.752107 0.680826
C52   C     C_R   0.429733 0.037720 0.079770 -0.107527
F1    F     F_    0.762367 0.871890 0.277050 -0.558056
F2    F     F_    0.256614 0.853616 0.762374 -0.563873
F3    F     F_    0.714061 0.597903 0.689351 -0.583298
F4    F     F_    0.752962 0.350352 0.759121 -0.562224
F5    F     F_    0.650808 0.950443 0.121214 -0.542761
F6    F     F_    0.150682 0.450114 0.121281 -0.544005
F7    F     F_    0.266010 0.018044 0.884180 -0.561721
F8    F     F_    0.340414 0.900317 0.955352 -0.656838
F9    F     F_    0.765353 0.524611 0.885848 -0.559494
F10   F     F_    0.840423 0.403038 0.933950 -0.667466
F11   F     F_    0.735819 0.149148 0.250582 -0.602409
F12   F     F_    0.265264 0.375205 0.281852 -0.556028
F13   F     F_    0.235861 0.648653 0.251016 -0.573278
F14   F     F_    0.632659 0.793163 0.827029 -0.663049
F15   F     F_    0.722333 0.131082 0.833936 -0.640366
F16   F     F_    0.122568 0.285401 0.820371 -0.665212
F17   F     F_    0.221408 0.634435 0.834956 -0.631512
F18   F     F_    0.210352 0.091840 0.683502 -0.591355
H1    H     H_    0.594084 0.712694 0.669085 0.084754
H2    H     H_    0.456810 0.759365 0.276121 0.207069
H3    H     H_    0.903619 0.704678 0.227413 0.212893
H4    H     H_    0.971515 0.761729 0.328701 0.200667
H5    H     H_    0.959639 0.236017 0.279385 0.200482
H6    H     H_    0.875938 0.217699 0.175687 0.269613
H7    H     H_    0.265560 0.114250 0.228112 0.201351
H8    H     H_    0.309691 0.152715 0.083783 0.195553
H9    H     H_    0.238255 0.926801 0.171153 0.231240
H10   H     H_    0.284707 0.981478 0.293727 0.224855
H11   H     H_    0.797794 0.643336 0.094702 0.200296
H12   H     H_    0.642661 0.226769 0.752394 0.111670
H13   H     H_    0.768308 0.596779 0.242103 0.227794
H14   H     H_    0.739895 0.419697 0.174935 0.235076
H15   H     H_    0.849198 0.388094 0.159932 0.256186
H16   H     H_    0.334510 0.163243 0.841470 0.179770
H17   H     H_    0.272401 0.249540 0.882460 0.213975
H18   H     H_    0.417540 0.787540 0.818831 0.231026
H19   H     H_    0.379863 0.685994 0.833663 0.211153
H20   H     H_    0.842593 0.667376 0.842575 0.179351
H21   H     H_    0.783423 0.755480 0.883549 0.216349
H22   H     H_    0.916565 0.285058 0.818407 0.237639
H23   H     H_    0.089173 0.206065 0.657964 0.080774
H24   H     H_    0.877243 0.184849 0.839514 0.207978
H25   H     H_    0.142766 0.731234 0.754061 0.106973
H26   H     H_    0.636496 0.958881 0.860885 0.230070
H27   H     H_    0.135894 0.457088 0.861006 0.223942
H28   H     H_    0.409238 0.207955 0.232459 0.213091
H29   H     H_    0.473047 0.265520 0.338542 0.202434
H30   H     H_    0.370747 0.810018 0.202516 0.266033
N1    N     N_R   0.499140 1.000000 0.142800 -0.149734
N2    N     N_3   0.300262 0.953138 0.199425 -0.388446
N3    N     N_3   0.770336 0.586990 0.138103 -0.378149
N4    N     N_3   0.807005 0.439527 0.189398 -0.361623
N5    N     N_3   0.267010 0.184395 0.853773 -0.345219
N6    N     N_3   0.359337 0.750424 0.845985 -0.300253
N7    N     N_3   0.775845 0.690258 0.856573 -0.352297
N8    N     N_3   0.857523 0.249679 0.847616 -0.325179
N9    N     N_R   0.999140 0.500000 0.142800 -0.154365
N10   N     N_R   0.499160 1.000000 0.857150 -0.140968
N11   N     N_R   0.999160 0.500000 0.857150 -0.136762
N12   N     N_3   0.411142 0.263640 0.292106 -0.368202
N13   N     N_3   0.388709 0.754392 0.251422 -0.345001
N14   N     N_3   0.908325 0.760675 0.285778 -0.371856
N15   N     N_3   0.894579 0.256097 0.256638 -0.420132
N16   N     N_3   0.274056 0.099772 0.125463 -0.400156
O1    O     O_R   0.408400 0.908380 0.614690 -0.537319
O2    O     O_R   0.591610 0.908390 0.614650 -0.605191
O3    O     O_R   0.091610 0.591610 0.614650 -0.617884
O4    O     O_R   0.091610 0.408390 0.614650 -0.603010
O5    O     O_R   0.591590 0.091600 0.385310 -0.542280
O6    O     O_R   0.591590 0.908400 0.385310 -0.539312
O7    O     O_R   0.091590 0.591600 0.385310 -0.547552
O8    O     O_R   0.091590 0.408400 0.385310 -0.540236
O9    O     O_R   0.408400 0.091620 0.614690 -0.576730
O10   O     O_R   0.908400 0.408380 0.614690 -0.542737
O11   O     O_R   0.908400 0.591620 0.614690 -0.578230
O12   O     O_R   0.408370 0.908370 0.385350 -0.650953
O13   O     O_R   0.408370 0.091630 0.385350 -0.654984
O14   O     O_R   0.908370 0.408370 0.385350 -0.609591
O15   O     O_R   0.908370 0.591630 0.385350 -0.643523
O16   O     O_R   0.591610 0.091610 0.614650 -0.620237
Zn1   Zn    Zn3+2 0.500010 0.000000 0.653130 1.056789
Zn2   Zn    Zn3+2 0.000010 0.500000 0.653130 1.061649
Zn3   Zn    Zn3+2 0.499980 0.000000 0.346870 1.048170
Zn4   Zn    Zn3+2 0.999980 0.500000 0.346870 1.063578

loop_
_geom_bond_atom_site_label_1
_geom_bond_atom_site_label_2
_ccdc_geom_bond_type
C4    N9    A    
C2    N9    A    
C48   H25   S    
C6    N11   A    
C47   F16   S    
C44   F14   S    
O11   Zn2   S    
C48   F17   S    
C29   N14   S    
O1    Zn1   S    
C14   O16   A    
C27   C33   A    
H24   N8    S    
H13   N3    S    
C15   O6    A    
C16   O7    A    
C7    C52   A    
C38   C42   A    
C18   C42   A    
C20   C40   A    
C5    N10   A    
C35   F13   S    
O9    Zn1   S    
C49   F2    S    
H4    N14   S    
C12   C22   S    
H6    N15   S    
C44   H1    S    
C51   F4    S    
C23   C26   S    
C2    C13   S    
C20   C50   S    
C11   C52   S    
C17   O4    A    
O13   Zn3   S    
H22   N8    S    
C28   C35   A    
C19   C43   A    
O16   Zn1   S    
H19   N6    S    
C41   C46   S    
C1    O12   A    
H9    N2    S    
C13   N3    S    
H7    N16   S    
C43   C48   S    
C25   C34   S    
C17   C38   S    
O2    Zn1   S    
C3    N1    A    
C45   C47   S    
C14   O5    A    
C46   H12   S    
N9    Zn4   S    
C10   F10   S    
C21   C26   A    
C45   N5    S    
H8    N16   S    
C30   N15   S    
N1    Zn3   S    
C25   C29   A    
C2    C8    A    
C52   N1    A    
O3    Zn2   S    
H28   N12   S    
C12   O13   A    
O8    Zn4   S    
C6    H27   S    
H21   N7    S    
C36   C40   A    
C4    C6    A    
O15   Zn4   S    
O12   Zn3   S    
C34   O11   A    
C39   C43   A    
C12   O9    A    
C46   C51   S    
C31   F1    S    
H3    N14   S    
C23   O14   A    
H10   N2    S    
C9    F7    S    
C35   C39   A    
H18   N6    S    
C19   C49   S    
C17   O8    A    
H17   N5    S    
C50   F3    S    
C47   H23   S    
C1    O1    A    
C32   C37   A    
O5    Zn3   S    
C13   N4    S    
C11   N16   S    
C9    C11   S    
H15   N4    S    
C23   O10   A    
C21   C41   A    
C3    F5    S    
C48   C49   S    
C27   N12   S    
C51   N8    S    
C22   C27   A    
C50   N7    S    
H14   N4    S    
C8    N11   A    
C10   F9    S    
H5    N15   S    
C18   C45   S    
C15   C36   S    
C21   C51   S    
C5    H26   S    
H11   N3    S    
C44   C50   S    
C7    C9    S    
C45   F18   S    
C18   C22   A    
O14   Zn4   S    
H30   N13   S    
C24   C28   A    
C32   F11   S    
C3    C5    A    
C10   C13   S    
H20   N7    S    
C7    N10   A    
N11   Zn2   S    
C26   C30   A    
C49   N6    S    
C33   C38   A    
C15   O2    A    
C34   O15   A    
O7    Zn4   S    
C9    F8    S    
C19   C24   A    
C46   F15   S    
C29   C31   A    
C14   C37   S    
C30   C32   A    
C33   F12   S    
H29   N12   S    
H2    N13   S    
C11   N2    S    
O4    Zn2   S    
C42   C47   S    
C37   C41   A    
O6    Zn3   S    
C28   N13   S    
C16   C39   S    
H16   N5    S    
C40   C44   S    
O10   Zn2   S    
C1    C24   S    
C8    C10   S    
C20   C25   A    
C4    F6    S    
C31   C36   A    
N10   Zn1   S    
C16   O3    A    
