data_mof_unit_25775.cif
_audit_creation_date              2012-12-10T20:37:30-0500
_audit_creation_method            fapswitch 2.2
_symmetry_space_group_name_H-M    P1
_symmetry_Int_Tables_number       1
_space_group_crystal_system       triclinic
_cell_length_a                    15.726866
_cell_length_b                    10.655532
_cell_length_c                    9.923839
_cell_angle_alpha                 89.521809
_cell_angle_beta                  90.348533
_cell_angle_gamma                 89.744396
_cell_volume                      1662.91270693

loop_
_atom_site_label
_atom_site_type_symbol
_atom_type_description
_atom_site_fract_x
_atom_site_fract_y
_atom_site_fract_z
_atom_type_partial_charge
C1    C     C_R   0.505132 0.260439 0.500724 0.929481
C2    C     C_3   0.084106 0.493416 0.494527 0.024434
C3    C     C_3   0.971922 0.609927 0.505044 0.032315
C4    C     C_3   0.916334 0.492796 0.495522 0.077025
C5    C     C_3   0.027487 0.561758 0.389490 -0.100945
C6    C     C_3   0.971505 0.443075 0.379642 -0.140134
C7    C     C_1   0.174708 0.496018 0.497547 0.120148
C8    C     C_1   0.825661 0.495381 0.498708 0.075583
C9    C     C_R   0.493415 0.062904 0.617379 0.089947
C10   C     C_R   0.521268 0.128884 0.504946 -0.202392
C11   C     C_R   0.565518 0.065544 0.401263 -0.063307
C12   C     C_R   0.338267 0.500076 0.499671 0.864527
C13   C     C_R   0.564045 0.932873 0.400958 0.031782
C14   C     C_R   0.515634 0.871161 0.500898 -0.147226
C15   C     C_R   0.488569 0.935909 0.613320 0.006066
C16   C     C_3   0.407559 0.931916 0.693299 0.163406
C17   C     C_3   0.414404 0.075928 0.700805 -0.162865
C18   C     C_R   0.433120 0.547465 0.070053 0.070064
C19   C     C_R   0.568665 0.458462 0.074049 -0.068260
C20   C     C_R   0.568380 0.454892 0.930949 -0.008917
C21   C     C_R   0.433430 0.550121 0.928168 0.180907
C22   C     C_3   0.340012 0.515860 0.923991 0.069401
C23   C     C_R   0.502810 0.739640 0.499548 0.880122
C24   C     C_3   0.341623 0.510062 0.078367 -0.256803
C25   C     C_R   0.661830 0.499955 0.500319 0.913071
C26   C     C_3   0.972345 0.423713 0.601808 -0.212556
C27   C     C_3   0.028612 0.375012 0.484899 -0.084674
C28   C     C_1   0.249751 0.498287 0.498967 -0.118253
C29   C     C_1   0.750522 0.497749 0.500479 -0.101193
C30   C     C_3   0.028166 0.542273 0.608504 0.069907
H1    H     H_    0.362633 0.128623 0.647952 0.168057
H2    H     H_    0.622844 0.422703 0.130143 0.165716
H3    H     H_    0.302412 0.584167 0.126447 0.175168
H4    H     H_    0.948994 0.368196 0.689113 0.186347
N1    N     N_R   0.499430 0.499140 0.142800 -0.106380
N2    N     N_R   0.499430 0.499180 0.857150 -0.161232
O1    O     O_R   0.500010 0.316790 0.614690 -0.569777
O2    O     O_R   0.500000 0.316760 0.385350 -0.591964
O3    O     O_R   0.376780 0.500010 0.614650 -0.661789
O4    O     O_R   0.376770 0.499970 0.385310 -0.605385
O5    O     O_R   0.500000 0.683240 0.614650 -0.610215
O6    O     O_R   0.499990 0.683210 0.385310 -0.598833
O7    O     O_R   0.623230 0.500030 0.614690 -0.614125
O8    O     O_R   0.623220 0.499990 0.385350 -0.607206
Zn1   Zn    Zn3+2 0.500010 0.500020 0.653130 0.977841
Zn2   Zn    Zn3+2 0.499990 0.499980 0.346870 1.006413
C31   C     C_2   0.059384 0.242059 0.474614 0.971628
O9    O     O_2   0.007771 0.157033 0.466481 -0.607612
O10   O     O_R   0.146488 0.215802 0.475011 -0.815606
H5    H     H_    0.159101 0.122725 0.467722 0.340194
N3    N     N_3   0.416441 0.861680 0.820540 -0.412483
H6    H     H_    0.367952 0.889035 0.885728 0.204359
H7    H     H_    0.475044 0.879242 0.866757 0.193456
N4    N     N_3   0.433322 0.127311 0.834261 -0.395245
H8    H     H_    0.488470 0.087460 0.875946 0.244026
H9    H     H_    0.382265 0.108325 0.898037 0.221416
C32   C     C_2   0.641645 0.394305 0.866604 0.973511
O11   O     O_2   0.713458 0.432376 0.889765 -0.646195
O12   O     O_R   0.629638 0.289009 0.786095 -0.757248
H10   H     H_    0.684934 0.254908 0.748891 0.339916
N5    N     N_3   0.286569 0.619875 0.874774 -0.456766
H11   H     H_    0.222868 0.596795 0.891109 0.213149
H12   H     H_    0.294523 0.630624 0.771084 0.215249
N6    N     N_3   0.319554 0.394452 0.861321 -0.421389
H13   H     H_    0.372084 0.357624 0.811411 0.249692
H14   H     H_    0.270254 0.404776 0.790923 0.204850
C33   C     C_2   0.326213 0.380833 0.138200 1.033645
O13   O     O_2   0.377356 0.295438 0.121944 -0.616688
O14   O     O_R   0.251642 0.359402 0.210430 -0.761908
H15   H     H_    0.247682 0.270018 0.245510 0.356027
C34   C     C_2   0.941095 0.387474 0.249717 0.994123
O15   O     O_2   0.992917 0.348833 0.168530 -0.591069
O16   O     O_R   0.854149 0.381163 0.221448 -0.790786
H16   H     H_    0.841853 0.342651 0.130348 0.358846
C35   C     C_2   0.056304 0.639570 0.271821 0.970530
O17   O     O_2   0.003461 0.689616 0.198046 -0.594111
O18   O     O_R   0.143005 0.654113 0.246674 -0.805508
H17   H     H_    0.154213 0.707992 0.164048 0.340208
N7    N     N_3   0.939614 0.737672 0.516876 -0.408288
H18   H     H_    0.992125 0.796830 0.525827 0.206482
H19   H     H_    0.906435 0.742849 0.607585 0.196081
N8    N     N_3   0.060564 0.596719 0.732649 -0.441995
H20   H     H_    0.008141 0.625475 0.788929 0.220152
H21   H     H_    0.094115 0.677682 0.706472 0.179207
C36   C     C_2   0.611672 0.137041 0.296182 0.935370
O19   O     O_2   0.593369 0.124000 0.177163 -0.618924
O20   O     O_R   0.675106 0.221115 0.334452 -0.793319
H22   H     H_    0.702673 0.263564 0.254283 0.359949
N9    N     N_3   0.610486 0.859748 0.303818 -0.396546
H23   H     H_    0.653782 0.803405 0.357449 0.184624
H24   H     H_    0.647687 0.914981 0.240526 0.215777
N10   N     N_3   0.333167 0.890785 0.615619 -0.441884
H25   H     H_    0.332792 0.933840 0.520410 0.177093
H26   H     H_    0.338206 0.794168 0.599981 0.190715

loop_
_geom_bond_atom_site_label_1
_geom_bond_atom_site_label_2
_ccdc_geom_bond_type
O20   H22   S    
C12   O4    A    
C18   C21   A    
O16   H16   S    
C19   C20   A    
C16   N3    S    
C4    C8    S    
C3    N7    S    
C25   O7    A    
C31   O10   S    
C21   N2    A    
O18   H17   S    
O4    Zn2   S    
C26   C27   S    
C23   O6    A    
C12   C28   S    
C18   C24   S    
C8    C29   T    
C5    C6    S    
C32   O12   S    
C15   C16   S    
O6    Zn2   S    
N5    H12   S    
C24   C33   S    
C26   H4    S    
C2    C7    S    
C16   C17   S    
C2    C27   S    
N9    H24   S    
C18   N1    A    
C1    O1    A    
O3    Zn1   S    
O12   H10   S    
C21   C22   S    
N5    H11   S    
C19   H2    S    
C25   O8    A    
O8    Zn2   S    
C36   O20   S    
C25   C29   S    
C6    C34   S    
N4    H9    S    
C33   O13   D    
C31   O9    D    
C4    C6    S    
N7    H19   S    
C36   O19   D    
C7    C28   T    
N3    H6    S    
N3    H7    S    
N6    H14   S    
C14   C23   S    
C5    C35   S    
C3    C30   S    
C35   O17   D    
C35   O18   S    
C6    C27   S    
N10   H26   S    
N2    Zn1   S    
O7    Zn1   S    
C1    O2    A    
C9    C17   S    
C16   N10   S    
N8    H21   S    
C17   H1    S    
O10   H5    S    
C22   C24   S    
C2    C5    S    
O1    Zn1   S    
C3    C4    S    
N9    H23   S    
C34   O16   S    
C9    C10   A    
C27   C31   S    
N4    H8    S    
C30   N8    S    
C13   N9    S    
C1    C10   S    
C3    C5    S    
C4    C26   S    
C26   C30   S    
C24   H3    S    
C23   O5    A    
C2    C30   S    
N6    H13   S    
C12   O3    A    
C9    C15   A    
C34   O15   D    
C19   N1    A    
C22   N5    S    
C11   C13   A    
C32   O11   D    
C11   C36   S    
N10   H25   S    
O14   H15   S    
O2    Zn2   S    
C10   C11   A    
C22   N6    S    
N7    H18   S    
C20   N2    A    
N8    H20   S    
O5    Zn1   S    
C14   C15   A    
C33   O14   S    
C20   C32   S    
C13   C14   A    
N1    Zn2   S    
C17   N4    S    
