data_mof_unit_27098.cif
_audit_creation_date              2013-03-05T16:12:31-0500
_audit_creation_method            fapswitch 2.2
_symmetry_space_group_name_H-M    P1
_symmetry_Int_Tables_number       1
_space_group_crystal_system       triclinic
_cell_length_a                    23.523868
_cell_length_b                    7.230073
_cell_length_c                    21.137469
_cell_angle_alpha                 90.194366
_cell_angle_beta                  104.561849
_cell_angle_gamma                 90.140926
_cell_volume                      3479.52079801

loop_
_atom_site_label
_atom_site_type_symbol
_atom_site_description
_atom_site_fract_x
_atom_site_fract_y
_atom_site_fract_z
_atom_type_partial_charge
O1    O     O_R   0.449110 0.494310 0.552140 -0.581630
O2    O     O_R   0.550890 0.994310 0.447860 -0.584336
O3    O     O_R   0.440010 0.824420 0.415850 -0.612179
O4    O     O_R   0.559990 0.324420 0.584150 -0.607363
C1    C     C_R   0.425036 0.656186 0.392180 0.977529
C2    C     C_R   0.575031 0.156340 0.607395 0.994536
O5    O     O_R   0.442260 0.824040 0.549660 -0.561851
O6    O     O_R   0.557740 0.324040 0.450340 -0.554730
O7    O     O_R   0.553160 0.993960 0.582620 -0.561313
O8    O     O_R   0.446840 0.493960 0.417380 -0.553586
C3    C     C_R   0.427281 0.655834 0.566071 0.950394
C4    C     C_R   0.571994 0.156403 0.432891 0.968521
O9    O     O_3   0.536380 0.660670 0.510660 -0.269952
O10   O     O_3   0.463620 0.160670 0.489340 -0.275165
V1    V     V_3+5 0.493250 0.935680 0.498020 1.222585
V2    V     V_3+5 0.506750 0.435680 0.501980 1.233041
C5    C     C_R   0.819151 0.924219 0.168598 -0.273920
C6    C     C_R   0.178818 0.423554 0.828358 -0.272218
H1    H     H_    0.788157 0.814737 0.170913 0.154221
H2    H     H_    0.209289 0.313893 0.824959 0.155198
C7    C     C_R   0.855470 0.906629 0.125411 0.380036
C8    C     C_R   0.143218 0.405681 0.872351 0.379249
C9    C     C_R   0.894994 0.051680 0.119915 -0.339864
C10   C     C_R   0.104390 0.551042 0.879271 -0.343955
C11   C     C_R   0.898488 0.206370 0.161611 -0.148712
C12   C     C_R   0.100636 0.705610 0.837834 -0.148137
H3    H     H_    0.929500 0.316521 0.160758 0.176925
H4    H     H_    0.069890 0.815463 0.839421 0.178992
C13   C     C_R   0.861371 0.222937 0.203961 -0.116775
C14   C     C_R   0.137002 0.722330 0.794655 -0.112286
H5    H     H_    0.863814 0.346089 0.233868 0.124108
H6    H     H_    0.134348 0.845500 0.765034 0.124381
C15   C     C_R   0.820947 0.082802 0.206869 0.114360
C16   C     C_R   0.176899 0.582278 0.790489 0.110860
C17   C     C_1   0.779698 0.101463 0.247189 -0.041939
C18   C     C_1   0.217445 0.600958 0.749225 -0.042605
C19   C     C_1   0.744015 0.112968 0.279576 -0.036367
C20   C     C_1   0.252655 0.612069 0.716168 -0.035038
C21   C     C_R   0.669714 0.968651 0.328420 -0.151846
C22   C     C_R   0.328928 0.468560 0.670019 -0.152391
H7    H     H_    0.677555 0.836148 0.308097 0.127455
H8    H     H_    0.322649 0.338473 0.692696 0.131073
C23   C     C_R   0.627488 0.981501 0.364542 -0.237708
C24   C     C_R   0.371363 0.480617 0.634029 -0.204731
H9    H     H_    0.603119 0.858060 0.370102 0.186707
H10   H     H_    0.396977 0.358603 0.630405 0.184871
C25   C     C_R   0.616529 0.150319 0.392817 -0.258656
C26   C     C_R   0.381032 0.647378 0.603743 -0.275964
C27   C     C_R   0.648816 0.310072 0.382658 0.586383
C28   C     C_R   0.345112 0.802002 0.608902 0.583058
C29   C     C_R   0.689208 0.295778 0.343252 -0.326025
C30   C     C_R   0.304384 0.789640 0.647748 -0.324452
H11   H     H_    0.711182 0.417575 0.331363 0.126779
H12   H     H_    0.279307 0.910622 0.654294 0.131415
C31   C     C_R   0.700843 0.125478 0.317767 0.134565
C32   C     C_R   0.295551 0.623278 0.677487 0.123988
C33   C     C_R   0.645728 0.289531 0.777910 -0.120441
C34   C     C_R   0.352070 0.820907 0.225390 -0.098375
H13   H     H_    0.558659 0.287430 0.717244 0.130471
H14   H     H_    0.436736 0.845117 0.290313 0.134083
H15   H     H_    0.729284 0.367219 0.878587 0.153190
H16   H     H_    0.270492 0.870255 0.120108 0.149607
H17   H     H_    0.632278 0.365462 0.816014 0.123478
H18   H     H_    0.364252 0.910526 0.189876 0.120437
C35   C     C_R   0.619367 0.155799 0.670175 -0.242219
C36   C     C_R   0.381027 0.661231 0.328591 -0.250689
C37   C     C_R   0.898240 0.933667 0.779968 -0.154653
C38   C     C_R   0.098347 0.477513 0.224763 -0.158085
C39   C     C_R   0.857596 0.874965 0.724150 -0.114578
C40   C     C_R   0.134797 0.467824 0.287485 -0.110036
C41   C     C_R   0.799538 0.930764 0.712123 -0.035749
C42   C     C_R   0.193261 0.522610 0.299914 -0.073605
C43   C     C_R   0.781121 0.061927 0.752458 0.054391
C44   C     C_R   0.217572 0.585836 0.249312 0.070032
C45   C     C_R   0.821835 0.108443 0.813863 -0.064425
C46   C     C_R   0.178546 0.611840 0.185407 -0.047635
C47   C     C_R   0.721773 0.131891 0.736994 -0.057721
C48   C     C_R   0.278810 0.634697 0.261165 -0.079292
C49   C     C_R   0.704169 0.236577 0.785553 0.096760
C50   C     C_R   0.295329 0.748844 0.214446 0.109175
C51   C     C_R   0.744042 0.283512 0.843426 -0.364511
C52   C     C_R   0.256078 0.785564 0.155118 -0.350369
C53   C     C_R   0.800302 0.207326 0.860842 0.529576
C54   C     C_R   0.201240 0.698008 0.136892 0.523058
C55   C     C_R   0.678861 0.106084 0.675589 0.284966
C56   C     C_R   0.324287 0.579387 0.317268 0.277965
C57   C     C_R   0.603568 0.243488 0.721937 -0.207527
C58   C     C_R   0.393776 0.780917 0.282210 -0.171369
C59   C     C_R   0.881243 0.041991 0.827166 -0.167201
C60   C     C_R   0.118538 0.550975 0.173146 -0.162119
H19   H     H_    0.942737 0.881517 0.788932 0.112235
H20   H     H_    0.053281 0.430386 0.216617 0.107993
H21   H     H_    0.769408 0.861900 0.672262 0.153678
H22   H     H_    0.218036 0.522106 0.350288 0.146414
H23   H     H_    0.870710 0.778702 0.691127 0.125282
H24   H     H_    0.117458 0.417664 0.327102 0.115823
O11   O     O_R   0.053190 0.709680 0.082610 -0.565665
O12   O     O_R   0.946810 0.209680 0.917390 -0.561992
O13   O     O_R   0.057740 0.380240 0.950340 -0.552444
O14   O     O_R   0.942260 0.880240 0.049660 -0.553289
C61   C     C_R   0.068360 0.546971 0.928926 0.937130
C62   C     C_R   0.931743 0.047163 0.071115 0.930002
O15   O     O_R   0.060000 0.379940 0.084150 -0.606255
O16   O     O_R   0.940000 0.879940 0.915850 -0.609474
O17   O     O_R   0.949110 0.210100 0.052140 -0.563174
O18   O     O_R   0.050890 0.710100 0.947860 -0.563747
C63   C     C_R   0.075527 0.548453 0.107932 1.001556
C64   C     C_R   0.924619 0.047255 0.892011 0.999447
O19   O     O_3   0.963630 0.543720 0.989330 -0.257370
O20   O     O_3   0.036370 0.043720 0.010670 -0.259203
V3    V     V_3+5 0.006750 0.268680 0.001980 1.263096
V4    V     V_3+5 0.993250 0.768680 0.998020 1.261345
N1    N     N_R   0.696067 0.061756 0.616747 0.191476
O21   O     O_R   0.667870 0.936545 0.576464 -0.455666
O22   O     O_R   0.739858 0.148522 0.602878 -0.464576
N2    N     N_R   0.316065 0.425659 0.356786 0.217707
O23   O     O_R   0.299185 0.266871 0.329211 -0.415951
O24   O     O_R   0.328429 0.439895 0.420162 -0.475300
O25   O     O_3   0.831676 0.215664 0.925712 -0.657418
C65   C     C_3   0.798533 0.132621 0.965944 0.128957
H25   H     H_    0.825785 0.025191 0.995501 0.126664
H26   H     H_    0.758542 0.055225 0.938775 0.117033
C66   C     C_3   0.781839 0.278327 0.010897 -0.199627
H27   H     H_    0.820775 0.313870 0.050662 0.249037
H28   H     H_    0.767554 0.407423 0.983610 0.240832
C67   C     C_3   0.732171 0.211507 0.039749 -0.975897
H29   H     H_    0.690635 0.201601 0.000739 0.260745
H30   H     H_    0.725911 0.311086 0.077518 0.283664
H31   H     H_    0.742290 0.073652 0.062420 0.283062
O26   O     O_3   0.169906 0.700033 0.071938 -0.663389
C68   C     C_3   0.204758 0.627775 0.031635 0.118467
H32   H     H_    0.179453 0.516720 0.001350 0.136104
H33   H     H_    0.246134 0.558369 0.058698 0.117605
C69   C     C_3   0.218560 0.779754 0.987313 -0.199324
H34   H     H_    0.178407 0.813575 0.949148 0.249903
H35   H     H_    0.232444 0.908308 0.015587 0.237772
C70   C     C_3   0.267295 0.722044 0.955530 -0.967892
H36   H     H_    0.309732 0.713297 0.993123 0.259774
H37   H     H_    0.271600 0.826103 0.918479 0.285827
H38   H     H_    0.257483 0.585400 0.931323 0.278816
N3    N     N_R   0.848429 0.745437 0.084862 0.224042
O27   O     O_R   0.797067 0.708395 0.046650 -0.474705
O28   O     O_R   0.887720 0.615608 0.098086 -0.426017
N4    N     N_R   0.150164 0.243406 0.911951 0.223151
O29   O     O_R   0.202147 0.201296 0.947309 -0.473977
O30   O     O_R   0.109544 0.116676 0.899665 -0.425711
O31   O     O_3   0.636606 0.480807 0.406782 -0.658032
C71   C     C_3   0.687794 0.570876 0.444239 0.118384
H39   H     H_    0.674175 0.708733 0.458254 0.186140
H40   H     H_    0.720551 0.598436 0.415708 0.089512
C72   C     C_3   0.715613 0.467534 0.507610 -0.232159
H41   H     H_    0.682245 0.448490 0.536124 0.234550
H42   H     H_    0.730912 0.329587 0.495716 0.216895
C73   C     C_3   0.768166 0.573881 0.549003 -0.914954
H43   H     H_    0.803104 0.586236 0.522348 0.249004
H44   H     H_    0.786294 0.499452 0.595529 0.286087
H45   H     H_    0.754801 0.714384 0.560662 0.291340
O32   O     O_3   0.352419 0.968836 0.579635 -0.656681
C74   C     C_3   0.301791 0.010813 0.529230 0.152249
H46   H     H_    0.299511 0.163647 0.523867 0.164570
H47   H     H_    0.259840 0.967731 0.540386 0.078792
C75   C     C_3   0.306336 0.926378 0.464060 -0.259892
H48   H     H_    0.343552 0.991748 0.448802 0.254063
H49   H     H_    0.314842 0.775705 0.469911 0.188898
C76   C     C_3   0.249833 0.954821 0.410746 -0.891313
H50   H     H_    0.213096 0.877081 0.422658 0.235508
H51   H     H_    0.255821 0.903142 0.363333 0.275274
H52   H     H_    0.238348 0.103879 0.405845 0.293069

loop_
_geom_bond_atom_site_label_1
_geom_bond_atom_site_label_2
_geom_bond_distance
_ccdc_geom_bond_type
C76   H50   1.110921 S    
C33   C49   1.397837 A    
O31   C71   1.419204 S    
O1    C3    1.338231 A    
C71   C72   1.532700 S    
C68   C69   1.532532 S    
O2    C4    1.341143 A    
C46   C54   1.415170 A    
C69   C70   1.525619 S    
H14   C58   1.084516 S    
C66   H27   1.105311 S    
C25   C27   1.427034 A    
O18   V4    1.965889 S    
C28   O32   1.387348 S    
O5    C3    1.336307 A    
C70   H37   1.110464 S    
C67   H29   1.110793 S    
C44   C46   1.442834 A    
O15   V3    2.030871 S    
C17   C19   1.212045 T    
C71   H40   1.109452 S    
C60   C63   1.490825 S    
C75   H48   1.111216 S    
N3    O28   1.299870 A    
C36   C58   1.397229 A    
C48   C50   1.415714 A    
C66   H28   1.106581 S    
C9    C62   1.503575 S    
C13   C15   1.399890 A    
C37   C59   1.401924 A    
O12   C64   1.338374 A    
N2    O23   1.300861 A    
C27   O31   1.391927 S    
C62   O17   1.341191 A    
C56   N2    1.434220 S    
C10   C61   1.506088 S    
C72   C73   1.527052 S    
C53   O25   1.385230 S    
C39   C41   1.386188 A    
O20   V3    1.762927 S    
C15   C17   1.449762 S    
O16   V4    2.037965 S    
C2    C35   1.467247 S    
C21   C31   1.397549 A    
C38   H20   1.084284 S    
C30   H12   1.083973 S    
C22   C32   1.399335 A    
C28   C30   1.412715 A    
C72   H41   1.111898 S    
C74   H47   1.114675 S    
C33   H17   1.084538 S    
C73   H44   1.110152 S    
C65   C66   1.532890 S    
C34   C50   1.395370 A    
C42   H22   1.077695 S    
C48   C56   1.441550 A    
C22   H8    1.083593 S    
O17   V3    1.965998 S    
C47   C55   1.441210 A    
C76   H51   1.110191 S    
C34   H18   1.084459 S    
C43   C45   1.444101 A    
C3    C26   1.502362 S    
C5    C15   1.395377 A    
C2    O7    1.332153 A    
C4    C25   1.504394 S    
O14   C62   1.333252 A    
C51   C53   1.396574 A    
C65   H26   1.118697 S    
C35   C57   1.392161 A    
C75   H49   1.109780 S    
C47   C49   1.416996 A    
C11   C13   1.403861 A    
C70   H38   1.107779 S    
O14   V4    1.984428 S    
C40   C42   1.390057 A    
C14   C16   1.399844 A    
C71   H39   1.109569 S    
C73   H45   1.109217 S    
C42   C44   1.410563 A    
O19   V4    1.758608 S    
C49   C51   1.382047 A    
O11   V4    2.026701 S    
C1    C36   1.476648 S    
C66   C67   1.525780 S    
C69   H35   1.106492 S    
C54   O26   1.385594 S    
C24   H10   1.082835 S    
C67   H31   1.107599 S    
C27   C29   1.416049 A    
C5    C7    1.404043 A    
C33   C57   1.378357 A    
C34   C58   1.378350 A    
C29   H11   1.081841 S    
O11   C63   1.336879 A    
O4    V2    2.037872 S    
C40   H24   1.082691 S    
O2    V1    1.966081 S    
C75   C76   1.525995 S    
C6    C16   1.395729 A    
C38   C60   1.400489 A    
C74   H46   1.111232 S    
O6    C4    1.333655 A    
O13   V3    1.985040 S    
C37   H19   1.084630 S    
C74   C75   1.533100 S    
O1    V2    1.965968 S    
C26   C28   1.423321 A    
C23   H9    1.082152 S    
C73   H43   1.110748 S    
C50   C52   1.384516 A    
O13   C61   1.333997 A    
C12   C14   1.404381 A    
C76   H52   1.110528 S    
C52   C54   1.399172 A    
C55   N1    1.436854 S    
C7    C9    1.424124 A    
O32   C74   1.418283 S    
C39   H23   1.082970 S    
C8    C10   1.425159 A    
O4    C2    1.327456 A    
C68   H32   1.100629 S    
O3    C1    1.326291 A    
O16   C64   1.327708 A    
O3    V1    2.030778 S    
C65   H25   1.099528 S    
C41   C43   1.412848 A    
N1    O21   1.300899 A    
C61   O18   1.342385 A    
C67   H30   1.110456 S    
O12   V3    2.022684 S    
C6    C8    1.405198 A    
C10   C12   1.411416 A    
N4    O29   1.300157 A    
C68   H33   1.118385 S    
N4    O30   1.299755 A    
C36   C56   1.422493 A    
C21   C23   1.399881 A    
O25   C65   1.423410 S    
C35   C55   1.422391 A    
C69   H34   1.105474 S    
C41   H21   1.074837 S    
C11   H3    1.081962 S    
C70   H36   1.110753 S    
C12   H4    1.081615 S    
C18   C20   1.213179 T    
O26   C68   1.421672 S    
O7    V1    2.021430 S    
C7    N3    1.428698 S    
C1    O8    1.338779 A    
C13   H5    1.083239 S    
H15   C51   1.080232 S    
N3    O27   1.300063 A    
C14   H6    1.083222 S    
C45   C53   1.415503 A    
O8    V2    2.025403 S    
C59   C64   1.489139 S    
O5    V1    1.985272 S    
C5    H1    1.084396 S    
C16   C18   1.451630 S    
N2    O24   1.301049 A    
C6    H2    1.084379 S    
C72   H42   1.110418 S    
H16   C52   1.079697 S    
H13   C57   1.084442 S    
C45   C59   1.438593 A    
C19   C31   1.450335 S    
C24   C26   1.411510 A    
C22   C24   1.401667 A    
C9    C11   1.410967 A    
C20   C32   1.451983 S    
C21   H7    1.083624 S    
O6    V2    1.984663 S    
C44   C48   1.441597 A    
O9    V2    1.758896 S    
C8    N4    1.429231 S    
C29   C31   1.397303 A    
C38   C40   1.388209 A    
C43   C47   1.444627 A    
O10   V1    1.763213 S    
O15   C63   1.331107 A    
C37   C39   1.383347 A    
C23   C25   1.409794 A    
C30   C32   1.398091 A    
C46   C60   1.437248 A    
N1    O22   1.300220 A    
