data_mof_unit_36987.cif
_audit_creation_date              2012-12-10T17:24:17-0500
_audit_creation_method            fapswitch 2.2
_symmetry_space_group_name_H-M    P1
_symmetry_Int_Tables_number       1
_space_group_crystal_system       triclinic
_cell_length_a                    10.153194
_cell_length_b                    10.832815
_cell_length_c                    16.706123
_cell_angle_alpha                 91.732697
_cell_angle_beta                  75.547547
_cell_angle_gamma                 96.292167
_cell_volume                      1768.59441772

loop_
_atom_site_label
_atom_site_type_symbol
_atom_type_description
_atom_site_fract_x
_atom_site_fract_y
_atom_site_fract_z
_atom_type_partial_charge
C1    C     C_R   0.558286 0.732420 0.492130 0.987139
C2    C     C_R   0.518977 0.495189 0.345207 1.036074
C3    C     C_R   0.468814 0.523895 0.742242 -0.344913
C4    C     C_R   0.531178 0.476096 0.257760 -0.344925
C5    C     C_R   0.549079 0.623486 0.768275 0.265992
C6    C     C_R   0.450901 0.376508 0.231732 0.266002
C7    C     C_R   0.538099 0.642193 0.852445 0.420764
C8    C     C_R   0.461853 0.357812 0.147563 0.420725
C9    C     C_R   0.448282 0.560489 0.909707 -0.252680
C10   C     C_R   0.551661 0.439517 0.090299 -0.252682
C11   C     C_R   0.353808 0.471909 0.884443 0.283172
C12   C     C_R   0.441713 0.267580 0.507869 0.987144
C13   C     C_R   0.646147 0.528094 0.115556 0.283231
C14   C     C_R   0.367684 0.450995 0.799680 0.279986
C15   C     C_R   0.632296 0.549002 0.200317 0.279982
C16   C     C_2   0.475234 0.551071 0.990768 -0.000385
C17   C     C_2   0.524701 0.448935 0.009241 -0.000313
C18   C     C_2   0.591997 0.864532 0.495066 -0.291810
C19   C     C_2   0.408003 0.135468 0.504934 -0.291803
C20   C     C_2   0.504280 0.939000 0.480064 0.311016
C21   C     C_2   0.495719 0.061000 0.519936 0.311012
C22   C     C_2   0.926343 0.510911 0.506675 -0.059292
C23   C     C_2   0.073657 0.489090 0.493324 -0.059291
C24   C     C_R   0.481021 0.504809 0.654794 1.036072
Cl1   Cl    Cl    0.663497 0.725443 0.695670 -0.497005
Cl2   Cl    Cl    0.336499 0.274545 0.304341 -0.497015
Cl3   Cl    Cl    0.734871 0.671661 0.235328 -0.414076
Cl4   Cl    Cl    0.265121 0.328336 0.764662 -0.414092
Cl5   Cl    Cl    0.358768 0.234676 0.114332 -0.328562
Cl6   Cl    Cl    0.641154 0.765345 0.885685 -0.328557
Cl7   Cl    Cl    0.598582 0.108443 0.590159 -0.494397
Cl8   Cl    Cl    0.401417 0.891557 0.409842 -0.494397
H1    H     H_    0.534757 0.369579 0.967542 0.200985
H2    H     H_    0.824949 0.467900 0.949630 0.383276
H3    H     H_    0.465180 0.630426 0.032467 0.200986
H4    H     H_    0.327388 0.102996 0.474921 0.205769
H5    H     H_    0.672612 0.897005 0.525079 0.205765
H6    H     H_    0.114866 0.418867 0.449263 0.197278
H7    H     H_    0.885135 0.581134 0.550736 0.197277
H8    H     H_    0.111163 0.617668 0.574154 0.206419
H9    H     H_    0.888837 0.382330 0.425847 0.206421
H10   H     H_    0.175039 0.532126 0.050352 0.383251
N1    N     N_2   0.846390 0.448330 0.467170 -0.173245
N2    N     N_2   0.153610 0.551670 0.532830 -0.173245
O1    O     O_R   0.430310 0.692580 0.506610 -0.573110
O2    O     O_2   0.245594 0.255226 0.957514 -0.131752
O3    O     O_3   0.199764 0.446849 0.053794 -0.479521
O4    O     O_2   0.754357 0.744766 0.042492 -0.131751
O5    O     O_2   0.914123 0.606299 0.066969 -0.205239
O6    O     O_3   0.800150 0.553159 0.946202 -0.479559
O7    O     O_R   0.569690 0.307420 0.493390 -0.573111
O8    O     O_R   0.652740 0.659410 0.485540 -0.595538
O9    O     O_R   0.347260 0.340590 0.514460 -0.595534
O10   O     O_R   0.375640 0.518570 0.627580 -0.588035
O11   O     O_R   0.624360 0.481430 0.372420 -0.588029
O12   O     O_R   0.598070 0.485390 0.606510 -0.580576
O13   O     O_R   0.401930 0.514610 0.393490 -0.580583
O14   O     O_2   0.085819 0.393684 0.933015 -0.205235
S1    S     S_3+6 0.217755 0.388598 0.957636 0.158592
S2    S     S_3+6 0.782186 0.611398 0.042360 0.158570
Zn1   Zn    Zn3+2 0.351480 0.522150 0.514070 1.073678
Zn2   Zn    Zn3+2 0.648520 0.477850 0.485930 1.073681

loop_
_geom_bond_atom_site_label_1
_geom_bond_atom_site_label_2
_ccdc_geom_bond_type
C24   O10   A    
C2    C4    S    
O13   Zn1   S    
O10   Zn1   S    
N2    Zn1   S    
C24   O12   A    
C23   H6    S    
C9    C11   A    
C15   Cl3   S    
C22   N1    D    
H10   O3    S    
O12   Zn2   S    
O6    S2    S    
C21   Cl7   S    
C4    C15   A    
C1    C18   S    
C2    O13   A    
O5    S2    D    
C7    Cl6   S    
O8    Zn2   S    
H9    N1    S    
C1    O1    A    
C3    C24   S    
C6    Cl2   S    
C3    C14   A    
C17   H1    S    
C11   S1    S    
C22   H7    S    
C12   C19   S    
C4    C6    A    
C19   C21   D    
C18   H5    S    
C2    O11   A    
O4    S2    D    
C18   C20   D    
C19   H4    S    
C13   C15   A    
C16   H3    S    
O2    S1    D    
C1    O8    A    
C5    Cl1   S    
H2    O6    S    
C8    Cl5   S    
C10   C17   S    
O3    S1    S    
O11   Zn2   S    
C7    C9    A    
H8    N2    S    
C12   O7    A    
C20   C21   S    
C8    C10   A    
C20   Cl8   S    
O1    Zn1   S    
C11   C14   A    
C5    C7    A    
C22   C23   S    
C6    C8    A    
O7    Zn2   S    
C14   Cl4   S    
O14   S1    D    
O9    Zn1   S    
C9    C16   S    
C23   N2    D    
C12   O9    A    
N1    Zn2   S    
C13   S2    S    
C16   C17   D    
C3    C5    A    
C10   C13   A    
