data_mof_unit_58711.cif
_audit_creation_date              2012-12-10T18:41:18-0500
_audit_creation_method            fapswitch 2.2
_symmetry_space_group_name_H-M    P1
_symmetry_Int_Tables_number       1
_space_group_crystal_system       triclinic
_cell_length_a                    15.135168
_cell_length_b                    13.796464
_cell_length_c                    10.828643
_cell_angle_alpha                 89.432722
_cell_angle_beta                  90.048748
_cell_angle_gamma                 89.979918
_cell_volume                      2261.03665108

loop_
_atom_site_label
_atom_site_type_symbol
_atom_type_description
_atom_site_fract_x
_atom_site_fract_y
_atom_site_fract_z
_atom_type_partial_charge
C1    C     C_R   0.329799 0.500023 0.500113 0.791297
C2    C     C_R   0.670212 0.500012 0.499732 0.774748
C3    C     C_R   0.186964 0.417259 0.538179 -0.192191
C4    C     C_R   0.813016 0.417272 0.462846 -0.190491
C5    C     C_R   0.095129 0.417550 0.538541 -0.168497
C6    C     C_R   0.904846 0.417582 0.461933 -0.169692
C7    C     C_R   0.048567 0.500320 0.499248 0.105680
C8    C     C_R   0.951451 0.500382 0.498779 0.106085
C9    C     C_R   0.567694 0.107339 0.442451 -0.284103
C10   C     C_R   0.432199 0.106801 0.558651 -0.288148
C11   C     C_R   0.566636 0.209292 0.443422 0.065722
C12   C     C_R   0.433432 0.208790 0.557151 0.070390
C13   C     C_R   0.499888 0.054688 0.500622 0.118794
C14   C     C_R   0.442866 0.893367 0.420897 0.055997
C15   C     C_R   0.556694 0.891936 0.580167 0.049340
C16   C     C_R   0.444233 0.791035 0.423794 0.007909
C17   C     C_R   0.555253 0.789669 0.577025 0.029773
C18   C     C_R   0.499762 0.945676 0.500645 0.033467
C19   C     C_R   0.512009 0.500193 0.263743 0.812200
C20   C     C_R   0.497040 0.498929 0.738422 0.820844
C21   C     C_R   0.526644 0.582768 0.060393 0.050699
C22   C     C_R   0.511173 0.580657 0.937744 -0.034390
C23   C     C_R   0.528842 0.498659 0.131359 -0.194297
C24   C     C_R   0.501364 0.495099 0.872775 -0.161478
C25   C     C_R   0.536318 0.409553 0.067147 0.116083
C26   C     C_R   0.507083 0.405944 0.942064 0.152748
C27   C     C_3   0.503204 0.688290 0.925218 -0.075925
C28   C     C_3   0.523062 0.691263 0.065752 -0.034188
C29   C     C_R   0.095305 0.583064 0.460568 -0.172156
C30   C     C_R   0.904758 0.583190 0.535374 -0.173069
C31   C     C_R   0.187127 0.583213 0.461818 -0.188069
C32   C     C_R   0.812940 0.583316 0.534685 -0.190251
C33   C     C_R   0.233400 0.500161 0.500088 -0.027903
C34   C     C_R   0.766615 0.500172 0.499085 -0.023208
Cu1   Cu    Cu3+1 0.500000 0.596430 0.500000 0.914888
Cu2   Cu    Cu3+1 0.500000 0.403570 0.500000 0.924962
H1    H     H_    0.401353 0.750707 0.362941 0.135879
H2    H     H_    0.598412 0.748283 0.637357 0.131649
H3    H     H_    0.555413 0.719193 0.864133 0.155092
H4    H     H_    0.468028 0.718532 0.124014 0.159180
H5    H     H_    0.060939 0.647231 0.427896 0.124683
H6    H     H_    0.939160 0.647401 0.566114 0.124733
H7    H     H_    0.221870 0.647734 0.431138 0.140257
H8    H     H_    0.778258 0.647902 0.563745 0.140781
H9    H     H_    0.221586 0.352730 0.569251 0.137481
H10   H     H_    0.778378 0.352684 0.433752 0.137296
H11   H     H_    0.060601 0.353458 0.570941 0.124465
H12   H     H_    0.939338 0.353445 0.431133 0.124412
H13   H     H_    0.620944 0.069827 0.396356 0.135637
H14   H     H_    0.378930 0.068847 0.605026 0.136447
H15   H     H_    0.619548 0.248678 0.398772 0.108956
H16   H     H_    0.380847 0.247916 0.602037 0.123676
N1    N     N_R   0.500000 0.258690 0.500000 -0.167240
N2    N     N_R   0.500000 0.741330 0.500000 -0.204756
O1    O     O_R   0.371460 0.581430 0.500010 -0.585921
O2    O     O_R   0.628540 0.581430 0.499990 -0.591981
O3    O     O_R   0.371470 0.418560 0.500010 -0.589774
O4    O     O_R   0.628530 0.418560 0.499990 -0.597850
O5    O     O_R   0.499990 0.581450 0.319660 -0.581528
O6    O     O_R   0.500010 0.581450 0.680340 -0.589938
O7    O     O_R   0.500010 0.418580 0.319660 -0.586727
O8    O     O_R   0.499990 0.418580 0.680340 -0.579018
C35   C     C_3   0.584721 0.323629 0.126292 -0.378447
C36   C     C_3   0.661952 0.288543 0.047168 -0.887169
H17   H     H_    0.638940 0.255564 0.960019 0.249565
H18   H     H_    0.706886 0.349952 0.024992 0.260655
H19   H     H_    0.699933 0.232661 0.099266 0.238946
H20   H     H_    0.615999 0.345052 0.214423 0.213363
H21   H     H_    0.538486 0.263241 0.147180 0.200247
C37   C     C_3   0.473511 0.309514 0.891899 -0.358778
C38   C     C_3   0.374463 0.313736 0.864020 -0.852927
H22   H     H_    0.337400 0.332899 0.948867 0.249371
H23   H     H_    0.358977 0.367856 0.790793 0.251829
H24   H     H_    0.351492 0.241610 0.832684 0.227158
H25   H     H_    0.511822 0.285543 0.810632 0.220719
H26   H     H_    0.481427 0.249869 0.960030 0.197023
C39   C     C_3   0.381783 0.943220 0.329530 -0.413374
C40   C     C_3   0.285708 0.935654 0.371172 -0.838249
H27   H     H_    0.264743 0.858594 0.377008 0.240396
H28   H     H_    0.277255 0.969700 0.462913 0.251570
H29   H     H_    0.242553 0.973870 0.303507 0.241149
H30   H     H_    0.398621 0.020890 0.316436 0.220861
H31   H     H_    0.389031 0.908946 0.237578 0.187977
C41   C     C_3   0.618294 0.940160 0.671017 -0.420488
C42   C     C_3   0.714120 0.933255 0.628238 -0.843844
H32   H     H_    0.735043 0.856278 0.621959 0.239595
H33   H     H_    0.722051 0.968845 0.536491 0.251813
H34   H     H_    0.757670 0.970285 0.695501 0.241438
H35   H     H_    0.601477 0.017596 0.684571 0.221113
H36   H     H_    0.611704 0.904274 0.762935 0.187146
C43   C     C_3   0.409232 0.721416 0.890948 -0.365333
C44   C     C_3   0.402204 0.831743 0.891178 -0.871075
H37   H     H_    0.417595 0.860326 0.984278 0.245563
H38   H     H_    0.448630 0.863852 0.822782 0.251315
H39   H     H_    0.333937 0.853771 0.865870 0.245498
H40   H     H_    0.392526 0.695519 0.797024 0.233093
H41   H     H_    0.359989 0.690298 0.956443 0.199634
C45   C     C_3   0.613425 0.738821 0.091116 -0.431656
C46   C     C_3   0.643740 0.726311 0.224505 -0.753475
H42   H     H_    0.593913 0.756603 0.288045 0.260687
H43   H     H_    0.655332 0.648612 0.246433 0.256760
H44   H     H_    0.706782 0.765914 0.238199 0.220998
H45   H     H_    0.665064 0.708149 0.029676 0.207632
H46   H     H_    0.608020 0.817604 0.070001 0.202240

loop_
_geom_bond_atom_site_label_1
_geom_bond_atom_site_label_2
_ccdc_geom_bond_type
C15   C18   A    
C7    C29   A    
C14   C18   A    
Cu1   Cu2   S    
C1    C33   S    
C7    C8    S    
C4    H10   S    
C39   C40   S    
C5    H11   S    
C6    H12   S    
C13   C18   S    
C24   C26   A    
Cu2   O4    S    
C40   H28   S    
C3    C33   A    
C45   H45   S    
Cu1   O5    S    
C25   C35   S    
C14   C39   S    
C9    C13   A    
Cu2   N1    S    
C43   H40   S    
C35   H21   S    
C27   H3    S    
C31   C33   A    
C27   C43   S    
C37   C38   S    
C20   O6    A    
C12   N1    A    
C11   N1    A    
C16   H1    S    
C2    C34   S    
C21   C22   A    
Cu1   N2    S    
C41   H36   S    
Cu2   O8    S    
C10   C12   A    
C12   H16   S    
C42   H33   S    
C4    C34   A    
Cu1   O1    S    
C36   H19   S    
C20   C24   S    
C9    H13   S    
C41   C42   S    
C4    C6    A    
Cu2   O3    S    
C43   C44   S    
C38   H23   S    
C40   H27   S    
C6    C8    A    
C19   O5    A    
C25   C26   A    
C42   H32   S    
C3    H9    S    
C44   H39   S    
Cu1   O6    S    
C36   H18   S    
C19   C23   S    
C28   H4    S    
C1    O3    A    
C46   H42   S    
C44   H38   S    
C32   H8    S    
C43   H41   S    
C9    C11   A    
C31   H7    S    
C46   H43   S    
C21   C28   S    
C22   C27   S    
C21   C23   A    
C37   H26   S    
C26   C37   S    
C14   C16   A    
C41   H35   S    
Cu2   O7    S    
C10   H14   S    
C37   H25   S    
C5    C7    A    
C42   H34   S    
C28   C45   S    
C15   C17   A    
C35   H20   S    
C29   H5    S    
Cu1   O2    S    
C3    C5    A    
C10   C13   A    
C38   H24   S    
C2    O4    A    
C15   C41   S    
C8    C30   A    
C36   H17   S    
C1    O1    A    
C38   H22   S    
C29   C31   A    
C2    O2    A    
C30   C32   A    
C40   H29   S    
C39   H30   S    
C19   O7    A    
C45   H46   S    
C44   H37   S    
C22   C24   A    
C17   H2    S    
C23   C25   A    
C20   O8    A    
C16   N2    A    
C11   H15   S    
C35   C36   S    
C46   H44   S    
C45   C46   S    
C27   C28   S    
C39   H31   S    
C30   H6    S    
C17   N2    A    
C32   C34   A    
