data_mof_unit_59329.cif
_audit_creation_date              2012-12-11T14:24:59-0500
_audit_creation_method            fapswitch 2.2
_symmetry_space_group_name_H-M    P1
_symmetry_Int_Tables_number       1
_space_group_crystal_system       triclinic
_cell_length_a                    19.363242
_cell_length_b                    11.091804
_cell_length_c                    18.529566
_cell_angle_alpha                 89.580596
_cell_angle_beta                  92.034143
_cell_angle_gamma                 89.812837
_cell_volume                      3977.01667863

loop_
_atom_site_label
_atom_site_type_symbol
_atom_type_description
_atom_site_fract_x
_atom_site_fract_y
_atom_site_fract_z
_atom_type_partial_charge
C1    C     C_R   0.728752 0.378907 0.147270 0.568638
C2    C     C_R   0.270428 0.381016 0.851052 0.551759
C3    C     C_R   0.230298 0.881401 0.148904 0.567181
C4    C     C_R   0.770071 0.882243 0.850412 0.557709
C5    C     C_3   0.432026 0.113743 0.045304 -0.115658
C6    C     C_3   0.473169 0.053952 0.985256 -0.101543
C7    C     C_3   0.985689 0.555254 0.028973 -0.096545
C8    C     C_3   0.027611 0.606067 0.967165 -0.104775
C9    C     C_R   0.750578 0.947577 0.915168 0.009183
C10   C     C_R   0.249309 0.934614 0.079780 0.007247
C11   C     C_R   0.250273 0.446183 0.915559 0.002501
C12   C     C_R   0.743382 0.426405 0.075418 0.012435
C13   C     C_R   0.687006 0.922124 0.945163 -0.020465
C14   C     C_R   0.309416 0.892702 0.047581 -0.025085
C15   C     C_R   0.185371 0.423689 0.943785 -0.024301
C16   C     C_R   0.805145 0.391398 0.044362 -0.026745
C17   C     C_R   0.684814 0.913783 0.021331 -0.019941
C18   C     C_R   0.308530 0.880362 0.971206 -0.003508
C19   C     C_R   0.179545 0.426137 0.019947 -0.000985
C20   C     C_R   0.806085 0.376714 0.968484 -0.014264
C21   C     C_R   0.790991 0.028450 0.029556 -0.181557
C22   C     C_R   0.196027 0.977593 0.962632 -0.177731
C23   C     C_R   0.287565 0.536616 0.028500 -0.178509
C24   C     C_R   0.689149 0.453718 0.956569 -0.177536
C25   C     C_R   0.802516 0.007216 0.958198 0.002088
C26   C     C_R   0.195650 0.988223 0.036311 -0.007242
C27   C     C_R   0.301752 0.506520 0.958892 -0.005284
C28   C     C_R   0.686706 0.467021 0.030170 0.000233
C29   C     C_R   0.628274 0.890448 0.901973 0.013479
C30   C     C_R   0.369303 0.856404 0.089512 0.006394
C31   C     C_R   0.129326 0.381544 0.899542 0.003151
C32   C     C_R   0.865687 0.365257 0.087088 0.011155
C33   C     C_R   0.080198 0.308932 0.929684 -0.128790
C34   C     C_R   0.916106 0.293211 0.058929 -0.164125
C35   C     C_R   0.578694 0.817457 0.931269 -0.135805
C36   C     C_R   0.419017 0.786880 0.058403 -0.152571
C37   C     C_R   0.583255 0.789004 0.004413 -0.135371
C38   C     C_R   0.414939 0.765396 0.984941 -0.164465
C39   C     C_R   0.081075 0.293158 0.003947 -0.151563
C40   C     C_R   0.915946 0.274859 0.985052 -0.147920
C41   C     C_R   0.632680 0.842099 0.050075 -0.063309
C42   C     C_R   0.361973 0.814228 0.941073 -0.075430
C43   C     C_R   0.125688 0.358241 0.048858 -0.066874
C44   C     C_R   0.863498 0.320122 0.939761 -0.059155
C45   C     C_R   0.530446 0.157007 0.145832 0.557317
C46   C     C_R   0.437689 0.151681 0.862108 0.559418
C47   C     C_R   0.031596 0.656528 0.145181 0.561257
C48   C     C_R   0.938434 0.652029 0.862182 0.558961
C49   C     C_R   0.735736 0.975937 0.063820 -0.022898
C50   C     C_R   0.252932 0.930419 0.928296 -0.011964
C51   C     C_R   0.230766 0.488829 0.062492 -0.017695
C52   C     C_R   0.749791 0.419078 0.924332 -0.014145
C53   C     C_R   0.462661 0.155512 0.563276 -0.009292
C54   C     C_R   0.535015 0.158477 0.435058 -0.005358
C55   C     C_R   0.962669 0.655509 0.563278 -0.009185
C56   C     C_R   0.035026 0.658475 0.435061 -0.005556
C57   C     C_R   0.481703 0.047202 0.529293 0.039137
C58   C     C_R   0.530738 0.052664 0.476196 0.037414
C59   C     C_R   0.981720 0.547198 0.529300 0.039202
C60   C     C_R   0.030755 0.552663 0.476202 0.037029
C61   C     C_R   0.507531 0.264483 0.462262 -0.136366
C62   C     C_R   0.477875 0.264253 0.529539 -0.142859
C63   C     C_R   0.007536 0.764479 0.462263 -0.136262
C64   C     C_R   0.977878 0.764250 0.529539 -0.142858
C65   C     C_R   0.462172 0.933135 0.553811 -0.067953
C66   C     C_R   0.575405 0.954137 0.468820 -0.071604
C67   C     C_R   0.962193 0.433129 0.553819 -0.068101
C68   C     C_R   0.075423 0.454139 0.468826 -0.072399
C69   C     C_R   0.008756 0.338791 0.551610 -0.114399
C70   C     C_R   0.066395 0.350688 0.510462 -0.112371
C71   C     C_R   0.508733 0.838794 0.551601 -0.115021
C72   C     C_R   0.566374 0.850687 0.510456 -0.112408
C73   C     C_R   0.784170 0.841010 0.555478 -0.028584
C74   C     C_R   0.217285 0.844750 0.443432 -0.026291
C75   C     C_R   0.284174 0.341004 0.555477 -0.028616
C76   C     C_R   0.717285 0.344746 0.443435 -0.026107
C77   C     C_R   0.832600 0.908565 0.514212 0.010715
C78   C     C_R   0.164675 0.903964 0.483631 0.016220
C79   C     C_R   0.332603 0.408564 0.514211 0.010601
C80   C     C_R   0.664675 0.403957 0.483635 0.016187
C81   C     C_R   0.833674 0.890580 0.439192 0.031496
C82   C     C_R   0.167380 0.894008 0.559414 0.023955
C83   C     C_R   0.333677 0.390583 0.439190 0.030992
C84   C     C_R   0.667379 0.393997 0.559418 0.024150
C85   C     C_R   0.725961 0.790339 0.439695 -0.051232
C86   C     C_R   0.279163 0.802924 0.558467 -0.039521
C87   C     C_R   0.225968 0.290331 0.439692 -0.051611
C88   C     C_R   0.779164 0.302918 0.558471 -0.039646
C89   C     C_R   0.730780 0.007056 0.140404 0.548867
C90   C     C_R   0.259426 0.970588 0.852573 0.535422
C91   C     C_R   0.228518 0.514512 0.140440 0.554880
C92   C     C_R   0.758689 0.468139 0.851216 0.534673
C93   C     C_R   0.735952 0.769829 0.515180 -0.175189
C94   C     C_R   0.271658 0.785985 0.483278 -0.165228
C95   C     C_R   0.235959 0.269817 0.515177 -0.175383
C96   C     C_R   0.771659 0.285979 0.483282 -0.165456
C97   C     C_R   0.875082 0.002242 0.540381 -0.120627
C98   C     C_R   0.112602 0.981676 0.454541 -0.104824
C99   C     C_R   0.375085 0.502240 0.540380 -0.120691
C100  C     C_R   0.612605 0.481674 0.454547 -0.104733
C101  C     C_R   0.912338 0.073092 0.493333 -0.156190
C102  C     C_R   0.069695 0.045211 0.498916 -0.163528
C103  C     C_R   0.412335 0.573100 0.493331 -0.156233
C104  C     C_R   0.569694 0.545201 0.498922 -0.163495
C105  C     C_R   0.922339 0.035783 0.423259 -0.113632
C106  C     C_R   0.064954 0.014009 0.570967 -0.121728
C107  C     C_R   0.422334 0.535798 0.423256 -0.113390
C108  C     C_R   0.564953 0.513996 0.570973 -0.121921
C109  C     C_R   0.888339 0.934304 0.398732 -0.074256
C110  C     C_R   0.110951 0.930285 0.600176 -0.057810
C111  C     C_R   0.388341 0.434314 0.398730 -0.074438
C112  C     C_R   0.610951 0.430272 0.600181 -0.057668
C113  C     C_R   0.770603 0.868308 0.404819 -0.005535
C114  C     C_R   0.231422 0.874203 0.593251 -0.006071
C115  C     C_R   0.270606 0.368309 0.404818 -0.004967
C116  C     C_R   0.731421 0.374196 0.593255 -0.005708
C117  C     C_R   0.712519 0.333627 0.362884 0.547710
C118  C     C_R   0.287763 0.333518 0.637052 0.544819
C119  C     C_R   0.212519 0.833628 0.362882 0.548087
C120  C     C_R   0.787762 0.833519 0.637052 0.544683
C121  C     C_R   0.560057 0.153270 0.361667 0.520998
C122  C     C_R   0.439173 0.153226 0.638087 0.526652
C123  C     C_R   0.060062 0.653269 0.361667 0.522558
C124  C     C_R   0.939176 0.653226 0.638086 0.526283
C125  C     C_R   0.746710 0.956916 0.347867 0.534289
C126  C     C_R   0.253777 0.958975 0.651100 0.529896
C127  C     C_R   0.246710 0.456915 0.347865 0.536777
C128  C     C_R   0.753777 0.458976 0.651099 0.528934
C129  C     C_3   0.526476 0.225129 0.965620 -0.111167
C130  C     C_3   0.486038 0.284150 0.026761 -0.122281
C131  C     C_3   0.978707 0.781980 0.979050 -0.120634
C132  C     C_3   0.936758 0.732736 0.042681 -0.134346
C133  C     C_3   0.540072 0.113626 0.013453 -0.113089
C134  C     C_3   0.418481 0.225415 0.996627 -0.139419
C135  C     C_3   0.044475 0.719740 0.010772 -0.131228
C136  C     C_3   0.919493 0.617849 0.998813 -0.128834
C137  C     C_3   0.498983 0.170902 0.073509 0.048588
C138  C     C_3   0.459787 0.164410 0.937715 0.046657
C139  C     C_3   0.002081 0.668588 0.072314 0.048293
C140  C     C_3   0.961920 0.666020 0.937120 0.049011
Cr1   Cr    Cr6+3 0.772820 0.169820 0.252640 1.021394
Cr2   Cr    Cr6+3 0.227180 0.169820 0.747360 1.023334
Cr3   Cr    Cr6+3 0.272820 0.669820 0.252640 1.023501
Cr4   Cr    Cr6+3 0.727180 0.669820 0.747360 1.023828
Cr5   Cr    Cr6+3 0.615040 0.323610 0.249150 1.041653
Cr6   Cr    Cr6+3 0.384960 0.323610 0.750850 1.055659
Cr7   Cr    Cr6+3 0.115040 0.823610 0.249150 1.035159
Cr8   Cr    Cr6+3 0.884960 0.823610 0.750850 1.053056
Cr9   Cr    Cr6+3 0.616720 0.011130 0.250660 1.047746
Cr10  Cr    Cr6+3 0.383280 0.011130 0.749340 1.034409
Cr11  Cr    Cr6+3 0.116720 0.511130 0.250660 1.045481
Cr12  Cr    Cr6+3 0.883280 0.511130 0.749340 1.037068
H1    H     H_    0.591614 0.073582 0.022268 0.126869
H2    H     H_    0.367514 0.270059 0.987690 0.111977
H3    H     H_    0.096318 0.761580 0.017505 0.112731
H4    H     H_    0.866496 0.583542 0.990617 0.122404
H5    H     H_    0.510510 0.346925 0.432137 0.152555
H6    H     H_    0.467153 0.347777 0.555404 0.155315
H7    H     H_    0.010510 0.846920 0.432135 0.152553
H8    H     H_    0.967151 0.847774 0.555400 0.155339
H9    H     H_    0.416132 0.922790 0.583348 0.166909
H10   H     H_    0.619742 0.961430 0.436056 0.143712
H11   H     H_    0.916152 0.422775 0.583353 0.166789
H12   H     H_    0.119759 0.461432 0.436059 0.143456
H13   H     H_    0.001919 0.259299 0.584280 0.127091
H14   H     H_    0.102650 0.278662 0.510880 0.123952
H15   H     H_    0.501897 0.759306 0.584275 0.126799
H16   H     H_    0.602631 0.778664 0.510879 0.124038
H17   H     H_    0.880438 0.026138 0.595139 0.198214
H18   H     H_    0.101440 0.999711 0.399039 0.191673
H19   H     H_    0.380448 0.526124 0.595140 0.198147
H20   H     H_    0.601448 0.499722 0.399045 0.191831
H21   H     H_    0.703959 0.705796 0.542821 0.149699
H22   H     H_    0.309670 0.733666 0.455673 0.160339
H23   H     H_    0.203970 0.205777 0.542817 0.149703
H24   H     H_    0.809670 0.233661 0.455677 0.160088
H25   H     H_    0.935306 0.154848 0.512072 0.120487
H26   H     H_    0.039181 0.116749 0.475417 0.124788
H27   H     H_    0.435300 0.654856 0.512070 0.120866
H28   H     H_    0.539178 0.616737 0.475424 0.125106
H29   H     H_    0.954444 0.086710 0.387472 0.124249
H30   H     H_    0.027200 0.055824 0.604429 0.116436
H31   H     H_    0.454435 0.586735 0.387468 0.125669
H32   H     H_    0.527199 0.555811 0.604434 0.116320
H33   H     H_    0.892976 0.909240 0.342637 0.136202
H34   H     H_    0.109390 0.909820 0.657401 0.139631
H35   H     H_    0.392978 0.409254 0.342635 0.137225
H36   H     H_    0.609391 0.409806 0.657406 0.139253
H37   H     H_    0.565054 0.269784 0.931586 0.124468
H38   H     H_    0.490786 0.376923 0.047884 0.108573
H39   H     H_    0.980289 0.872371 0.953952 0.124603
H40   H     H_    0.900093 0.784741 0.075192 0.127431
H41   H     H_    0.390545 0.084329 0.080216 0.130991
H42   H     H_    0.471734 0.962281 0.963962 0.154094
H43   H     H_    0.994510 0.465238 0.052050 0.149155
H44   H     H_    0.064937 0.564090 0.932280 0.142167
H45   H     H_    0.829120 0.081085 0.059698 0.152158
H46   H     H_    0.152375 0.015284 0.931684 0.141324
H47   H     H_    0.325968 0.588562 0.058620 0.154676
H48   H     H_    0.644687 0.483012 0.923555 0.135934
H49   H     H_    0.041632 0.265621 0.895224 0.125265
H50   H     H_    0.958111 0.260197 0.093742 0.114073
H51   H     H_    0.537355 0.782280 0.896877 0.122283
H52   H     H_    0.461240 0.750939 0.091769 0.125513
H53   H     H_    0.046735 0.231039 0.028179 0.111237
H54   H     H_    0.955134 0.221046 0.961941 0.131831
H55   H     H_    0.548627 0.725185 0.026449 0.128359
H56   H     H_    0.453843 0.711278 0.961231 0.142569
H57   H     H_    0.631399 0.818148 0.106258 0.206404
H58   H     H_    0.361529 0.792373 0.884490 0.196498
H59   H     H_    0.118637 0.344000 0.105245 0.205438
H60   H     H_    0.865876 0.299087 0.883307 0.201847
O1    O     O_R   0.788190 0.043000 0.172520 -0.523910
O2    O     O_R   0.211810 0.043000 0.827480 -0.518361
O3    O     O_R   0.288190 0.543000 0.172520 -0.520505
O4    O     O_R   0.711810 0.543000 0.827480 -0.516171
O5    O     O_R   0.556550 0.253260 0.323480 -0.526476
O6    O     O_R   0.443450 0.253260 0.676520 -0.510301
O7    O     O_R   0.056550 0.753260 0.323480 -0.525277
O8    O     O_R   0.943450 0.753260 0.676520 -0.510416
O9    O     O_R   0.545830 0.051610 0.330160 -0.479844
O10   O     O_R   0.454170 0.051610 0.669840 -0.488510
O11   O     O_R   0.045830 0.551610 0.330160 -0.479878
O12   O     O_R   0.954170 0.551610 0.669840 -0.488823
O13   O     O_R   0.681920 0.959720 0.327070 -0.512307
O14   O     O_R   0.318080 0.959720 0.672930 -0.511664
O15   O     O_R   0.181920 0.459720 0.327070 -0.511611
O16   O     O_R   0.818080 0.459720 0.672930 -0.511764
O17   O     O_3   0.668190 0.168190 0.250820 -0.319572
O18   O     O_3   0.331810 0.168190 0.749180 -0.325986
O19   O     O_3   0.168190 0.668190 0.250820 -0.323150
O20   O     O_3   0.831810 0.668190 0.749180 -0.324775
O21   O     O_R   0.766240 0.292300 0.176860 -0.510400
O22   O     O_R   0.233760 0.292300 0.823140 -0.499242
O23   O     O_R   0.266240 0.792300 0.176860 -0.513878
O24   O     O_R   0.733760 0.792300 0.823140 -0.498380
O25   O     O_R   0.670310 0.409160 0.168720 -0.449423
O26   O     O_R   0.329690 0.409160 0.831280 -0.452619
O27   O     O_R   0.170310 0.909160 0.168720 -0.462329
O28   O     O_R   0.829690 0.909160 0.831280 -0.454203
O29   O     O_R   0.556160 0.251900 0.173380 -0.503475
O30   O     O_R   0.443840 0.251900 0.826620 -0.484661
O31   O     O_R   0.056160 0.751900 0.173380 -0.503623
O32   O     O_R   0.943840 0.751900 0.826620 -0.490611
O33   O     O_R   0.545410 0.050140 0.168240 -0.506814
O34   O     O_R   0.454590 0.050140 0.831760 -0.506139
O35   O     O_R   0.045410 0.550140 0.168240 -0.523254
O36   O     O_R   0.954590 0.550140 0.831760 -0.501197
O37   O     O_R   0.681530 0.958350 0.176970 -0.511058
O38   O     O_R   0.318470 0.958350 0.823030 -0.525624
O39   O     O_R   0.181530 0.458350 0.176970 -0.505806
O40   O     O_R   0.818470 0.458350 0.823030 -0.526587
O41   O     O_R   0.788610 0.044480 0.334450 -0.523529
O42   O     O_R   0.211390 0.044480 0.665550 -0.532381
O43   O     O_R   0.288610 0.544480 0.334450 -0.523228
O44   O     O_R   0.711390 0.544480 0.665550 -0.533171
O45   O     O_R   0.766630 0.293670 0.326970 -0.476444
O46   O     O_R   0.233370 0.293670 0.673030 -0.472930
O47   O     O_R   0.266630 0.793670 0.326970 -0.474632
O48   O     O_R   0.733370 0.793670 0.673030 -0.474801
O49   O     O_R   0.670730 0.410640 0.330640 -0.516017
O50   O     O_R   0.329270 0.410640 0.669360 -0.519690
O51   O     O_R   0.170730 0.910640 0.330640 -0.514794
O52   O     O_R   0.829270 0.910640 0.669360 -0.518898
C141  C     C_1   0.669928 0.738964 0.397156 0.208755
N1    N     N_1   0.625059 0.703488 0.360411 -0.300614
C142  C     C_1   0.335181 0.753135 0.602323 0.188332
N2    N     N_1   0.379145 0.719980 0.641625 -0.331124
C143  C     C_1   0.169943 0.238944 0.397147 0.210432
N3    N     N_1   0.125083 0.203458 0.360395 -0.298532
C144  C     C_1   0.835184 0.253139 0.602329 0.188575
N4    N     N_1   0.879151 0.219992 0.641632 -0.329012
C145  C     C_1   0.616861 0.935109 0.828899 0.229547
N5    N     N_1   0.607648 0.970904 0.770506 -0.239166
C146  C     C_1   0.385372 0.899133 0.162104 0.213715
N6    N     N_1   0.398387 0.933313 0.219862 -0.249687
C147  C     C_1   0.117289 0.422198 0.825576 0.223436
N7    N     N_1   0.107512 0.454793 0.766600 -0.239111
C148  C     C_1   0.880713 0.421099 0.156363 0.216245
N8    N     N_1   0.892797 0.465832 0.211599 -0.251280
C149  C     C_2   0.873758 0.037024 0.937152 0.240986
H61   H     H_    0.915543 0.026486 0.977185 0.063103
O53   O     O_2   0.886248 0.083410 0.879073 -0.507481
C150  C     C_2   0.135305 0.051528 0.065002 0.262370
H62   H     H_    0.084730 0.040071 0.038848 0.066114
O54   O     O_2   0.141782 0.117081 0.117470 -0.493562
C151  C     C_2   0.375411 0.523833 0.940972 0.241382
H63   H     H_    0.415524 0.500976 0.980983 0.075406
O55   O     O_2   0.392176 0.572175 0.884782 -0.504993
C152  C     C_2   0.623016 0.525714 0.055380 0.253725
H64   H     H_    0.574967 0.516697 0.024049 0.062049
O56   O     O_2   0.624284 0.591043 0.108134 -0.506291

loop_
_geom_bond_atom_site_label_1
_geom_bond_atom_site_label_2
_ccdc_geom_bond_type
C99   C103  A    
C124  O8    A    
C133  C137  S    
C55   C59   A    
C4    O24   A    
Cr11  O15   S    
C73   C93   A    
C136  C140  S    
C47   O35   A    
C75   C95   A    
C135  C139  S    
C90   O38   A    
C84   C112  A    
C5    H41   S    
C150  H62   S    
C5    C6    S    
C144  N4    T    
C100  C104  A    
Cr2   O46   S    
C9    C13   A    
C91   O3    A    
C131  C140  S    
C3    O23   A    
Cr7   O19   S    
C50   C90   S    
C66   C72   A    
C12   C16   A    
C1    O21   A    
C151  O55   D    
C43   H59   S    
C87   C115  A    
C80   C84   A    
C59   C60   A    
C8    C135  S    
C126  O14   A    
Cr4   O20   S    
C68   H12   S    
C108  H32   S    
C56   C123  S    
C109  H33   S    
C98   C102  A    
C123  O11   A    
C32   C34   A    
C78   C82   A    
C8    H44   S    
C11   C27   A    
C16   C20   A    
C129  C133  S    
Cr7   O51   S    
C90   O2    A    
Cr3   O3    S    
C79   C99   A    
Cr8   O28   S    
C21   H45   S    
C5    C137  S    
C118  O46   A    
C54   C61   A    
C29   C35   A    
Cr10  O18   S    
C30   C36   A    
C8    C140  S    
C97   H17   S    
C48   O36   A    
C76   C96   A    
C93   H21   S    
C69   C70   A    
C22   C26   A    
Cr6   O6    S    
C24   H48   S    
Cr1   O21   S    
C122  O10   A    
C107  H31   S    
C73   C77   A    
C103  C107  A    
C44   H60   S    
C75   C79   A    
C130  H38   S    
C79   C83   A    
C88   C116  A    
C100  H20   S    
C63   H7    S    
C21   C49   A    
C7    C8    S    
C132  C139  S    
C21   C25   A    
C127  O43   A    
C53   C122  S    
C18   C42   A    
C114  C126  S    
Cr2   O18   S    
C95   H23   S    
C59   C67   A    
C85   C93   A    
Cr11  O19   S    
C124  O12   A    
C129  H37   S    
C92   O4    A    
C132  H40   S    
C26   C150  S    
C132  C136  S    
C84   C116  A    
Cr3   O43   S    
C147  N7    T    
C72   H16   S    
C1    C12   S    
C11   C15   A    
C2    C11   S    
C20   C44   A    
Cr10  O38   S    
C92   O40   A    
C29   C145  S    
C48   C140  S    
C83   C115  A    
Cr3   O47   S    
C46   O34   A    
C10   C14   A    
C17   C49   A    
Cr4   O4    S    
C1    O25   A    
C88   C144  S    
C128  O16   A    
Cr6   O30   S    
C54   C58   A    
C126  O42   A    
Cr8   O52   S    
C32   C148  S    
C54   C121  S    
Cr5   O49   S    
C102  H26   S    
C47   C139  S    
Cr12  O40   S    
C129  C130  S    
Cr10  O34   S    
Cr5   O17   S    
C110  H34   S    
C107  C111  A    
C24   C28   A    
C142  N2    T    
C15   C31   A    
Cr7   O27   S    
C149  O53   D    
Cr2   O42   S    
C13   C17   A    
Cr9   O17   S    
C85   C113  A    
C71   C72   A    
C57   C58   A    
C34   H50   S    
C128  O44   A    
Cr11  O11   S    
C37   C41   A    
C61   C62   A    
C130  C134  S    
C69   H13   S    
C27   C151  S    
C63   C64   A    
C98   H18   S    
C67   H11   S    
C30   C146  S    
Cr8   O32   S    
Cr1   O45   S    
Cr3   O19   S    
C4    C9    S    
Cr12  O20   S    
C24   C52   A    
C119  O47   A    
C88   C96   A    
Cr10  O14   S    
C37   H55   S    
C74   C94   A    
C146  N6    T    
C48   O32   A    
C9    C25   A    
C91   O39   A    
C15   C19   A    
Cr4   O44   S    
C89   O37   A    
C12   C28   A    
C13   C29   A    
C6    C133  S    
Cr11  O35   S    
Cr1   O17   S    
C66   H10   S    
C152  H64   S    
C123  O7    A    
C51   C91   S    
C2    O22   A    
C148  N8    T    
C62   H6    S    
Cr8   O20   S    
C42   H58   S    
C22   C50   A    
C117  O49   A    
C73   C120  S    
C143  N3    T    
C127  O15   A    
Cr10  O10   S    
C75   C118  S    
C121  O5    A    
C86   C142  S    
C125  O13   A    
C6    H42   S    
C19   C43   A    
Cr9   O37   S    
Cr4   O24   S    
C76   C80   A    
Cr2   O2    S    
C45   O33   A    
C53   C57   A    
Cr11  O39   S    
C108  C112  A    
C134  C138  S    
C61   H5    S    
C151  H63   S    
C77   C81   A    
C64   H8    S    
C4    O28   A    
Cr8   O8    S    
C81   C109  A    
Cr12  O12   S    
C83   C111  A    
C52   C92   S    
C16   C32   A    
C46   O30   A    
C7    H43   S    
C131  C132  S    
C104  C108  A    
C18   C50   A    
C89   O1    A    
C55   C124  S    
Cr9   O33   S    
C96   H24   S    
C22   H46   S    
C57   C65   A    
C111  H35   S    
C76   C117  S    
Cr1   O41   S    
C36   C38   A    
C120  O48   A    
C47   O31   A    
C65   H9    S    
C134  H2    S    
C105  C109  A    
C113  C125  S    
C150  O54   D    
Cr6   O50   S    
C103  H27   S    
Cr6   O26   S    
Cr12  O36   S    
C101  H25   S    
C56   C60   A    
C7    C136  S    
Cr5   O5    S    
C60   C68   A    
C74   C78   A    
C81   C113  A    
C121  O9    A    
C130  C137  S    
C3    O27   A    
Cr9   O13   S    
C14   C18   A    
C135  H3    S    
C74   C119  S    
C33   C39   A    
C38   H56   S    
C133  H1    S    
C82   C110  A    
C35   C37   A    
C38   C42   A    
C131  C135  S    
C70   H14   S    
C136  H4    S    
C99   H19   S    
C23   H47   S    
C115  C127  S    
Cr3   O23   S    
C106  H30   S    
C86   C94   A    
Cr12  O16   S    
C58   C66   A    
C119  O51   A    
C129  C138  S    
C120  O52   A    
Cr5   O25   S    
C78   C98   A    
C31   C33   A    
C23   C27   A    
C141  N1    T    
C46   C138  S    
C41   H57   S    
C10   C26   A    
C80   C100  A    
Cr9   O9    S    
C14   C30   A    
C31   C147  S    
C101  C105  A    
C5    C134  S    
C40   H54   S    
C85   C141  S    
C82   C114  A    
Cr1   O1    S    
C2    O26   A    
C39   C43   A    
C149  H61   S    
C65   C71   A    
C87   C95   A    
C67   C69   A    
C6    C138  S    
C117  O45   A    
C53   C62   A    
C23   C51   A    
C118  O50   A    
C40   C44   A    
C55   C64   A    
C45   C137  S    
C145  N5    T    
C56   C63   A    
Cr5   O29   S    
C125  O41   A    
C94   H22   S    
C68   C70   A    
Cr7   O31   S    
C45   O29   A    
Cr6   O18   S    
C122  O6    A    
C49   C89   S    
C112  H36   S    
C131  H39   S    
C86   C114  A    
C105  H29   S    
C28   C152  S    
C20   C52   A    
C3    C10   S    
C87   C143  S    
C7    C139  S    
C35   H51   S    
C104  H28   S    
C39   H53   S    
C33   H49   S    
C102  C106  A    
C152  O56   D    
Cr4   O48   S    
C17   C41   A    
Cr7   O7    S    
C19   C51   A    
Cr2   O22   S    
C106  C110  A    
C116  C128  S    
C34   C40   A    
C71   H15   S    
C77   C97   A    
C36   H52   S    
C25   C149  S    
C97   C101  A    
