data_mof_unit_25945.cif
_audit_creation_date              2012-12-10T17:47:01-0500
_audit_creation_method            fapswitch 2.2
_symmetry_space_group_name_H-M    P1
_symmetry_Int_Tables_number       1
_space_group_crystal_system       triclinic
_cell_length_a                    9.96667
_cell_length_b                    10.723356
_cell_length_c                    13.579716
_cell_angle_alpha                 93.567106
_cell_angle_beta                  82.788582
_cell_angle_gamma                 91.07041
_cell_volume                      1436.99099068

loop_
_atom_site_label
_atom_site_type_symbol
_atom_type_description
_atom_site_fract_x
_atom_site_fract_y
_atom_site_fract_z
_atom_type_partial_charge
C1    C     C_R   0.502745 0.737806 0.487500 0.924857
C2    C     C_1   0.456018 0.497791 0.789555 -0.139461
C3    C     C_R   0.282725 0.877938 0.403063 0.282667
C4    C     C_R   0.156586 0.935046 0.412727 -0.132792
C5    C     C_R   0.133506 0.043849 0.473017 -0.237711
C6    C     C_R   0.240597 0.103202 0.514535 -0.178777
C7    C     C_R   0.372980 0.055055 0.493913 0.083874
C8    C     C_R   0.387602 0.931759 0.454326 0.041994
C9    C     C_R   0.506520 0.869168 0.468895 -0.106670
C10   C     C_R   0.622181 0.936819 0.487984 -0.188294
C11   C     C_R   0.616359 0.064149 0.503975 -0.207064
C12   C     C_R   0.475318 0.498428 0.685488 0.930450
C13   C     C_R   0.492547 0.124807 0.507632 -0.104137
C14   C     C_R   0.852211 0.710065 0.588409 0.295676
C15   C     C_R   0.925630 0.820352 0.598310 -0.321156
C16   C     C_R   0.055856 0.812711 0.622612 0.083926
C17   C     C_R   0.121099 0.696837 0.609068 0.153243
C18   C     C_R   0.064566 0.595401 0.553650 0.061029
C19   C     C_R   0.920949 0.598268 0.549835 0.060403
C20   C     C_R   0.935880 0.413828 0.445171 -0.154375
C21   C     C_R   0.079721 0.417919 0.440234 0.161276
C22   C     C_R   0.497229 0.259767 0.505496 0.848854
C23   C     C_R   0.524572 0.498054 0.314360 0.912236
C24   C     C_1   0.543648 0.496878 0.210212 -0.119141
C25   C     C_2   0.558258 0.495843 0.018060 -0.140570
C26   C     C_2   0.441029 0.497412 0.981652 -0.138179
C27   C     C_1   0.443956 0.497565 0.877605 0.020982
C28   C     C_1   0.555453 0.496221 0.122122 0.030923
H1    H     H_    0.344614 0.498850 0.029105 0.172516
H2    H     H_    0.871937 0.907216 0.617797 0.179281
H3    H     H_    0.654667 0.494581 0.970601 0.169803
H4    H     H_    0.716723 0.891299 0.492586 0.172639
H5    H     H_    0.076002 0.894502 0.374187 0.164507
H6    H     H_    0.033643 0.084337 0.485316 0.144695
H7    H     H_    0.217647 0.186001 0.562711 0.171115
H8    H     H_    0.709109 0.114600 0.514806 0.164613
H9    H     H_    0.887533 0.344475 0.399679 0.141464
N1    N     N_R   0.857120 0.501200 0.500900 -0.109538
N2    N     N_R   0.142720 0.501280 0.500940 -0.096304
O1    O     O_R   0.385310 0.683220 0.500000 -0.597326
O2    O     O_R   0.614640 0.683250 0.500010 -0.603346
O3    O     O_R   0.368830 0.499960 0.640340 -0.608894
O4    O     O_R   0.598160 0.499980 0.640350 -0.560465
O5    O     O_R   0.385360 0.316750 0.499990 -0.644910
O6    O     O_R   0.614690 0.316780 0.500000 -0.623864
O7    O     O_R   0.401840 0.500020 0.359650 -0.549778
O8    O     O_R   0.631170 0.500040 0.359660 -0.623005
Zn1   Zn    Zn3+2 0.346870 0.499980 0.499990 0.984081
Zn2   Zn    Zn3+2 0.653130 0.500020 0.500010 0.979942
Br1   Br    Br    0.713716 0.719063 0.699897 -0.527787
N3    N     N_3   0.114518 0.916594 0.675130 -0.447263
H10   H     H_    0.108680 0.896215 0.749836 0.187752
H11   H     H_    0.057182 0.997076 0.674216 0.195355
N4    N     N_3   0.220708 0.676385 0.672447 -0.376123
H12   H     H_    0.172749 0.675311 0.745462 0.166639
H13   H     H_    0.291371 0.749817 0.669964 0.210165
N5    N     N_3   0.159979 0.344358 0.363728 -0.397231
H14   H     H_    0.205684 0.274601 0.396680 0.212859
H15   H     H_    0.098646 0.299104 0.315221 0.157174
Br2   Br    Br    0.314799 0.749659 0.298900 -0.532829

loop_
_geom_bond_atom_site_label_1
_geom_bond_atom_site_label_2
_ccdc_geom_bond_type
C25   H3    S    
O5    Zn1   S    
C23   C24   S    
C21   N5    S    
C6    C7    A    
C19   N1    A    
C20   N1    A    
C9    C10   A    
N2    Zn1   S    
C21   N2    A    
C16   N3    S    
O6    Zn2   S    
C18   N2    A    
C2    C12   S    
C5    H6    S    
C17   C18   A    
C26   C27   S    
C7    C8    A    
O8    Zn2   S    
C23   O7    A    
O3    Zn1   S    
C3    Br2   S    
C25   C28   S    
C20   H9    S    
C11   C13   A    
N5    H14   S    
C2    C27   T    
C22   O5    A    
C15   H2    S    
C4    C5    A    
C17   N4    S    
O2    Zn2   S    
C11   H8    S    
C13   C22   S    
C3    C8    A    
C12   O4    A    
N4    H13   S    
C5    C6    A    
O7    Zn1   S    
N5    H15   S    
C23   O8    A    
C10   C11   A    
C14   Br1   S    
N3    H10   S    
C10   H4    S    
C7    C13   A    
C22   O6    A    
C1    C9    S    
C20   C21   A    
C26   H1    S    
O1    Zn1   S    
C18   C19   A    
C1    O2    A    
N1    Zn2   S    
C4    H5    S    
N4    H12   S    
O4    Zn2   S    
C12   O3    A    
C1    O1    A    
C25   C26   D    
C14   C15   A    
C14   C19   A    
C6    H7    S    
C3    C4    A    
C15   C16   A    
C16   C17   A    
C24   C28   T    
C8    C9    A    
N3    H11   S    
