data_mof_unit_32568.cif
_audit_creation_date              2012-12-10T19:44:40-0500
_audit_creation_method            fapswitch 2.2
_symmetry_space_group_name_H-M    P1
_symmetry_Int_Tables_number       1
_space_group_crystal_system       triclinic
_cell_length_a                    8.578269
_cell_length_b                    14.932513
_cell_length_c                    14.175603
_cell_angle_alpha                 89.640727
_cell_angle_beta                  98.728979
_cell_angle_gamma                 90.065575
_cell_volume                      1794.75791241

loop_
_atom_site_label
_atom_site_type_symbol
_atom_type_description
_atom_site_fract_x
_atom_site_fract_y
_atom_site_fract_z
_atom_type_partial_charge
C1    C     C_R   0.498652 0.327874 0.500195 0.866947
C2    C     C_R   0.429107 0.430078 0.888659 -0.279845
C3    C     C_R   0.499777 0.499961 0.053335 0.138815
C4    C     C_R   0.499703 0.499998 0.946597 0.138580
C5    C     C_R   0.200987 0.499909 0.475027 0.972540
C6    C     C_R   0.799012 0.499959 0.524966 0.973225
C7    C     C_2   0.035842 0.499822 0.461549 -0.393201
C8    C     C_2   0.964161 0.499820 0.538422 -0.387305
C9    C     C_R   0.352159 0.099717 0.545805 0.113519
C10   C     C_R   0.403200 0.903822 0.406325 0.109374
C11   C     C_R   0.373596 0.192172 0.549095 -0.238083
C12   C     C_R   0.497355 0.672531 0.499398 0.871508
C13   C     C_R   0.422017 0.811254 0.410487 -0.233799
C14   C     C_R   0.484202 0.232512 0.499556 -0.035099
C15   C     C_R   0.481491 0.768640 0.496715 -0.048248
C16   C     C_R   0.577082 0.182247 0.447396 -0.201527
C17   C     C_R   0.521914 0.817685 0.580201 -0.200916
C18   C     C_R   0.560986 0.090529 0.445544 -0.208341
C19   C     C_R   0.505092 0.909428 0.577406 -0.218247
C20   C     C_R   0.447196 0.049204 0.492206 0.086876
C21   C     C_R   0.444436 0.952577 0.491832 0.088085
C22   C     C_3   0.231467 0.058271 0.601402 -0.432841
C23   C     C_R   0.375517 0.461028 0.094110 -0.281295
C24   C     C_3   0.087228 0.021736 0.535662 -0.351448
C25   C     C_3   0.957984 0.992086 0.592183 -0.870984
C26   C     C_3   0.346669 0.947407 0.309840 -0.432616
C27   C     C_3   0.182809 0.989610 0.304498 -0.346549
C28   C     C_3   0.122110 0.023940 0.204028 -0.884960
C29   C     C_R   0.570323 0.569960 0.900787 -0.281454
C30   C     C_R   0.378215 0.461530 0.193596 0.018707
C31   C     C_R   0.569564 0.568517 0.801502 0.021029
C32   C     C_R   0.621625 0.538474 0.215313 0.013997
C33   C     C_R   0.430163 0.431546 0.789509 0.019166
C34   C     C_R   0.624132 0.538908 0.116320 -0.282371
H1    H     H_    0.973757 0.499833 0.388668 0.172947
H2    H     H_    0.624091 0.626359 0.940870 0.131622
H3    H     H_    0.282101 0.431283 0.223732 0.126280
H4    H     H_    0.624465 0.622635 0.767527 0.120364
H5    H     H_    0.717757 0.568875 0.262536 0.124481
H6    H     H_    0.375290 0.377476 0.746061 0.121667
H7    H     H_    0.724285 0.568550 0.089799 0.133124
H8    H     H_    0.375187 0.373694 0.919540 0.132515
H9    H     H_    0.003189 0.939394 0.644935 0.262080
H10   H     H_    0.915387 0.049943 0.630046 0.261225
H11   H     H_    0.856965 0.964320 0.542667 0.253735
H12   H     H_    0.026270 0.499766 0.611300 0.181388
H13   H     H_    0.038418 0.074378 0.483679 0.218690
H14   H     H_    0.122176 0.962999 0.496236 0.228153
H15   H     H_    0.286298 0.004346 0.649352 0.200871
H16   H     H_    0.190187 0.109325 0.648832 0.200112
H17   H     H_    0.203863 0.075122 0.182120 0.264194
H18   H     H_    0.110739 0.967845 0.152331 0.258864
H19   H     H_    0.004289 0.055051 0.202790 0.246494
H20   H     H_    0.098345 0.939126 0.324823 0.218721
H21   H     H_    0.188194 0.047113 0.353921 0.228943
H22   H     H_    0.432497 0.998486 0.293266 0.201755
H23   H     H_    0.302259 0.233316 0.588691 0.135985
H24   H     H_    0.341329 0.896694 0.252272 0.200027
H25   H     H_    0.390058 0.772145 0.346294 0.155460
H26   H     H_    0.663979 0.213859 0.410039 0.146450
H27   H     H_    0.569449 0.785368 0.647028 0.150536
H28   H     H_    0.638810 0.051329 0.408502 0.137712
H29   H     H_    0.543541 0.947362 0.641700 0.140609
H30   H     H_    0.275295 0.431388 0.049646 0.133861
N1    N     N_R   0.500000 0.499980 0.252470 -0.092713
N2    N     N_R   0.500000 0.500020 0.747530 -0.092006
O1    O     O_R   0.500010 0.369070 0.579480 -0.630211
O2    O     O_R   0.499990 0.630930 0.420520 -0.625250
O3    O     O_R   0.500010 0.369060 0.420520 -0.617790
O4    O     O_R   0.499990 0.630940 0.579480 -0.630518
O5    O     O_R   0.271750 0.500000 0.560890 -0.614731
O6    O     O_R   0.728250 0.500000 0.439110 -0.623034
O7    O     O_R   0.271750 0.499990 0.401930 -0.635830
O8    O     O_R   0.728250 0.500010 0.598070 -0.623669
Zn1   Zn    Zn3+2 0.500000 0.500010 0.606140 0.938016
Zn2   Zn    Zn3+2 0.500000 0.499990 0.393860 0.935635

loop_
_geom_bond_atom_site_label_1
_geom_bond_atom_site_label_2
_ccdc_geom_bond_type
C31   N2    A    
C2    C4    A    
C28   H19   S    
C12   C15   S    
O7    Zn2   S    
C34   H7    S    
C13   H25   S    
O2    Zn2   S    
C12   O2    A    
C9    C20   A    
C3    C23   A    
C28   H17   S    
C3    C34   A    
C31   H4    S    
O6    Zn2   S    
C22   H16   S    
C25   H9    S    
C22   C24   S    
C13   C15   A    
C27   H20   S    
C5    O5    A    
C7    C8    D    
C29   C31   A    
C24   C25   S    
C6    O6    A    
C28   H18   S    
C29   H2    S    
C10   C26   S    
C26   C27   S    
N1    Zn2   S    
C2    H8    S    
C22   H15   S    
N2    Zn1   S    
C2    C33   A    
C23   H30   S    
C17   C19   A    
C33   N2    A    
C6    O8    A    
C18   C20   A    
C9    C11   A    
C10   C21   A    
C5    O7    A    
C11   C14   A    
C14   C16   A    
C9    C22   S    
O5    Zn1   S    
C33   H6    S    
O1    Zn1   S    
O8    Zn1   S    
C27   H21   S    
C3    C4    S    
C30   N1    A    
C23   C30   A    
C25   H11   S    
O4    Zn1   S    
C20   C21   S    
C25   H10   S    
O3    Zn2   S    
C16   C18   A    
C16   H26   S    
C32   H5    S    
C19   H29   S    
C27   C28   S    
C15   C17   A    
C12   O4    A    
C5    C7    S    
C18   H28   S    
C6    C8    S    
C1    C14   S    
C8    H12   S    
C17   H27   S    
C32   C34   A    
C11   H23   S    
C24   H13   S    
C7    H1    S    
C26   H24   S    
C1    O3    A    
C1    O1    A    
C4    C29   A    
C30   H3    S    
C24   H14   S    
C32   N1    A    
C19   C21   A    
C10   C13   A    
C26   H22   S    
