data_mof_unit_54344.cif
_audit_creation_date              2013-03-05T16:14:30-0500
_audit_creation_method            fapswitch 2.2
_symmetry_space_group_name_H-M    P1
_symmetry_Int_Tables_number       1
_space_group_crystal_system       triclinic
_cell_length_a                    10.608796
_cell_length_b                    10.638548
_cell_length_c                    9.449208
_cell_angle_alpha                 90.152017
_cell_angle_beta                  89.669311
_cell_angle_gamma                 89.984865
_cell_volume                      1066.43670798

loop_
_atom_site_label
_atom_site_type_symbol
_atom_site_description
_atom_site_fract_x
_atom_site_fract_y
_atom_site_fract_z
_atom_type_partial_charge
O1    O     O_R   0.500060 0.316850 0.620870 -0.566781
O2    O     O_R   0.499940 0.683150 0.379130 -0.566781
O3    O     O_R   0.500000 0.316860 0.379090 -0.604449
O4    O     O_R   0.500000 0.683140 0.620910 -0.604448
C1    C     C_R   0.499225 0.259803 0.499721 0.864971
C2    C     C_R   0.500775 0.740197 0.500279 0.864971
O5    O     O_R   0.316880 0.499960 0.620870 -0.572248
O6    O     O_R   0.683120 0.500040 0.379130 -0.572248
O7    O     O_R   0.316830 0.499970 0.379090 -0.574811
O8    O     O_R   0.683170 0.500030 0.620910 -0.574811
C3    C     C_R   0.259517 0.500262 0.500424 0.829086
C4    C     C_R   0.740483 0.499738 0.499576 0.829087
Cu1   Cu    Cu3+1 0.500030 0.499990 0.643150 0.971376
Cu2   Cu    Cu3+1 0.499970 0.500010 0.356850 0.971376
C5    C     C_3   0.039625 0.502881 0.634776 -0.137230
C6    C     C_3   0.960375 0.497118 0.365224 -0.137230
C7    C     C_3   0.957678 0.398000 0.569090 -0.134354
C8    C     C_3   0.042322 0.601999 0.430910 -0.134354
H1    H     H_    0.919902 0.314550 0.625458 0.159485
H2    H     H_    0.080098 0.685450 0.374542 0.159485
H3    H     H_    0.074506 0.505840 0.745179 0.144168
H4    H     H_    0.925494 0.494160 0.254821 0.144168
C9    C     C_3   0.877496 0.499678 0.498702 -0.010086
C10   C     C_3   0.122504 0.500322 0.501298 -0.010086
C11   C     C_3   0.957159 0.604526 0.564282 -0.112399
C12   C     C_3   0.042841 0.395473 0.435718 -0.112400
H5    H     H_    0.918750 0.689902 0.616878 0.171067
H6    H     H_    0.081250 0.310098 0.383122 0.171067
C13   C     C_3   0.599377 0.043857 0.574585 -0.282810
C14   C     C_3   0.400623 0.956142 0.425415 -0.282810
C15   C     C_3   0.605457 0.960515 0.441698 0.418912
C16   C     C_3   0.394543 0.039485 0.558302 0.418912
H7    H     H_    0.681611 0.081260 0.633396 0.169557
H8    H     H_    0.318389 0.918740 0.366604 0.169557
C17   C     C_3   0.501285 0.876656 0.500896 -0.121960
C18   C     C_3   0.498715 0.123344 0.499104 -0.121960
C19   C     C_3   0.492587 0.958904 0.635406 -0.258980
C20   C     C_3   0.507413 0.041096 0.364594 -0.258980
H9    H     H_    0.484602 0.924311 0.745858 0.168938
H10   H     H_    0.515398 0.075689 0.254142 0.168938
C21   C     C_3   0.491815 0.614134 0.051107 -0.130236
C22   C     C_3   0.508184 0.385866 0.948893 -0.130237
C23   C     C_3   0.397019 0.550472 0.949782 -0.095559
C24   C     C_3   0.602981 0.449528 0.050218 -0.095559
H11   H     H_    0.310763 0.591958 0.903064 0.132939
H12   H     H_    0.689237 0.408042 0.096936 0.132939
H13   H     H_    0.487089 0.709916 0.097699 0.146675
H14   H     H_    0.512911 0.290084 0.902300 0.146675
N1    N     N_3   0.500090 0.499970 0.858290 -0.193095
N2    N     N_3   0.499910 0.500030 0.141710 -0.193095
C25   C     C_3   0.592650 0.562203 0.951037 0.387044
C26   C     C_3   0.407350 0.437797 0.048963 0.387044
N3    N     N_R   0.723570 0.918897 0.377347 0.110647
O9    O     O_R   0.802940 0.001647 0.329024 -0.368448
O10   O     O_R   0.752285 0.800180 0.371533 -0.406270
N4    N     N_R   0.276430 0.081103 0.622653 0.110647
O11   O     O_R   0.197060 0.998353 0.670976 -0.368448
O12   O     O_R   0.247715 0.199819 0.628467 -0.406270
N5    N     N_2   0.695671 0.633550 0.890522 -0.418372
H15   H     H_    0.665503 0.705347 0.826018 0.265590
C27   C     C_3   0.790554 0.673432 0.990058 -0.674130
H16   H     H_    0.866229 0.724990 0.932992 0.233805
H17   H     H_    0.833629 0.590577 0.042022 0.224075
H18   H     H_    0.748396 0.736621 0.071381 0.263881
N6    N     N_2   0.304329 0.366450 0.109478 -0.418372
H19   H     H_    0.334497 0.294653 0.173982 0.265590
C28   C     C_3   0.209446 0.326568 0.009942 -0.674130
H20   H     H_    0.133771 0.275010 0.067008 0.233805
H21   H     H_    0.251604 0.263379 0.928619 0.263881
H22   H     H_    0.166371 0.409423 0.957978 0.224075

loop_
_geom_bond_atom_site_label_1
_geom_bond_atom_site_label_2
_geom_bond_distance
_ccdc_geom_bond_type
C14   C16   1.536277 S    
N3    O9    1.300225 A    
C2    C17   1.451734 S    
O5    C3    1.293709 A    
C13   C18   1.541335 S    
C7    C9    1.531626 S    
C14   C17   1.541335 S    
O1    C1    1.294339 A    
C7    C12   1.546585 S    
C16   C18   1.525177 S    
C17   C19   1.543477 S    
C10   C12   1.531442 S    
C23   C26   1.527839 S    
C5    C11   1.545472 S    
C1    C18   1.451735 S    
C13   H7    1.110334 S    
C3    C10   1.453525 S    
N4    O11   1.300225 A    
C14   C20   1.557686 S    
O4    Cu1   1.960305 S    
C27   H17   1.109762 S    
N6    C28   1.444600 S    
N2    C26   1.475739 S    
N5    H15   1.030509 S    
Cu1   Cu2   2.705313 S    
C16   N4    1.457858 S    
C21   C23   1.547520 S    
O2    C2    1.294339 A    
C8    C11   1.546585 S    
C22   C24   1.547520 S    
C24   H12   1.110176 S    
N3    O10   1.300055 A    
C6    C12   1.545472 S    
N5    C27   1.444600 S    
C14   H8    1.110334 S    
C28   H20   1.110381 S    
O4    C2    1.292824 A    
C23   N1    1.489307 S    
O6    Cu2   1.955582 S    
N1    C25   1.475740 S    
C28   H21   1.111557 S    
C27   H18   1.111557 S    
O7    Cu2   1.953020 S    
O7    C3    1.294645 A    
C4    C9    1.453525 S    
C5    H3    1.109288 S    
O6    C4    1.293708 A    
C21   H13   1.109954 S    
C22   H14   1.109954 S    
C16   C19   1.535961 S    
C15   N3    1.457858 S    
C23   H11   1.110176 S    
O3    Cu2   1.960305 S    
O8    C4    1.294645 A    
Cu1   N1    2.032906 S    
C24   C25   1.527839 S    
C6    C8    1.545664 S    
C5    C10   1.533486 S    
C6    C9    1.533486 S    
C8    C10   1.531626 S    
C25   N5    1.446768 S    
C21   N2    1.490029 S    
C24   N2    1.489306 S    
C5    C7    1.545664 S    
C6    H4    1.109288 S    
O3    C1    1.292823 A    
O8    Cu1   1.953021 S    
C11   H5    1.110429 S    
C12   H6    1.110429 S    
C15   C20   1.535961 S    
C28   H22   1.109762 S    
C18   C20   1.543476 S    
C19   H9    1.110375 S    
C20   H10   1.110375 S    
Cu2   N2    2.032908 S    
C15   C17   1.525178 S    
C7    H1    1.110279 S    
N4    O12   1.300055 A    
C8    H2    1.110279 S    
C9    C11   1.531442 S    
C27   H16   1.110381 S    
O2    Cu2   1.959129 S    
C22   N1    1.490029 S    
O5    Cu1   1.955582 S    
O1    Cu1   1.959129 S    
C13   C15   1.536277 S    
N6    H19   1.030509 S    
C13   C19   1.557686 S    
C21   C25   1.526078 S    
C26   N6    1.446768 S    
C22   C26   1.526078 S    
