data_mof_unit_54731.cif
_audit_creation_date              2012-12-10T17:44:28-0500
_audit_creation_method            fapswitch 2.2
_symmetry_space_group_name_H-M    P1
_symmetry_Int_Tables_number       1
_space_group_crystal_system       triclinic
_cell_length_a                    9.980045
_cell_length_b                    10.721267
_cell_length_c                    15.363296
_cell_angle_alpha                 92.264666
_cell_angle_beta                  70.937668
_cell_angle_gamma                 90.379636
_cell_volume                      1552.4626687

loop_
_atom_site_label
_atom_site_type_symbol
_atom_type_description
_atom_site_fract_x
_atom_site_fract_y
_atom_site_fract_z
_atom_type_partial_charge
C1    C     C_R   0.503087 0.739196 0.492583 0.869378
C2    C     C_R   0.713133 0.631479 0.051113 0.131669
C3    C     C_R   0.568598 0.613289 0.100376 0.091176
C4    C     C_R   0.413013 0.503377 0.675075 0.854302
C5    C     C_R   0.815678 0.605629 0.091564 -0.227028
C6    C     C_R   0.779812 0.543837 0.174516 0.207862
C7    C     C_R   0.531694 0.567695 0.189120 -0.318096
C8    C     C_R   0.271102 0.882926 0.454863 -0.151861
C9    C     C_R   0.138935 0.940864 0.476770 -0.139022
C10   C     C_R   0.113755 0.053612 0.527280 -0.166631
C11   C     C_R   0.224942 0.114249 0.547178 -0.154068
C12   C     C_R   0.415634 0.598703 0.912234 0.095397
C13   C     C_R   0.363326 0.061451 0.517092 0.096117
C14   C     C_R   0.379836 0.937238 0.484454 0.097789
C15   C     C_R   0.503370 0.872554 0.485017 -0.121300
C16   C     C_R   0.495048 0.260882 0.507749 0.881471
C17   C     C_R   0.619429 0.937177 0.495385 -0.223843
C18   C     C_R   0.613163 0.064335 0.507481 -0.215444
C19   C     C_R   0.487119 0.127618 0.516416 -0.129784
C20   C     C_R   0.803840 0.670436 0.616376 -0.170878
C21   C     C_R   0.846844 0.757306 0.671365 -0.236231
C22   C     C_R   0.984499 0.754933 0.673388 -0.173776
C23   C     C_R   0.270872 0.582052 0.963759 0.182389
C24   C     C_R   0.081140 0.667620 0.618642 -0.135225
C25   C     C_R   0.043558 0.582567 0.558380 0.107244
C26   C     C_R   0.899703 0.583210 0.557805 0.157779
C27   C     C_R   0.954771 0.422052 0.443708 -0.141972
C28   C     C_R   0.587358 0.502343 0.324597 0.871347
C29   C     C_R   0.097624 0.421757 0.442564 0.222973
C30   C     C_R   0.364150 0.524998 0.774648 -0.050030
C31   C     C_R   0.635230 0.532765 0.226857 -0.073421
C32   C     C_R   0.176686 0.533419 0.920643 -0.221662
C33   C     C_R   0.222419 0.506837 0.826499 -0.203933
C34   C     C_R   0.513001 0.631770 0.958811 0.066269
C35   C     C_R   0.460006 0.569648 0.817411 -0.270249
C36   C     C_3   0.195357 0.332355 0.373411 -0.851713
C37   C     C_3   0.895698 0.481215 0.200264 -0.905061
C38   C     C_R   0.466614 0.627914 0.056024 0.088705
C39   C     C_R   0.320261 0.630139 0.104527 -0.230993
C40   C     C_R   0.223902 0.610281 0.058171 -0.258778
C41   C     C_R   0.656357 0.660262 0.912460 -0.231752
C42   C     C_R   0.754437 0.664640 0.959206 -0.222314
H1    H     H_    0.113410 0.612798 0.097405 0.158169
H2    H     H_    0.694760 0.673883 0.621819 0.204226
H3    H     H_    0.771798 0.825219 0.714259 0.152128
H4    H     H_    0.422063 0.551725 0.227969 0.175958
H5    H     H_    0.016598 0.820835 0.717936 0.151416
H6    H     H_    0.184287 0.669924 0.624960 0.206210
H7    H     H_    0.864827 0.682006 0.921078 0.151076
H8    H     H_    0.069787 0.508951 0.959392 0.139631
H9    H     H_    0.147563 0.470036 0.794596 0.160560
H10   H     H_    0.569700 0.577547 0.775990 0.157475
H11   H     H_    0.278288 0.646317 0.178376 0.146855
H12   H     H_    0.923987 0.627755 0.055727 0.130306
H13   H     H_    0.695268 0.677864 0.840151 0.156061
H14   H     H_    0.302915 0.329838 0.376585 0.298064
H15   H     H_    0.152584 0.236303 0.384520 0.221822
H16   H     H_    0.202256 0.358425 0.302826 0.214210
H17   H     H_    0.856300 0.396770 0.240097 0.246992
H18   H     H_    0.979808 0.445263 0.137437 0.227080
H19   H     H_    0.941027 0.547532 0.240359 0.248961
H20   H     H_    0.715599 0.889769 0.494267 0.173223
H21   H     H_    0.287012 0.796829 0.413644 0.163328
H22   H     H_    0.055092 0.896569 0.456706 0.140528
H23   H     H_    0.009314 0.096041 0.548568 0.138683
H24   H     H_    0.200270 0.200901 0.587679 0.167443
H25   H     H_    0.707815 0.112847 0.509437 0.169738
H26   H     H_    0.922190 0.358744 0.397790 0.157062
N1    N     N_R   0.856800 0.501200 0.500850 -0.136578
N2    N     N_R   0.142390 0.501280 0.500880 -0.130220
O1    O     O_R   0.385310 0.683220 0.500000 -0.646282
O2    O     O_R   0.614640 0.683250 0.500010 -0.635648
O3    O     O_R   0.319840 0.499980 0.632240 -0.639078
O4    O     O_R   0.549160 0.500000 0.632250 -0.630054
O5    O     O_R   0.385360 0.316750 0.499990 -0.633335
O6    O     O_R   0.614690 0.316780 0.500000 -0.614510
O7    O     O_R   0.450840 0.500000 0.367750 -0.629936
O8    O     O_R   0.680160 0.500020 0.367760 -0.599177
Zn1   Zn    Zn3+2 0.346880 0.499980 0.499990 0.912568
Zn2   Zn    Zn3+2 0.653120 0.500020 0.500010 0.928242

loop_
_geom_bond_atom_site_label_1
_geom_bond_atom_site_label_2
_ccdc_geom_bond_type
C27   C29   A    
C16   O5    A    
C41   C42   A    
O1    Zn1   S    
C29   C36   S    
C1    O1    A    
C30   C35   A    
C3    C7    A    
C5    C6    A    
O8    Zn2   S    
C23   C40   A    
C9    H22   S    
C18   C19   A    
C41   H13   S    
C27   H26   S    
C40   H1    S    
C3    C38   A    
C8    C9    A    
C1    C15   S    
C28   O8    A    
C9    C10   A    
C4    O4    A    
C27   N1    A    
C11   H24   S    
C16   O6    A    
C22   H5    S    
O4    Zn2   S    
C13   C14   A    
C34   C41   A    
C20   H2    S    
C21   H3    S    
O7    Zn1   S    
C38   C39   A    
C1    O2    A    
C7    C31   A    
C13   C19   A    
C24   H6    S    
C7    H4    S    
C5    H12   S    
C24   C25   A    
C36   H15   S    
C39   C40   A    
C8    H21   S    
C25   C26   A    
C36   H14   S    
C17   H20   S    
C12   C23   A    
C17   C18   A    
O3    Zn1   S    
C6    C37   S    
C12   C35   A    
C28   O7    A    
C32   H8    S    
C4    O3    A    
C37   H17   S    
C22   C24   A    
C2    C5    A    
C12   C34   A    
C29   N2    A    
C10   H23   S    
C15   C17   A    
C8    C14   A    
C30   C33   A    
N2    Zn1   S    
C34   C38   A    
C28   C31   S    
O6    Zn2   S    
C37   H19   S    
C33   H9    S    
C36   H16   S    
C23   C32   A    
C2    C3    A    
C18   H25   S    
O2    Zn2   S    
C32   C33   A    
C11   C13   A    
C39   H11   S    
C20   C26   A    
C2    C42   A    
C16   C19   S    
C6    C31   A    
C37   H18   S    
C10   C11   A    
C42   H7    S    
C20   C21   A    
C35   H10   S    
C26   N1    A    
C14   C15   A    
N1    Zn2   S    
C25   N2    A    
C21   C22   A    
O5    Zn1   S    
C4    C30   S    
