data_mof_unit_50899.cif
_audit_creation_date              2013-03-05T15:47:03-0500
_audit_creation_method            fapswitch 2.2
_symmetry_space_group_name_H-M    P1
_symmetry_Int_Tables_number       1
_space_group_crystal_system       triclinic
_cell_length_a                    8.346878
_cell_length_b                    17.343052
_cell_length_c                    18.969962
_cell_angle_alpha                 98.175535
_cell_angle_beta                  93.985742
_cell_angle_gamma                 98.097128
_cell_volume                      2679.83485248

loop_
_atom_site_label
_atom_site_type_symbol
_atom_site_description
_atom_site_fract_x
_atom_site_fract_y
_atom_site_fract_z
_atom_type_partial_charge
P1    P     P_3+3 0.992230 0.679190 0.566750 0.546270
O1    O     O_2   0.166667 0.691630 0.546720 -0.354944
O2    O     O_3   0.893830 0.593690 0.541700 -0.348414
O3    O     O_3   0.390350 0.644650 0.417800 -0.377486
O4    O     O_2   0.479920 0.717155 0.547922 -0.308889
O5    O     O_3   0.993774 0.711201 0.658807 -0.614730
O6    O     O_3   0.320103 0.797923 0.465409 -0.472853
H1    H     H_    0.221252 0.762826 0.361213 0.111938
C1    C     C_3   0.223973 0.887906 0.392636 -0.087311
H2    H     H_    0.102190 0.880146 0.412688 0.098268
P2    P     P_3+3 0.339610 0.439630 0.337240 0.525603
P3    P     P_3+3 0.934209 0.596241 0.286469 0.517577
O7    O     O_2   0.171750 0.463380 0.328050 -0.282871
O8    O     O_3   0.965290 0.605410 0.380210 -0.411698
O9    O     O_2   0.069633 0.554977 0.253049 -0.318053
O10   O     O_3   0.269971 0.338152 0.318289 -0.565304
O11   O     O_3   0.971191 0.690383 0.262341 -0.497228
C2    C     C_3   0.866287 0.737309 0.296343 0.291201
H3    H     H_    0.919052 0.760482 0.351770 0.066633
H4    H     H_    0.741530 0.704773 0.297028 0.068999
C3    C     C_3   0.850980 0.806665 0.256852 -0.785676
H5    H     H_    0.775598 0.846392 0.285761 0.209892
H6    H     H_    0.972760 0.840318 0.253423 0.251945
C4    C     C_3   0.893962 0.269107 0.304360 0.626869
H7    H     H_    0.006044 0.268264 0.339141 0.008795
C5    C     C_3   0.807932 0.184086 0.279326 -0.236208
H8    H     H_    0.730090 0.181861 0.228897 0.147659
H9    H     H_    0.727507 0.164485 0.319601 0.110226
Ba1   Ba    Ba6+2 0.162080 0.538580 0.468810 1.685566
C6    C     C_3   0.111321 0.683854 0.700428 0.658187
H10   H     H_    0.215057 0.672721 0.670058 0.106519
C7    C     C_3   0.168417 0.749243 0.764833 -0.529637
H11   H     H_    0.192035 0.806913 0.745309 0.248416
H12   H     H_    0.071544 0.752894 0.801788 0.229960
C8    C     C_3   0.394674 0.292639 0.323225 0.366451
H13   H     H_    0.514532 0.329311 0.337434 0.156636
C9    C     C_3   0.398656 0.239955 0.251492 -0.526133
H14   H     H_    0.275467 0.207522 0.231993 0.265937
H15   H     H_    0.476984 0.194878 0.259489 0.176140
P4    P     P_3+3 0.818060 0.320800 0.433200 0.482078
O12   O     O_2   0.643630 0.308330 0.453260 -0.374559
O13   O     O_3   0.916470 0.406310 0.458240 -0.346450
O14   O     O_3   0.419940 0.355340 0.582140 -0.373105
O15   O     O_3   0.786270 0.313657 0.339926 -0.610160
P5    P     P_3+3 0.869414 0.388474 0.711145 0.505505
O16   O     O_3   0.383960 0.539280 0.585630 -0.334710
O17   O     O_3   0.845010 0.394580 0.619730 -0.342278
O18   O     O_2   0.743308 0.435303 0.746376 -0.344528
O19   O     O_3   0.805878 0.290523 0.722673 -0.557541
Ba2   Ba    Ba6+2 0.648090 0.461410 0.531130 1.653565
P6    P     P_3+3 0.464696 0.734539 0.469968 0.570006
C10   C     C_3   0.301299 0.813331 0.394575 0.194549
H16   H     H_    0.418536 0.822579 0.370112 0.038158
H17   H     H_    0.207882 0.897973 0.336195 0.112994
O20   O     O_3   0.426330 0.460710 0.414310 -0.395037
C11   C     C_3   0.640614 0.703311 0.714815 0.648302
H18   H     H_    0.723153 0.673612 0.681129 0.078899
C12   C     C_3   0.696477 0.705053 0.794921 -0.242757
H19   H     H_    0.808137 0.678173 0.799249 0.145525
H20   H     H_    0.604136 0.667951 0.819505 0.104723
P7    P     P_3+3 0.463714 0.560781 0.675719 0.463876
O21   O     O_2   0.638540 0.536570 0.671920 -0.320806
O22   O     O_3   0.480527 0.663787 0.698735 -0.642134
H21   H     H_    0.792126 0.785085 0.201911 0.294440
C13   C     C_3   0.850943 0.239934 0.665055 0.365973
H22   H     H_    0.770847 0.240199 0.615859 0.148226
H23   H     H_    0.978500 0.258768 0.654474 -0.011392
C14   C     C_3   0.839878 0.155555 0.682451 -0.616508
H24   H     H_    0.905881 0.120446 0.644013 0.184675
H25   H     H_    0.898888 0.156464 0.736783 0.243810
P8    P     P_3+3 0.377667 0.252944 0.573521 0.459070
C15   C     C_3   0.345090 0.258702 0.710298 0.481693
H26   H     H_    0.247792 0.289881 0.690141 0.007272
O23   O     O_2   0.497638 0.217802 0.524321 -0.374012
O24   O     O_3   0.429870 0.224118 0.655612 -0.545956
C16   C     C_3   0.265867 0.191868 0.748068 -0.657348
H27   H     H_    0.359635 0.158475 0.767716 0.227037
H28   H     H_    0.180393 0.149718 0.708463 0.218558
C17   C     C_2   0.783806 0.719579 0.468279 -0.367361
C18   C     C_3   0.666414 0.770134 0.443167 0.046427
C19   C     C_2   0.717574 0.857135 0.467948 -0.176822
C20   C     C_2   0.861145 0.885095 0.506454 0.125109
C21   C     C_2   0.958863 0.826352 0.532310 -0.197014
C22   C     C_1   0.903925 0.749287 0.517510 0.345527
C23   C     C_R   0.102902 0.138456 0.527225 -0.237931
C24   C     C_R   0.168564 0.217995 0.534507 0.206491
C25   C     C_R   0.923388 0.246989 0.473482 0.204103
C26   C     C_R   0.855470 0.166754 0.467313 -0.234488
C27   C     C_R   0.944228 0.111724 0.494722 0.145099
C28   C     C_2   0.925772 0.971784 0.521558 -0.141190
C29   C     C_2   0.872707 0.026319 0.484229 -0.116813
C30   C     C_R   0.078385 0.271891 0.508743 -0.462570
H29   H     H_    0.774234 0.008391 0.442288 0.159152
H30   H     H_    0.076553 0.847109 0.562108 0.176389
H31   H     H_    0.177978 0.098137 0.545717 0.175193
H32   H     H_    0.024600 0.989892 0.563377 0.154217
H33   H     H_    0.638113 0.896222 0.450539 0.152422
H34   H     H_    0.734406 0.147096 0.441002 0.168919
H35   H     H_    0.756466 0.656825 0.449300 0.155102
H36   H     H_    0.131960 0.333180 0.513718 0.170919
C31   C     C_R   0.625392 0.517013 0.297423 -0.406281
C32   C     C_R   0.465887 0.482865 0.273591 0.252194
C33   C     C_R   0.410363 0.476579 0.201476 -0.220039
C34   C     C_R   0.514582 0.505453 0.153010 0.088827
C35   C     C_R   0.675644 0.540014 0.177572 -0.178487
C36   C     C_R   0.730753 0.545273 0.249981 0.253838
C37   C     C_R   0.435349 0.570589 0.047761 0.357587
C38   C     C_R   0.376435 0.564397 0.975162 -0.094393
C39   C     C_R   0.336290 0.489423 0.931768 0.068908
C40   C     C_R   0.351203 0.421788 0.962769 -0.152239
C41   C     C_R   0.407610 0.427707 0.034658 -0.178316
C42   C     C_R   0.452176 0.501564 0.077380 -0.053013
C43   C     C_R   0.124299 0.440697 0.826248 -0.084422
C44   C     C_R   0.079394 0.430108 0.751545 0.243621
C45   C     C_R   0.341292 0.503496 0.733968 0.254921
C46   C     C_R   0.387879 0.511372 0.807226 -0.331651
C47   C     C_R   0.281182 0.480332 0.854000 0.073216
C48   C     C_R   0.192320 0.458407 0.706132 -0.348100
H37   H     H_    0.507418 0.541736 0.828045 0.144169
H38   H     H_    0.286619 0.449587 0.183196 0.175659
H39   H     H_    0.320494 0.364047 0.930913 0.119649
H40   H     H_    0.418968 0.374345 0.056902 0.146590
H41   H     H_    0.756365 0.563610 0.140924 0.152009
H42   H     H_    0.158260 0.451257 0.649214 0.157246
H43   H     H_    0.668372 0.521298 0.353210 0.159564
N1    N     N_R   0.925171 0.129690 0.267144 0.262085
O25   O     O_R   0.942041 0.097268 0.202443 -0.309801
O26   O     O_R   0.995898 0.104897 0.321037 -0.416911
N2    N     N_R   0.037552 0.610634 0.722354 0.172085
O27   O     O_R   0.961201 0.555264 0.673493 -0.363896
O28   O     O_R   0.033370 0.601903 0.789269 -0.504284
N3    N     N_3   0.317242 0.736958 0.803489 -0.148345
H44   H     H_    0.332532 0.774561 0.852470 0.212672
H45   H     H_    0.303677 0.679548 0.814840 0.148512
N4    N     N_3   0.361388 0.242841 0.377960 -0.172527
H46   H     H_    0.252095 0.204883 0.362454 0.159144
H47   H     H_    0.340958 0.279756 0.423832 0.151227
N5    N     N_3   0.462220 0.286426 0.198428 -0.179359
H48   H     H_    0.368002 0.313146 0.178221 0.176639
H49   H     H_    0.490959 0.247407 0.155554 0.159753
N6    N     N_R   0.644750 0.783120 0.697195 0.268469
O29   O     O_R   0.754331 0.811337 0.658383 -0.385913
O30   O     O_R   0.534942 0.825559 0.717855 -0.328645
N7    N     N_R   0.727342 0.784243 0.836733 0.288886
O31   O     O_R   0.847245 0.835635 0.824323 -0.328680
O32   O     O_R   0.648692 0.800356 0.892482 -0.327702
N8    N     N_R   0.325837 0.956290 0.435393 0.269615
O33   O     O_R   0.343816 0.962235 0.504728 -0.378044
O34   O     O_R   0.390293 0.014202 0.404784 -0.389790
N9    N     N_3   0.672754 0.115949 0.678810 -0.138755
H50   H     H_    0.614559 0.116664 0.628330 0.212497
H51   H     H_    0.613085 0.146539 0.717761 0.201594
N10   N     N_3   0.461045 0.315708 0.759865 -0.140371
H52   H     H_    0.397890 0.346451 0.797189 0.050024
H53   H     H_    0.538076 0.285798 0.788067 0.155795
N11   N     N_3   0.177657 0.220557 0.807888 -0.186281
H54   H     H_    0.113212 0.264306 0.793680 0.126714
H55   H     H_    0.261353 0.245448 0.851440 0.139258
N12   N     N_3   0.350560 0.634750 0.947695 -0.152214
H56   H     H_    0.434451 0.644645 0.910584 0.132677
H57   H     H_    0.232567 0.626744 0.922647 0.161843
N13   N     N_R   0.474661 0.646940 0.091326 0.235699
O35   O     O_R   0.557406 0.705241 0.066977 -0.352702
O36   O     O_R   0.424518 0.659129 0.154833 -0.390583
N14   N     N_3   0.010967 0.414928 0.874620 -0.199937
H58   H     H_    0.912208 0.445523 0.871025 0.169957
H59   H     H_    0.968956 0.354880 0.858916 0.121201
N15   N     N_R   0.940393 0.305009 0.241790 0.247385
O37   O     O_R   0.032589 0.272376 0.197671 -0.403858
O38   O     O_R   0.884881 0.368275 0.228000 -0.374975

loop_
_geom_bond_atom_site_label_1
_geom_bond_atom_site_label_2
_geom_bond_distance
_ccdc_geom_bond_type
P3    C36   1.839601 S    
C25   C26   1.411956 A    
N1    O25   1.300962 A    
Ba1   O13   2.827109 S    
C2    C3    1.520076 S    
P2    O7    1.520590 D    
C37   C42   1.412859 A    
C41   C42   1.401601 A    
C15   C16   1.542824 S    
C19   C20   1.348581 D    
C39   C47   1.493957 S    
N4    H46   1.044293 S    
C38   N12   1.430475 S    
C23   C24   1.394505 A    
C11   H18   1.102652 S    
P1    C22   1.836681 S    
C5    H8    1.111232 S    
C31   C32   1.394890 A    
O19   C13   1.408306 S    
O1    Ba1   2.842385 S    
P4    C25   1.870128 S    
O7    Ba1   2.811872 S    
N11   H54   1.044362 S    
C4    N15   1.467269 S    
C16   H28   1.109145 S    
O6    C10   1.409325 S    
C2    H3    1.107538 S    
N6    O30   1.301275 A    
C40   H39   1.080616 S    
C43   N14   1.433470 S    
C6    H10   1.097144 S    
C18   C19   1.506271 S    
P4    Ba2   3.385742 S    
C12   H20   1.105082 S    
C45   C46   1.398969 A    
C38   C39   1.419551 A    
C35   H41   1.083111 S    
O2    Ba1   2.914814 S    
P1    O1    1.524008 D    
C5    N1    1.459615 S    
P7    O22   1.760870 S    
C40   C41   1.396174 A    
C3    H21   1.110736 S    
P6    C18   1.841180 S    
N6    O29   1.299288 A    
P5    C44   1.865470 S    
N8    O33   1.301074 A    
C11   C12   1.553061 S    
N3    H44   1.045301 S    
C13   H23   1.109491 S    
P3    O11   1.749500 S    
P7    C45   1.853479 S    
C31   H43   1.082381 S    
C37   C38   1.413847 A    
C37   N13   1.439693 S    
C27   C29   1.496807 S    
C1    H2    1.107197 S    
H1    C10   1.110330 S    
O3    Ba1   2.779557 S    
C45   C48   1.397813 A    
P4    O13   1.581739 S    
N14   H59   1.044334 S    
C3    H5    1.110851 S    
C41   H40   1.083395 S    
N12   H56   1.041351 S    
P7    O21   1.577833 D    
C1    C10   1.528435 S    
C15   O24   1.407602 S    
C34   C35   1.410738 A    
O2    Ba2   2.827885 S    
O17   Ba2   2.752554 S    
N13   O36   1.301452 A    
Ba1   Ba2   4.578005 S    
P5    O17   1.751897 S    
C9    H15   1.107038 S    
N8    O34   1.300933 A    
O3    P6    1.731507 S    
P1    O5    1.754175 S    
C6    C7    1.542285 S    
C16   H27   1.111500 S    
N7    O32   1.300627 A    
C8    N4    1.459013 S    
C34   C42   1.480869 S    
C23   C27   1.407635 A    
C14   H24   1.109065 S    
O16   P7    1.758829 S    
C12   H19   1.102428 S    
C21   H30   1.086021 S    
C1    N8    1.460768 S    
P1    O2    1.581593 S    
C8    H13   1.101162 S    
C7    H12   1.108990 S    
C9    H14   1.111545 S    
C29   H29   1.082603 S    
P8    C24   1.832002 S    
P2    O10   1.751372 S    
C21   C22   1.333479 D    
P3    O9    1.546042 D    
P5    O19   1.755813 S    
C13   C14   1.537031 S    
P1    Ba1   3.385274 S    
O11   C2    1.405361 S    
C11   O22   1.405085 S    
C48   H42   1.082280 S    
C4    H7    1.109768 S    
N1    O26   1.300467 A    
C44   C48   1.405101 A    
N5    H49   1.045598 S    
O13   Ba2   2.915670 S    
C43   C47   1.418471 A    
C11   N6    1.465773 S    
N3    H45   1.040736 S    
P4    O12   1.524167 D    
O5    C6    1.393152 S    
P3    O8    1.760287 S    
C13   H22   1.110538 S    
C9    N5    1.459067 S    
C3    H6    1.109495 S    
C4    O15   1.411327 S    
N9    H51   1.043841 S    
N10   H53   1.045838 S    
O8    Ba1   2.751889 S    
O12   Ba2   2.842703 S    
C7    N3    1.455548 S    
P2    O20   1.556087 S    
C10   H16   1.112998 S    
C30   H36   1.081868 S    
C43   C44   1.419556 A    
P5    O18   1.548697 D    
C17   H35   1.083227 S    
C31   C36   1.391987 A    
N4    H47   1.043616 S    
N15   O37   1.300185 A    
O14   P8    1.742923 S    
C15   N10   1.462147 S    
C8    C9    1.532609 S    
C4    C5    1.539665 S    
C15   H26   1.112437 S    
P8    O23   1.544473 D    
O14   Ba2   2.778943 S    
C28   H32   1.083334 S    
N13   O35   1.301219 A    
C6    N2    1.459530 S    
Ba1   O20   2.918338 S    
C35   C36   1.404047 A    
O16   Ba2   2.917492 S    
C5    H9    1.109411 S    
Ba2   O20   2.784441 S    
C20   C28   1.503666 S    
C46   H37   1.080235 S    
Ba1   O16   2.785051 S    
N7    O31   1.300999 A    
C7    H11   1.111908 S    
N11   H55   1.044197 S    
N12   H57   1.045319 S    
N2    O27   1.296049 A    
O6    P6    1.748930 S    
O10   C8    1.397919 S    
C24   C30   1.398611 A    
C39   C40   1.401581 A    
P8    O24   1.747377 S    
C23   H31   1.080433 S    
C28   C29   1.362747 D    
C17   C22   1.315429 D    
C19   H33   1.080907 S    
Ba2   O21   2.811988 S    
N15   O38   1.301937 A    
C33   H38   1.083540 S    
C16   N11   1.461565 S    
C46   C47   1.407432 A    
P2    C32   1.828338 S    
C2    H4    1.114174 S    
C32   C33   1.397626 A    
C14   N9    1.457975 S    
N5    H48   1.044714 S    
C17   C18   1.500561 S    
C12   N7    1.464176 S    
N14   H58   1.044701 S    
P4    O15   1.754908 S    
C26   C27   1.420153 A    
P2    Ba1   3.373796 S    
C14   H25   1.108046 S    
C20   C21   1.504769 S    
C33   C34   1.404343 A    
N9    H50   1.045712 S    
O4    P6    1.550901 D    
C1    H17   1.111137 S    
N10   H52   1.042670 S    
C25   C30   1.395658 A    
C26   H34   1.082090 S    
N2    O28   1.301842 A    
