data_mof_unit_63082.cif
_audit_creation_date              2013-03-05T16:30:42-0500
_audit_creation_method            fapswitch 2.2
_symmetry_space_group_name_H-M    P1
_symmetry_Int_Tables_number       1
_space_group_crystal_system       triclinic
_cell_length_a                    35.686615
_cell_length_b                    35.709921
_cell_length_c                    21.863879
_cell_angle_alpha                 90.000018
_cell_angle_beta                  89.999962
_cell_angle_gamma                 90.000024
_cell_volume                      27862.5884511

loop_
_atom_site_label
_atom_site_type_symbol
_atom_site_description
_atom_site_fract_x
_atom_site_fract_y
_atom_site_fract_z
_atom_type_partial_charge
O1    O     O_R   0.054380 0.468510 0.499980 -0.568198
O2    O     O_R   0.468510 0.945620 0.499980 -0.562558
O3    O     O_R   0.945620 0.531490 0.499980 -0.568198
O4    O     O_R   0.531490 0.054380 0.499980 -0.562546
O5    O     O_R   0.945620 0.468510 0.500020 -0.568199
O6    O     O_R   0.531490 0.945620 0.500020 -0.562560
O7    O     O_R   0.054380 0.531490 0.500020 -0.568198
O8    O     O_R   0.468510 0.054380 0.500020 -0.562546
O9    O     O_R   0.554380 0.968510 0.999980 -0.568205
O10   O     O_R   0.968510 0.445620 0.999980 -0.562538
O11   O     O_R   0.445620 0.031490 0.999980 -0.568215
O12   O     O_R   0.031490 0.554380 0.999980 -0.562539
O13   O     O_R   0.445620 0.968510 0.000020 -0.568204
O14   O     O_R   0.031490 0.445620 0.000020 -0.562539
O15   O     O_R   0.554380 0.031490 0.000020 -0.568216
O16   O     O_R   0.968510 0.554380 0.000020 -0.562539
C1    C     C_R   0.072121 0.500000 0.500000 0.818083
C2    C     C_R   0.500000 0.927715 0.500000 0.780984
C3    C     C_R   0.927879 0.500000 0.500000 0.818084
C4    C     C_R   0.500000 0.072284 0.500000 0.781001
C5    C     C_R   0.572121 0.000000 0.999998 0.818117
C6    C     C_R   0.000000 0.427716 1.000000 0.780977
C7    C     C_R   0.427878 0.000000 0.000001 0.818117
C8    C     C_R   0.000000 0.572284 0.000000 0.780976
O17   O     O_R   0.000010 0.468510 0.409810 -0.580176
O18   O     O_R   0.468510 0.999990 0.409810 -0.567611
O19   O     O_R   0.999990 0.531490 0.409810 -0.580177
O20   O     O_R   0.531490 0.000010 0.409810 -0.567646
O21   O     O_R   0.999990 0.468510 0.590190 -0.580177
O22   O     O_R   0.531490 0.999990 0.590190 -0.567612
O23   O     O_R   0.000010 0.531490 0.590190 -0.580176
O24   O     O_R   0.468510 0.000010 0.590190 -0.567646
O25   O     O_R   0.500010 0.968510 0.909810 -0.580147
O26   O     O_R   0.968510 0.499990 0.909810 -0.567621
O27   O     O_R   0.499990 0.031490 0.909810 -0.580160
O28   O     O_R   0.031490 0.500010 0.909810 -0.567620
O29   O     O_R   0.499990 0.968510 0.090190 -0.580145
O30   O     O_R   0.031490 0.499990 0.090190 -0.567621
O31   O     O_R   0.500010 0.031490 0.090190 -0.580160
O32   O     O_R   0.968510 0.500010 0.090190 -0.567621
C9    C     C_R   0.000000 0.500000 0.380729 0.802316
C10   C     C_R   0.500000 0.000002 0.381263 0.789688
C11   C     C_R   0.000000 0.500000 0.619270 0.802316
C12   C     C_R   0.500000 0.000002 0.618737 0.789686
C13   C     C_R   0.499999 1.000000 0.880729 0.802285
C14   C     C_R   0.000000 0.500000 0.881262 0.789671
C15   C     C_R   0.500001 1.000000 0.119270 0.802286
C16   C     C_R   1.000000 0.500000 0.118737 0.789670
Cu1   Cu    Cu3+1 0.000000 0.462710 0.500000 1.034859
Cu2   Cu    Cu3+1 0.462710 0.000000 0.500000 1.066493
Cu3   Cu    Cu3+1 0.000000 0.537290 0.500000 1.034860
Cu4   Cu    Cu3+1 0.537290 0.000000 0.500000 1.066493
Cu5   Cu    Cu3+1 0.500000 0.962710 0.000000 1.034889
Cu6   Cu    Cu3+1 0.962710 0.500000 0.000000 1.066520
Cu7   Cu    Cu3+1 0.500000 0.037290 0.000000 1.034873
Cu8   Cu    Cu3+1 0.037290 0.500000 0.000000 1.066520
C17   C     C_R   0.032923 0.562630 0.303789 -0.038443
C18   C     C_R   0.505267 0.070129 0.307453 -0.089784
C19   C     C_R   0.967077 0.437370 0.303789 -0.038443
C20   C     C_R   0.494771 0.929873 0.307473 -0.089826
C21   C     C_R   0.967076 0.562629 0.696211 -0.038444
C22   C     C_R   0.494731 0.070129 0.692547 -0.089785
C23   C     C_R   0.032924 0.437370 0.696211 -0.038443
C24   C     C_R   0.505232 0.929873 0.692527 -0.089828
C25   C     C_R   0.532967 0.062605 0.803793 -0.038433
C26   C     C_R   0.005323 0.570125 0.807452 -0.089803
C27   C     C_R   0.467011 0.937402 0.803785 -0.038446
C28   C     C_R   0.994676 0.429875 0.807452 -0.089803
C29   C     C_R   0.467032 0.062605 0.196207 -0.038434
C30   C     C_R   0.994676 0.570125 0.192548 -0.089804
C31   C     C_R   0.532992 0.937404 0.196215 -0.038446
C32   C     C_R   0.005324 0.429875 0.192548 -0.089803
C33   C     C_R   0.031011 0.597902 0.274964 -0.071187
C34   C     C_R   0.490911 0.102176 0.277925 -0.052079
C35   C     C_R   0.968988 0.402098 0.274964 -0.071186
C36   C     C_R   0.509158 0.897832 0.277969 -0.052105
C37   C     C_R   0.968987 0.597902 0.725036 -0.071187
C38   C     C_R   0.509087 0.102176 0.722075 -0.052081
C39   C     C_R   0.031012 0.402098 0.725036 -0.071186
C40   C     C_R   0.490847 0.897831 0.722032 -0.052105
C41   C     C_R   0.531085 0.097878 0.774965 -0.071203
C42   C     C_R   0.990992 0.602183 0.777921 -0.052076
C43   C     C_R   0.468861 0.902134 0.774933 -0.071233
C44   C     C_R   0.009006 0.397816 0.777920 -0.052074
C45   C     C_R   0.468913 0.097878 0.225035 -0.071203
C46   C     C_R   0.009006 0.602184 0.222079 -0.052076
C47   C     C_R   0.531143 0.902135 0.225067 -0.071234
C48   C     C_R   0.990994 0.397816 0.222079 -0.052075
C49   C     C_R   0.001558 0.534235 0.217990 0.016760
C50   C     C_R   0.488003 0.032198 0.220265 0.024718
C51   C     C_R   0.998442 0.465765 0.217990 0.016761
C52   C     C_R   0.512007 0.967803 0.220267 0.024741
C53   C     C_R   0.998442 0.534235 0.782010 0.016760
C54   C     C_R   0.511997 0.032199 0.779735 0.024719
C55   C     C_R   0.001558 0.465765 0.782009 0.016760
C56   C     C_R   0.487995 0.967802 0.779733 0.024741
C57   C     C_R   0.501585 0.034234 0.717990 0.016743
C58   C     C_R   0.988026 0.532208 0.720266 0.024743
C59   C     C_R   0.498403 0.965768 0.717986 0.016740
C60   C     C_R   0.011973 0.467792 0.720266 0.024743
C61   C     C_R   0.498414 0.034234 0.282010 0.016743
C62   C     C_R   0.011973 0.532208 0.279734 0.024743
C63   C     C_R   0.501599 0.965768 0.282013 0.016741
C64   C     C_R   0.988027 0.467792 0.279734 0.024742
C65   C     C_R   1.000000 0.500000 0.185261 -0.130321
C66   C     C_R   0.500002 1.000000 0.186769 -0.159060
C67   C     C_R   1.000000 0.500000 0.814739 -0.130321
C68   C     C_R   0.499998 0.999999 0.813231 -0.159061
C69   C     C_R   0.499998 0.000002 0.685261 -0.130329
C70   C     C_R   1.000000 0.500000 0.686769 -0.159037
C71   C     C_R   0.500002 0.000002 0.314739 -0.130329
C72   C     C_R   0.000000 0.500000 0.313231 -0.159037
C73   C     C_R   0.327244 0.523957 0.539750 -0.115370
C74   C     C_R   0.520648 0.672830 0.544451 -0.114447
C75   C     C_R   0.672756 0.476043 0.539751 -0.115370
C76   C     C_R   0.479354 0.327168 0.544453 -0.114451
C77   C     C_R   0.672756 0.523957 0.460249 -0.115370
C78   C     C_R   0.479351 0.672831 0.455551 -0.114446
C79   C     C_R   0.327244 0.476043 0.460249 -0.115369
C80   C     C_R   0.520646 0.327168 0.455547 -0.114450
C81   C     C_R   0.827246 0.023962 0.039741 -0.115373
C82   C     C_R   0.020640 0.172834 0.044459 -0.114454
C83   C     C_R   0.172754 0.976038 0.039744 -0.115372
C84   C     C_R   0.979359 0.827166 0.044459 -0.114454
C85   C     C_R   0.172754 0.023963 0.960259 -0.115372
C86   C     C_R   0.979359 0.172834 0.955541 -0.114454
C87   C     C_R   0.827246 0.976039 0.960255 -0.115373
C88   C     C_R   0.020641 0.827166 0.955541 -0.114453
C89   C     C_R   0.366727 0.523841 0.540273 0.265240
C90   C     C_R   0.520853 0.633402 0.544556 0.269315
C91   C     C_R   0.633272 0.476158 0.540272 0.265236
C92   C     C_R   0.479149 0.366597 0.544558 0.269315
C93   C     C_R   0.633273 0.523841 0.459727 0.265240
C94   C     C_R   0.479147 0.633402 0.455445 0.269314
C95   C     C_R   0.366728 0.476158 0.459727 0.265237
C96   C     C_R   0.520851 0.366597 0.455442 0.269314
C97   C     C_R   0.866729 0.023846 0.040265 0.265230
C98   C     C_R   0.020846 0.133404 0.044564 0.269321
C99   C     C_R   0.133271 0.976154 0.040266 0.265229
C100  C     C_R   0.979154 0.866596 0.044564 0.269321
C101  C     C_R   0.133271 0.023847 0.959736 0.265231
C102  C     C_R   0.979154 0.133404 0.955436 0.269321
C103  C     C_R   0.866729 0.976154 0.959734 0.265230
C104  C     C_R   0.020846 0.866596 0.955436 0.269321
C105  C     C_R   0.386593 0.500000 0.500000 -0.225753
C106  C     C_R   0.500000 0.613479 0.500000 -0.221098
C107  C     C_R   0.613406 0.500000 0.500000 -0.225753
C108  C     C_R   0.500000 0.386520 0.500000 -0.221098
C109  C     C_R   0.886594 1.000000 1.000000 -0.225760
C110  C     C_R   1.000000 0.113481 0.000000 -0.221090
C111  C     C_R   0.113406 1.000000 0.000000 -0.225761
C112  C     C_R   1.000000 0.886519 0.000000 -0.221088
C113  C     C_R   0.307500 0.500000 0.499999 -0.057731
C114  C     C_R   0.499999 0.692450 0.500001 -0.057144
C115  C     C_R   0.692500 0.500000 0.500000 -0.057730
C116  C     C_R   0.500000 0.307547 0.500000 -0.057140
C117  C     C_R   0.807502 0.000001 0.999997 -0.057725
C118  C     C_R   1.000000 0.192455 0.000000 -0.057139
C119  C     C_R   0.192498 0.000001 0.000002 -0.057726
C120  C     C_R   0.000000 0.807545 0.000000 -0.057139
C121  C     C_1   0.266891 0.500000 0.499999 0.021473
C122  C     C_1   0.499999 0.732911 0.500002 0.026258
C123  C     C_1   0.733109 0.500000 0.500000 0.021473
C124  C     C_1   0.500000 0.267085 0.500000 0.026255
C125  C     C_1   0.766892 0.000001 0.999996 0.021469
C126  C     C_1   1.000000 0.232917 0.000000 0.026254
C127  C     C_1   0.233108 0.000001 0.000003 0.021469
C128  C     C_1   0.000000 0.767084 0.000001 0.026254
C129  C     C_1   0.233123 0.500000 0.499999 -0.006098
C130  C     C_1   0.499999 0.766572 0.500002 -0.000427
C131  C     C_1   0.766877 0.500000 0.500000 -0.006098
C132  C     C_1   0.500000 0.233424 0.500000 -0.000447
C133  C     C_1   0.733124 0.000001 0.999996 -0.006099
C134  C     C_1   1.000000 0.266578 0.000000 -0.000449
C135  C     C_1   0.266876 0.000001 0.000003 -0.006098
C136  C     C_1   0.000000 0.733422 0.000001 -0.000449
C137  C     C_R   0.172770 0.518479 0.547019 -0.045662
C138  C     C_R   0.527540 0.826635 0.466927 -0.038616
C139  C     C_R   0.827230 0.481519 0.547018 -0.045663
C140  C     C_R   0.472516 0.173362 0.466795 -0.038635
C141  C     C_R   0.827230 0.518481 0.452982 -0.045662
C142  C     C_R   0.472459 0.826636 0.533078 -0.038617
C143  C     C_R   0.172770 0.481521 0.452980 -0.045663
C144  C     C_R   0.527483 0.173361 0.533206 -0.038636
C145  C     C_R   0.672772 0.018522 0.046972 -0.045677
C146  C     C_R   0.027452 0.326641 0.966723 -0.038631
C147  C     C_R   0.327228 0.981482 0.046981 -0.045672
C148  C     C_R   0.972547 0.673359 0.966726 -0.038631
C149  C     C_R   0.327228 0.018521 0.953026 -0.045676
C150  C     C_R   0.972548 0.326641 0.033276 -0.038631
C151  C     C_R   0.672772 0.981481 0.953019 -0.045672
C152  C     C_R   0.027453 0.673358 0.033275 -0.038631
C153  C     C_R   0.133291 0.518787 0.546736 -0.074927
C154  C     C_R   0.527406 0.866071 0.466322 -0.083451
C155  C     C_R   0.866709 0.481211 0.546735 -0.074926
C156  C     C_R   0.472641 0.133925 0.466217 -0.083476
C157  C     C_R   0.866709 0.518788 0.453265 -0.074927
C158  C     C_R   0.472594 0.866071 0.533681 -0.083450
C159  C     C_R   0.133291 0.481213 0.453263 -0.074926
C160  C     C_R   0.527359 0.133925 0.533783 -0.083476
C161  C     C_R   0.633293 0.018829 0.046689 -0.074911
C162  C     C_R   0.027331 0.366078 0.966156 -0.083494
C163  C     C_R   0.366707 0.981175 0.046698 -0.074927
C164  C     C_R   0.972668 0.633922 0.966159 -0.083494
C165  C     C_R   0.366707 0.018828 0.953309 -0.074912
C166  C     C_R   0.972669 0.366078 0.033844 -0.083493
C167  C     C_R   0.633293 0.981174 0.953302 -0.074928
C168  C     C_R   0.027332 0.633922 0.033843 -0.083493
C169  C     C_R   0.113494 0.500000 0.500000 -0.096355
C170  C     C_R   0.500000 0.886099 0.500001 -0.123642
C171  C     C_R   0.886506 0.500000 0.500000 -0.096355
C172  C     C_R   0.500000 0.113897 0.500000 -0.123500
C173  C     C_R   0.613495 0.000001 0.999997 -0.096293
C174  C     C_R   1.000000 0.386104 0.000000 -0.123469
C175  C     C_R   0.386505 0.000001 0.000002 -0.096293
C176  C     C_R   1.000000 0.613896 0.000001 -0.123472
C177  C     C_R   0.192519 0.500000 0.499999 0.019326
C178  C     C_R   0.500000 0.807032 0.500002 0.027266
C179  C     C_R   0.807481 0.500000 0.500000 0.019327
C180  C     C_R   0.500000 0.192965 0.500001 0.027231
C181  C     C_R   0.692521 0.000002 0.999996 0.019344
C182  C     C_R   1.000000 0.307038 0.000000 0.027228
C183  C     C_R   0.307479 0.000001 0.000004 0.019344
C184  C     C_R   0.000000 0.692962 0.000001 0.027228
O33   O     O_R   0.500040 0.554280 0.447820 -0.539946
O34   O     O_R   0.554280 0.499960 0.447820 -0.542525
O35   O     O_R   0.499960 0.445720 0.447820 -0.539942
O36   O     O_R   0.445720 0.500040 0.447820 -0.542523
O37   O     O_R   0.499960 0.554280 0.552180 -0.539947
O38   O     O_R   0.445720 0.499960 0.552180 -0.542524
O39   O     O_R   0.500040 0.445720 0.552180 -0.539943
O40   O     O_R   0.554280 0.500040 0.552180 -0.542523
O41   O     O_R   0.000040 0.054280 0.947820 -0.539937
O42   O     O_R   0.054280 0.999960 0.947820 -0.542529
O43   O     O_R   0.999960 0.945720 0.947820 -0.539938
O44   O     O_R   0.945720 0.000040 0.947820 -0.542529
O45   O     O_R   0.999960 0.054280 0.052180 -0.539938
O46   O     O_R   0.945720 0.999960 0.052180 -0.542528
O47   O     O_R   0.000040 0.945720 0.052180 -0.539938
O48   O     O_R   0.054280 0.000040 0.052180 -0.542529
C185  C     C_R   0.500000 0.572002 0.500000 0.906386
C186  C     C_R   0.571972 0.500000 0.500000 0.904357
C187  C     C_R   0.500000 0.427997 0.500000 0.906379
C188  C     C_R   0.428028 0.500000 0.500000 0.904358
C189  C     C_R   0.000000 0.072003 0.000000 0.906381
C190  C     C_R   0.071972 1.000000 1.000000 0.904352
C191  C     C_R   0.000000 0.927997 1.000000 0.906381
C192  C     C_R   0.928028 1.000000 0.000000 0.904352
Cu9   Cu    Cu3+1 0.500000 0.500000 0.438180 1.223409
Cu10  Cu    Cu3+1 0.500000 0.500000 0.561820 1.223409
Cu11  Cu    Cu3+1 0.000000 0.000000 0.938180 1.223412
Cu12  Cu    Cu3+1 0.000000 1.000000 0.061820 1.223412
C193  C     C_1   0.949408 0.370165 0.300703 0.287808
N1    N     N_1   0.933787 0.344695 0.321224 -0.209050
C194  C     C_1   0.501769 0.860723 0.302198 0.266921
N2    N     N_1   0.495764 0.831113 0.321345 -0.240627
C195  C     C_1   0.050592 0.629836 0.300703 0.287808
N3    N     N_1   0.066212 0.655306 0.321224 -0.209048
C196  C     C_1   0.498347 0.139286 0.302111 0.266917
N4    N     N_1   0.504391 0.168896 0.321222 -0.240535
C197  C     C_1   0.050592 0.370164 0.699297 0.287808
N5    N     N_1   0.066213 0.344695 0.678776 -0.209049
C198  C     C_1   0.498238 0.860722 0.697803 0.266920
N6    N     N_1   0.504244 0.831113 0.678656 -0.240624
C199  C     C_1   0.949406 0.629835 0.699298 0.287809
N7    N     N_1   0.933784 0.655304 0.678778 -0.209048
C200  C     C_1   0.501650 0.139286 0.697889 0.266916
N8    N     N_1   0.495605 0.168896 0.678779 -0.240533
C201  C     C_1   0.449234 0.870224 0.800658 0.287811
N9    N     N_1   0.433576 0.844774 0.821169 -0.209082
C202  C     C_1   0.001535 0.360711 0.802099 0.266888
N10   N     N_1   0.995464 0.331106 0.821204 -0.240494
C203  C     C_1   0.550689 0.129797 0.800705 0.287818
N11   N     N_1   0.566329 0.155255 0.821227 -0.209064
C204  C     C_1   0.998462 0.639288 0.802101 0.266889
N12   N     N_1   0.004532 0.668894 0.821207 -0.240495
C205  C     C_1   0.550773 0.870227 0.199343 0.287812
N13   N     N_1   0.566432 0.844777 0.178834 -0.209081
C206  C     C_1   0.998465 0.360711 0.197901 0.266888
N14   N     N_1   0.004536 0.331106 0.178796 -0.240493
C207  C     C_1   0.449308 0.129797 0.199295 0.287818
N15   N     N_1   0.433668 0.155254 0.178774 -0.209064
C208  C     C_1   0.001536 0.639289 0.197900 0.266889
N16   N     N_1   0.995464 0.668894 0.178795 -0.240494
C209  C     C_1   0.062156 0.556269 0.348482 0.285024
N17   N     N_1   0.086091 0.551647 0.383314 -0.271086
C210  C     C_1   0.534081 0.075037 0.353247 0.247827
N18   N     N_1   0.557900 0.079552 0.388368 -0.217446
C211  C     C_1   0.937843 0.443731 0.348482 0.285023
N19   N     N_1   0.913909 0.448354 0.383313 -0.271088
C212  C     C_1   0.465952 0.924952 0.353256 0.247868
N20   N     N_1   0.442129 0.920426 0.388365 -0.217497
C213  C     C_1   0.937843 0.556268 0.651518 0.285022
N21   N     N_1   0.913909 0.551646 0.616686 -0.271087
C214  C     C_1   0.465918 0.075036 0.646753 0.247829
N22   N     N_1   0.442099 0.079551 0.611632 -0.217445
C215  C     C_1   0.062157 0.443731 0.651517 0.285023
N23   N     N_1   0.086091 0.448353 0.616686 -0.271087
C216  C     C_1   0.534050 0.924953 0.646744 0.247871
N24   N     N_1   0.557874 0.920428 0.611634 -0.217496
C217  C     C_1   0.562192 0.056224 0.848490 0.284969
N25   N     N_1   0.586123 0.051586 0.883322 -0.271177
C218  C     C_1   0.034135 0.575013 0.853254 0.247909
N26   N     N_1   0.057954 0.579512 0.888382 -0.217370
C219  C     C_1   0.437795 0.943791 0.848496 0.284939
N27   N     N_1   0.413870 0.948434 0.883338 -0.271200
C220  C     C_1   0.965863 0.424987 0.853254 0.247909
N28   N     N_1   0.942045 0.420489 0.888382 -0.217369
C221  C     C_1   0.437807 0.056223 0.151509 0.284969
N29   N     N_1   0.413876 0.051585 0.116677 -0.271178
C222  C     C_1   0.965863 0.575012 0.146746 0.247909
N30   N     N_1   0.942045 0.579511 0.111618 -0.217370
C223  C     C_1   0.562207 0.943794 0.151504 0.284936
N31   N     N_1   0.586132 0.948438 0.116662 -0.271204
C224  C     C_1   0.034137 0.424987 0.146746 0.247910
N32   N     N_1   0.057955 0.420489 0.111618 -0.217369
C225  C     C_1   0.307134 0.549949 0.578608 0.390046
N33   N     N_1   0.291244 0.570849 0.609635 -0.188367
C226  C     C_1   0.542790 0.693181 0.589009 0.394207
N34   N     N_1   0.560458 0.709474 0.624538 -0.197034
C227  C     C_1   0.692866 0.450051 0.578609 0.390044
N35   N     N_1   0.708756 0.429151 0.609636 -0.188369
C228  C     C_1   0.457215 0.306817 0.589015 0.394201
N36   N     N_1   0.439549 0.290525 0.624547 -0.197017
C229  C     C_1   0.692866 0.549949 0.421391 0.390045
N37   N     N_1   0.708756 0.570849 0.390364 -0.188366
C230  C     C_1   0.457208 0.693182 0.410994 0.394206
N38   N     N_1   0.439541 0.709474 0.375465 -0.197035
C231  C     C_1   0.307134 0.450051 0.421391 0.390044
N39   N     N_1   0.291244 0.429151 0.390364 -0.188370
C232  C     C_1   0.542785 0.306817 0.410986 0.394201
N40   N     N_1   0.560450 0.290524 0.375453 -0.197017
C233  C     C_1   0.807136 0.049960 0.078590 0.390031
N41   N     N_1   0.791249 0.070865 0.109611 -0.188346
C234  C     C_1   0.042775 0.193185 0.089028 0.394200
N42   N     N_1   0.060435 0.209477 0.124566 -0.197003
C235  C     C_1   0.192863 0.950041 0.078593 0.390032
N43   N     N_1   0.208751 0.929136 0.109614 -0.188347
C236  C     C_1   0.957225 0.806816 0.089028 0.394200
N44   N     N_1   0.939564 0.790523 0.124566 -0.197002
C237  C     C_1   0.192864 0.049961 0.921411 0.390032
N45   N     N_1   0.208751 0.070866 0.890392 -0.188347
C238  C     C_1   0.957225 0.193184 0.910972 0.394200
N46   N     N_1   0.939564 0.209477 0.875435 -0.197003
C239  C     C_1   0.807137 0.950042 0.921404 0.390032
N47   N     N_1   0.791249 0.929137 0.890383 -0.188346
C240  C     C_1   0.042775 0.806815 0.910972 0.394199
N48   N     N_1   0.060436 0.790523 0.875435 -0.197002
N49   N     N_R   0.386559 0.548914 0.580319 0.138966
O49   O     O_R   0.379847 0.548720 0.638811 -0.291566
O50   O     O_R   0.410347 0.572951 0.558156 -0.327562
N50   N     N_R   0.543352 0.613737 0.588654 0.140425
O51   O     O_R   0.538622 0.619640 0.646867 -0.291262
O52   O     O_R   0.569809 0.591232 0.570633 -0.317196
N51   N     N_R   0.613440 0.451085 0.580318 0.138966
O53   O     O_R   0.620152 0.451279 0.638810 -0.291564
O54   O     O_R   0.589653 0.427049 0.558153 -0.327569
N52   N     N_R   0.456651 0.386262 0.588658 0.140426
O55   O     O_R   0.461383 0.380359 0.646871 -0.291255
O56   O     O_R   0.430193 0.408766 0.570641 -0.317193
N53   N     N_R   0.613441 0.548914 0.419681 0.138966
O57   O     O_R   0.620153 0.548719 0.361188 -0.291566
O58   O     O_R   0.589653 0.572951 0.441844 -0.327561
N54   N     N_R   0.456647 0.613737 0.411346 0.140426
O59   O     O_R   0.461377 0.619641 0.353133 -0.291262
O60   O     O_R   0.430191 0.591232 0.429366 -0.317195
N55   N     N_R   0.386560 0.451085 0.419682 0.138965
O61   O     O_R   0.379848 0.451279 0.361189 -0.291563
O62   O     O_R   0.410347 0.427049 0.441846 -0.327568
N56   N     N_R   0.543349 0.386262 0.411342 0.140426
O63   O     O_R   0.538616 0.380359 0.353129 -0.291255
O64   O     O_R   0.569807 0.408766 0.429359 -0.317193
N57   N     N_R   0.886561 0.048922 0.080304 0.138962
O65   O     O_R   0.879849 0.048735 0.138796 -0.291565
O66   O     O_R   0.910350 0.072956 0.058133 -0.327585
N58   N     N_R   0.043339 0.113740 0.088670 0.140427
O67   O     O_R   0.038600 0.119642 0.146882 -0.291252
O68   O     O_R   0.069801 0.091238 0.070660 -0.317176
N59   N     N_R   0.113438 0.951077 0.080304 0.138962
O69   O     O_R   0.120150 0.951264 0.138796 -0.291565
O70   O     O_R   0.089650 0.927043 0.058132 -0.327586
N60   N     N_R   0.956660 0.886260 0.088670 0.140427
O71   O     O_R   0.961400 0.880359 0.146882 -0.291251
O72   O     O_R   0.930198 0.908762 0.070660 -0.317176
N61   N     N_R   0.113439 0.048923 0.919697 0.138962
O73   O     O_R   0.120152 0.048736 0.861205 -0.291565
O74   O     O_R   0.089650 0.072956 0.941868 -0.327586
N62   N     N_R   0.956660 0.113740 0.911330 0.140427
O75   O     O_R   0.961400 0.119641 0.853118 -0.291252
O76   O     O_R   0.930199 0.091238 0.929340 -0.317177
N63   N     N_R   0.886562 0.951078 0.919695 0.138962
O77   O     O_R   0.879850 0.951265 0.861202 -0.291565
O78   O     O_R   0.910350 0.927044 0.941866 -0.327585
N64   N     N_R   0.043339 0.886260 0.911329 0.140428
O79   O     O_R   0.038600 0.880358 0.853118 -0.291251
O80   O     O_R   0.069801 0.908762 0.929339 -0.317175
C241  C     C_1   0.192952 0.536886 0.596136 0.279005
N65   N     N_1   0.208853 0.551554 0.635544 -0.206479
C242  C     C_1   0.555881 0.806141 0.432991 0.292144
N66   N     N_1   0.578449 0.789798 0.405924 -0.209925
C243  C     C_1   0.807047 0.463110 0.596133 0.279004
N67   N     N_1   0.791147 0.448441 0.635539 -0.206479
C244  C     C_1   0.444249 0.193856 0.432694 0.292154
N68   N     N_1   0.421742 0.210196 0.405493 -0.209928
C245  C     C_1   0.807048 0.536890 0.403867 0.279004
N69   N     N_1   0.791147 0.551559 0.364461 -0.206479
C246  C     C_1   0.444119 0.806142 0.567016 0.292141
N70   N     N_1   0.421552 0.789799 0.594084 -0.209926
C247  C     C_1   0.192952 0.463113 0.403863 0.279004
N71   N     N_1   0.208853 0.448446 0.364455 -0.206480
C248  C     C_1   0.555750 0.193856 0.567308 0.292153
N72   N     N_1   0.578257 0.210195 0.594509 -0.209928
C249  C     C_1   0.692954 0.036974 0.096045 0.278976
N73   N     N_1   0.708853 0.051677 0.135418 -0.206471
C250  C     C_1   0.055680 0.306148 0.932537 0.292138
N74   N     N_1   0.078157 0.289809 0.905266 -0.209927
C251  C     C_1   0.307047 0.963032 0.096056 0.278981
N75   N     N_1   0.291148 0.948329 0.135430 -0.206470
C252  C     C_1   0.944318 0.693852 0.932542 0.292139
N76   N     N_1   0.921841 0.710192 0.905273 -0.209928
C253  C     C_1   0.307047 0.036971 0.903952 0.278976
N77   N     N_1   0.291148 0.051674 0.864578 -0.206471
C254  C     C_1   0.944319 0.306148 0.067463 0.292137
N78   N     N_1   0.921843 0.289809 0.094734 -0.209928
C255  C     C_1   0.692953 0.963030 0.903945 0.278981
N79   N     N_1   0.708852 0.948327 0.864572 -0.206470
C256  C     C_1   0.055682 0.693852 0.067461 0.292137
N80   N     N_1   0.078159 0.710191 0.094731 -0.209927
C257  C     C_1   0.113023 0.537338 0.595717 0.284900
N81   N     N_1   0.096815 0.552053 0.634770 -0.246119
C258  C     C_1   0.554760 0.885727 0.429103 0.279870
N82   N     N_1   0.576542 0.901358 0.399323 -0.235951
C259  C     C_1   0.886977 0.462659 0.595714 0.284901
N83   N     N_1   0.903185 0.447943 0.634766 -0.246117
C260  C     C_1   0.445327 0.114263 0.428928 0.279660
N84   N     N_1   0.423576 0.098626 0.399095 -0.236028
C261  C     C_1   0.886977 0.537340 0.404285 0.284901
N85   N     N_1   0.903185 0.552057 0.365233 -0.246117
C262  C     C_1   0.445241 0.885728 0.570901 0.279866
N86   N     N_1   0.423460 0.901360 0.600682 -0.235951
C263  C     C_1   0.113023 0.462662 0.404282 0.284899
N87   N     N_1   0.096815 0.447947 0.365229 -0.246119
C264  C     C_1   0.554673 0.114263 0.571073 0.279660
N88   N     N_1   0.576424 0.098626 0.600906 -0.236028
C265  C     C_1   0.613026 0.037421 0.095631 0.284972
N89   N     N_1   0.596819 0.052168 0.134652 -0.246045
C266  C     C_1   0.054619 0.385743 0.928819 0.279537
N90   N     N_1   0.076348 0.401382 0.898949 -0.236065
C267  C     C_1   0.386975 0.962586 0.095641 0.284953
N91   N     N_1   0.403182 0.947840 0.134663 -0.246031
C268  C     C_1   0.945379 0.614257 0.928824 0.279544
N92   N     N_1   0.923649 0.598618 0.898956 -0.236062
C269  C     C_1   0.386974 0.037418 0.904366 0.284969
N93   N     N_1   0.403181 0.052165 0.865344 -0.246047
C270  C     C_1   0.945381 0.385743 0.071181 0.279537
N94   N     N_1   0.923652 0.401383 0.101052 -0.236065
C271  C     C_1   0.613025 0.962584 0.904360 0.284952
N95   N     N_1   0.596818 0.947838 0.865338 -0.246031
C272  C     C_1   0.054620 0.614257 0.071178 0.279540
N96   N     N_1   0.076350 0.598617 0.101047 -0.236062

loop_
_geom_bond_atom_site_label_1
_geom_bond_atom_site_label_2
_geom_bond_distance
_ccdc_geom_bond_type
C110  C189  1.481165 S    
C272  N96   1.157471 T    
C90   C106  1.417363 A    
O25   C13   1.291806 A    
C271  N95   1.157474 T    
C28   C220  1.445865 S    
C212  N20   1.156792 T    
C134  C182  1.444806 S    
C256  N80   1.157286 T    
C77   C93   1.409078 A    
C90   N50   1.437842 S    
C150  C254  1.452265 S    
C139  C155  1.408921 A    
C261  N85   1.157473 T    
C17   C62   1.419771 A    
O41   Cu11  1.949757 S    
C249  N73   1.157008 T    
C137  C153  1.408921 A    
C19   C64   1.419770 A    
C163  C175  1.411890 A    
C2    C170  1.486072 S    
O18   Cu2   1.982738 S    
C100  C112  1.417364 A    
C33   C195  1.450976 S    
C202  N10   1.157205 T    
C56   C59   1.402067 A    
C146  C162  1.408343 A    
C255  N79   1.157006 T    
C36   C194  1.451288 S    
C94   N54   1.437844 S    
C101  N61   1.438441 S    
N52   O55   1.301104 A    
C150  C166  1.408343 A    
N58   O68   1.300969 A    
Cu1   Cu3   2.663242 S    
C9    C72   1.475770 S    
C108  C187  1.481144 S    
Cu2   Cu4   2.661504 S    
O3    C3    1.290487 A    
C147  C251  1.450533 S    
C11   C70   1.475770 S    
C20   C63   1.418526 A    
C87   C117  1.408434 A    
C89   C105  1.415191 A    
C140  C156  1.408338 A    
C13   C68   1.475772 S    
O46   Cu12  1.948503 S    
C166  C174  1.417843 A    
C86   C118  1.406547 A    
C56   C68   1.428934 A    
C79   C113  1.408429 A    
C101  C111  1.415182 A    
C145  C181  1.410322 A    
C74   C90   1.408027 A    
C88   C240  1.449693 S    
O5    Cu1   1.951663 S    
C40   C198  1.451288 S    
C40   C43   1.406063 A    
C138  C178  1.406762 A    
C235  N43   1.157045 T    
C94   C106  1.417365 A    
C26   C218  1.445860 S    
C126  C134  1.202053 T    
C28   C55   1.418565 A    
C166  C270  1.451832 S    
C228  N36   1.157341 T    
N59   O69   1.301124 A    
O17   C9    1.291812 A    
C32   C51   1.418561 A    
C7    C175  1.476477 S    
C54   C57   1.402047 A    
C233  N41   1.157044 T    
C20   C36   1.410288 A    
C113  C121  1.449212 S    
C159  C169  1.411882 A    
C157  C171  1.411880 A    
C26   C42   1.410322 A    
C138  C154  1.408316 A    
C16   C65   1.454462 S    
O36   C188  1.303913 A    
C96   N56   1.437848 S    
N50   O51   1.301101 A    
C82   C118  1.406548 A    
O45   C189  1.304654 A    
C18   C61   1.418543 A    
C87   C103  1.409074 A    
C162  C174  1.417844 A    
C88   C104  1.408045 A    
C31   C223  1.447309 S    
C128  C136  1.202053 T    
C52   C66   1.428934 A    
O26   Cu6   1.982738 S    
C3    C171  1.476452 S    
C162  C266  1.451834 S    
O27   C13   1.291815 A    
O8    Cu2   1.952905 S    
C30   C222  1.445858 S    
O31   C15   1.291812 A    
O36   Cu9   1.948503 S    
O32   C16   1.285471 A    
C80   C232  1.449692 S    
C139  C179  1.410325 A    
C165  C269  1.452201 S    
C137  C177  1.410324 A    
C32   C224  1.445863 S    
C19   C211  1.447342 S    
C25   C217  1.447317 S    
C245  N69   1.157012 T    
O41   C189  1.304655 A    
C83   C119  1.408434 A    
C37   C42   1.406068 A    
C84   C120  1.406549 A    
O11   C7    1.290488 A    
C119  C127  1.449208 S    
C4    C172  1.486004 S    
C265  N89   1.157473 T    
C48   C206  1.451275 S    
O16   Cu6   1.952905 S    
C76   C116  1.406550 A    
O38   C188  1.303912 A    
N64   O79   1.301105 A    
C234  N42   1.157340 T    
C156  C172  1.417868 A    
C144  C180  1.406803 A    
C20   C212  1.445865 S    
C227  N35   1.157047 T    
C135  C183  1.449009 S    
C74   C226  1.449691 S    
O6    Cu4   1.952908 S    
C247  N71   1.157013 T    
C82   C234  1.449691 S    
C74   C114  1.406537 A    
O15   Cu7   1.951659 S    
N61   O74   1.300866 A    
C137  C241  1.450537 S    
O34   Cu9   1.948500 S    
C27   C43   1.410119 A    
C253  N77   1.157012 T    
C244  N68   1.157282 T    
O44   C192  1.303908 A    
C252  N76   1.157283 T    
C141  C157  1.408921 A    
C111  C190  1.478632 S    
C243  N67   1.157011 T    
C75   C227  1.448567 S    
O21   Cu1   1.982750 S    
C257  N81   1.157472 T    
C81   C97   1.409071 A    
Cu9   Cu10  2.703252 S    
C142  C246  1.452256 S    
O23   C11   1.291809 A    
C63   C71   1.417627 A    
C150  C182  1.406821 A    
C197  N5    1.157279 T    
O34   C186  1.303912 A    
C242  N66   1.157335 T    
C91   N51   1.438444 S    
N54   O59   1.301102 A    
O13   C7    1.290497 A    
C89   N49   1.438442 S    
C195  N3    1.157277 T    
C155  C259  1.452194 S    
C17   C33   1.410087 A    
C112  C191  1.481165 S    
O2    Cu2   1.952908 S    
C24   C59   1.418528 A    
C31   C52   1.419790 A    
C85   C101  1.409074 A    
N62   O75   1.301106 A    
C144  C160  1.408334 A    
C77   C115  1.408429 A    
C91   C107  1.415191 A    
O26   C14   1.285473 A    
O29   C15   1.291809 A    
C151  C181  1.410323 A    
O30   C16   1.285473 A    
C78   C94   1.408024 A    
C81   C233  1.448566 S    
C196  N4    1.157203 T    
O35   Cu9   1.949761 S    
O29   Cu5   1.982750 S    
C120  C128  1.444888 S    
C143  C177  1.410326 A    
C205  N13   1.157284 T    
C39   C44   1.406072 A    
C163  C267  1.452195 S    
O19   Cu3   1.982752 S    
C140  C244  1.452269 S    
O17   Cu1   1.982753 S    
C154  C258  1.451807 S    
C138  C242  1.452255 S    
C117  C125  1.449208 S    
C64   C72   1.428915 A    
C17   C209  1.447338 S    
C115  C123  1.449212 S    
C148  C164  1.408339 A    
O4    C4    1.292921 A    
C213  N21   1.156187 T    
C154  C170  1.417855 A    
C22   C57   1.418540 A    
C57   C69   1.417630 A    
C258  N82   1.157486 T    
C76   C92   1.408042 A    
C103  C109  1.415179 A    
C211  N19   1.156185 T    
O45   Cu12  1.949757 S    
C151  C167  1.408917 A    
N52   O56   1.300967 A    
C36   C47   1.406065 A    
C96   C108  1.417363 A    
C26   C53   1.418558 A    
C78   C230  1.449692 S    
C83   C235  1.448564 S    
N51   O54   1.300865 A    
C109  C192  1.478628 S    
O32   Cu6   1.982736 S    
C5    C173  1.476477 S    
C124  C132  1.202042 T    
C30   C49   1.418561 A    
C158  C262  1.451806 S    
C29   C45   1.410094 A    
C18   C34   1.410307 A    
C127  C135  1.205058 T    
C27   C219  1.447310 S    
N63   O78   1.300862 A    
O22   Cu4   1.982736 S    
C136  C184  1.444806 S    
C44   C202  1.451279 S    
O47   Cu12  1.949761 S    
C114  C122  1.444834 S    
C161  C265  1.452205 S    
C29   C221  1.447314 S    
C35   C193  1.450974 S    
O42   Cu11  1.948500 S    
C200  N8    1.157206 T    
O12   C8    1.292909 A    
O1    C1    1.290487 A    
C38   C200  1.451270 S    
O14   C6    1.292909 A    
C42   C204  1.451274 S    
C104  C112  1.417366 A    
C241  N65   1.157013 T    
C8    C176  1.485961 S    
C147  C183  1.410322 A    
C99   C111  1.415178 A    
C78   C114  1.406538 A    
C34   C45   1.406072 A    
C158  C170  1.417854 A    
C168  C272  1.451830 S    
C103  N63   1.438443 S    
C139  C243  1.450541 S    
C268  N92   1.157468 T    
C224  N32   1.156793 T    
C148  C252  1.452261 S    
O30   Cu8   1.982736 S    
C267  N91   1.157472 T    
O46   C192  1.303907 A    
C208  N16   1.157205 T    
C45   C207  1.450979 S    
C167  C271  1.452196 S    
C76   C228  1.449691 S    
C131  C179  1.449009 S    
C194  N2    1.157211 T    
C30   C46   1.410321 A    
C129  C177  1.449012 S    
C60   C70   1.428914 A    
N60   O71   1.301106 A    
C58   C70   1.428917 A    
C73   C225  1.448568 S    
C62   C72   1.428916 A    
C204  N12   1.157205 T    
C238  N46   1.157341 T    
C133  C181  1.449005 S    
C198  N6    1.157213 T    
O10   C6    1.292912 A    
N53   O58   1.300868 A    
O18   C10   1.285479 A    
N49   O49   1.301125 A    
C159  C263  1.452193 S    
C144  C248  1.452267 S    
O40   C186  1.303913 A    
C1    C169  1.476448 S    
N57   O66   1.300864 A    
C98   N58   1.437847 S    
C86   C238  1.449690 S    
O33   C185  1.304640 A    
C59   C69   1.417632 A    
C147  C163  1.408917 A    
C80   C116  1.406548 A    
O47   C191  1.304652 A    
C231  N39   1.157048 T    
C145  C161  1.408914 A    
C51   C65   1.417660 A    
O31   Cu7   1.982750 S    
C21   C58   1.419771 A    
C149  C165  1.408914 A    
C95   C105  1.415190 A    
N50   O52   1.300971 A    
C141  C179  1.410327 A    
N60   O72   1.300969 A    
C206  N14   1.157206 T    
C160  C264  1.451832 S    
C164  C268  1.451831 S    
C123  C131  1.205062 T    
C37   C199  1.450974 S    
C12   C69   1.454460 S    
C146  C182  1.406819 A    
C270  N94   1.157471 T    
C201  N9    1.157281 T    
O21   C11   1.291812 A    
O48   C190  1.303908 A    
C24   C40   1.410288 A    
O22   C12   1.285479 A    
C22   C38   1.410310 A    
N56   O63   1.301105 A    
O13   Cu5   1.951663 S    
C23   C215  1.447339 S    
C266  N90   1.157469 T    
C28   C44   1.410320 A    
C82   C98   1.408045 A    
Cu11  Cu12  2.703252 S    
O23   Cu3   1.982750 S    
C214  N22   1.156794 T    
C143  C247  1.450540 S    
O3    Cu3   1.951662 S    
C55   C60   1.402050 A    
C23   C39   1.410090 A    
C153  C257  1.452201 S    
C221  N29   1.156179 T    
C85   C237  1.448563 S    
C86   C102  1.408045 A    
C104  N64   1.437849 S    
C220  N28   1.156793 T    
C105  C188  1.478657 S    
C80   C96   1.408042 A    
C232  N40   1.157340 T    
C209  N17   1.156187 T    
O28   Cu8   1.982738 S    
C84   C236  1.449692 S    
O37   C185  1.304638 A    
C25   C41   1.410092 A    
C236  N44   1.157340 T    
C122  C130  1.202032 T    
C15   C66   1.475772 S    
C24   C216  1.445865 S    
C22   C214  1.445855 S    
N55   O62   1.300865 A    
C160  C172  1.417866 A    
C152  C184  1.406817 A    
N64   O80   1.300967 A    
C31   C47   1.410118 A    
O48   Cu12  1.948499 S    
C21   C213  1.447337 S    
C39   C197  1.450974 S    
O9    Cu5   1.951659 S    
C240  N48   1.157342 T    
O11   Cu7   1.951662 S    
C118  C126  1.444888 S    
N61   O73   1.301122 A    
C164  C176  1.417843 A    
C145  C249  1.450534 S    
C84   C100  1.408049 A    
C217  N25   1.156178 T    
C157  C261  1.452199 S    
N56   O64   1.300970 A    
C85   C119  1.408436 A    
O5    C3    1.290484 A    
C61   C71   1.417630 A    
C102  C110  1.417363 A    
O7    Cu3   1.951659 S    
C230  N38   1.157341 T    
C102  N62   1.437847 S    
O42   C190  1.303907 A    
C38   C41   1.406073 A    
C223  N31   1.156173 T    
C193  N1    1.157277 T    
N54   O60   1.300971 A    
C41   C203  1.450981 S    
C146  C250  1.452264 S    
C229  N37   1.157045 T    
C79   C95   1.409077 A    
C50   C66   1.428919 A    
C226  N34   1.157339 T    
C165  C175  1.411893 A    
N62   O76   1.300968 A    
C219  N27   1.156174 T    
C248  N72   1.157284 T    
O14   Cu8   1.952908 S    
C222  N30   1.156795 T    
C83   C99   1.409070 A    
C49   C62   1.402053 A    
O2    C2    1.292944 A    
C215  N23   1.156187 T    
O16   C8    1.292912 A    
N55   O61   1.301125 A    
C142  C158  1.408316 A    
O43   Cu11  1.949761 S    
C51   C64   1.402051 A    
C262  N86   1.157489 T    
C251  N75   1.157011 T    
N63   O77   1.301125 A    
C75   C91   1.409078 A    
C34   C196  1.451273 S    
C98   C110  1.417364 A    
C141  C245  1.450536 S    
C54   C68   1.428920 A    
O8    C4    1.292924 A    
C73   C89   1.409078 A    
O4    Cu4   1.952905 S    
C95   N55   1.438441 S    
O35   C187  1.304649 A    
N59   O70   1.300867 A    
C125  C133  1.205062 T    
C167  C173  1.411893 A    
C47   C205  1.450989 S    
C43   C201  1.450994 S    
C52   C63   1.402067 A    
N51   O53   1.301122 A    
C46   C208  1.451276 S    
C97   N57   1.438443 S    
C199  N7    1.157277 T    
O37   Cu10  1.949757 S    
N49   O50   1.300863 A    
C218  N26   1.156795 T    
C93   N53   1.438440 S    
C152  C168  1.408339 A    
C97   C109  1.415182 A    
C225  N33   1.157049 T    
O43   C191  1.304654 A    
C32   C48   1.410324 A    
C18   C210  1.445858 S    
Cu5   Cu7   2.663242 S    
O25   Cu5   1.982753 S    
O6    C2    1.292940 A    
Cu6   Cu8   2.661504 S    
C100  N60   1.437845 S    
O27   Cu7   1.982752 S    
C92   C108  1.417362 A    
C87   C239  1.448565 S    
C21   C37   1.410086 A    
C254  N78   1.157287 T    
C216  N24   1.156791 T    
C107  C186  1.478653 S    
O7    C1    1.290484 A    
C207  N15   1.157278 T    
C143  C159  1.408921 A    
C92   N52   1.437848 S    
O39   C187  1.304646 A    
C10   C71   1.454462 S    
C50   C61   1.402048 A    
C155  C171  1.411882 A    
C23   C60   1.419773 A    
O19   C9    1.291809 A    
C156  C260  1.451834 S    
C153  C169  1.411881 A    
C250  N74   1.157287 T    
C246  N70   1.157334 T    
C161  C173  1.411892 A    
C14   C67   1.454462 S    
C152  C256  1.452262 S    
C203  N11   1.157279 T    
O24   C12   1.285458 A    
C77   C229  1.448571 S    
O28   C14   1.285471 A    
O24   Cu2   1.982736 S    
O12   Cu8   1.952905 S    
C55   C67   1.417657 A    
C93   C107  1.415194 A    
C148  C184  1.406820 A    
C25   C54   1.419766 A    
C142  C178  1.406760 A    
C149  C253  1.450532 S    
C6    C174  1.485958 S    
C210  N18   1.156792 T    
C27   C56   1.419788 A    
C140  C180  1.406805 A    
O40   Cu10  1.948499 S    
O44   Cu11  1.948503 S    
C49   C65   1.417656 A    
C29   C50   1.419766 A    
O9    C5    1.290497 A    
C19   C35   1.410089 A    
N58   O67   1.301104 A    
C88   C120  1.406551 A    
O33   Cu9   1.949757 S    
C75   C115  1.408432 A    
C73   C113  1.408431 A    
C132  C180  1.444795 S    
C149  C183  1.410323 A    
N53   O57   1.301124 A    
C79   C231  1.448570 S    
C121  C129  1.205062 T    
C264  N88   1.157465 T    
N57   O65   1.301123 A    
C53   C67   1.417660 A    
O20   Cu4   1.982738 S    
C263  N87   1.157474 T    
C106  C185  1.481119 S    
O20   C10   1.285458 A    
C269  N93   1.157473 T    
O10   Cu6   1.952908 S    
C99   N59   1.438444 S    
C33   C46   1.406068 A    
C151  C255  1.450536 S    
C260  N84   1.157465 T    
C35   C48   1.406072 A    
O15   C5    1.290488 A    
C116  C124  1.444873 S    
C168  C176  1.417844 A    
C259  N83   1.157476 T    
C237  N45   1.157044 T    
C81   C117  1.408435 A    
C239  N47   1.157042 T    
O38   Cu10  1.948503 S    
O39   Cu10  1.949761 S    
O1    Cu1   1.951659 S    
C53   C58   1.402052 A    
C130  C178  1.444827 S    
