data_mof_unit_35339.cif
_audit_creation_date              2012-12-10T16:59:17-0500
_audit_creation_method            fapswitch 2.2
_symmetry_space_group_name_H-M    P1
_symmetry_Int_Tables_number       1
_space_group_crystal_system       triclinic
_cell_length_a                    7.77354
_cell_length_b                    8.578531
_cell_length_c                    26.891589
_cell_angle_alpha                 91.3324
_cell_angle_beta                  85.899728
_cell_angle_gamma                 93.573564
_cell_volume                      1784.89433101

loop_
_atom_site_label
_atom_site_type_symbol
_atom_type_description
_atom_site_fract_x
_atom_site_fract_y
_atom_site_fract_z
_atom_type_partial_charge
C1    C     C_R   0.545692 0.794709 0.498750 0.960399
C2    C     C_R   0.454317 0.205295 0.501260 0.959515
C3    C     C_R   0.227676 0.450229 0.901616 -0.048757
C4    C     C_R   0.221643 0.512566 0.108199 -0.048218
C5    C     C_R   0.204989 0.577886 0.871451 -0.021239
C6    C     C_R   0.196054 0.382621 0.139271 -0.025608
C7    C     C_R   0.152356 0.718297 0.893655 -0.157197
C8    C     C_R   0.145039 0.236369 0.118914 -0.164830
C9    C     C_R   0.295582 0.314063 0.880313 -0.014359
C10   C     C_R   0.290019 0.655621 0.126997 -0.017783
C11   C     C_R   0.494575 0.472409 0.648034 -0.120009
C12   C     C_R   0.486984 0.518018 0.351569 -0.126509
C13   C     C_R   0.198910 0.630631 0.027334 0.045219
C14   C     C_R   0.199445 0.329344 0.983397 0.045199
C15   C     C_R   0.171690 0.345578 0.035700 0.045234
C16   C     C_R   0.173969 0.611566 0.975986 0.045156
C17   C     C_R   0.192134 0.496681 0.057241 0.077653
C18   C     C_R   0.195151 0.462727 0.953690 0.076924
C19   C     C_R   0.249609 0.776440 0.048568 -0.222346
C20   C     C_R   0.250247 0.188867 0.960317 -0.223576
C21   C     C_R   0.301125 0.787869 0.097151 -0.144629
C22   C     C_R   0.303928 0.182814 0.909805 -0.146825
C23   C     C_R   0.501653 0.499373 0.594500 0.896998
C24   C     C_R   0.497498 0.500422 0.405394 0.895823
C25   C     C_R   0.143091 0.736818 0.945456 -0.222999
C26   C     C_R   0.138906 0.216872 0.067395 -0.221327
C27   C     C_2   0.569795 0.958109 0.497988 -0.382125
C28   C     C_2   0.430230 0.041894 0.501970 -0.392191
C29   C     C_R   0.246320 0.564166 0.820094 0.471242
C30   C     C_R   0.232979 0.401153 0.189326 0.470148
C31   C     C_R   0.363208 0.317072 0.830685 0.504723
C32   C     C_R   0.356413 0.658955 0.174045 0.509470
C33   C     C_R   0.328143 0.335205 0.715124 0.178503
C34   C     C_R   0.327658 0.643082 0.290608 0.181702
C35   C     C_R   0.377942 0.351983 0.664883 -0.296653
C36   C     C_R   0.382856 0.634908 0.338328 -0.307081
C37   C     C_R   0.580204 0.572524 0.681979 0.102076
C38   C     C_R   0.556727 0.413855 0.314981 0.106346
C39   C     C_R   0.534714 0.555782 0.733961 0.160434
C40   C     C_R   0.515174 0.429327 0.264551 0.156114
C41   C     C_R   0.401768 0.441246 0.749994 0.235380
C42   C     C_R   0.391286 0.537806 0.253339 0.233565
H1    H     H_    0.333823 0.715005 0.367007 0.169161
H2    H     H_    0.316813 0.275254 0.637773 0.161926
H3    H     H_    0.267248 0.879631 0.026587 0.131317
H4    H     H_    0.265985 0.087423 0.981682 0.131177
H5    H     H_    0.110516 0.848956 0.961260 0.143700
H6    H     H_    0.107205 0.101114 0.052787 0.144705
H7    H     H_    0.701694 0.008943 0.494167 0.182823
H8    H     H_    0.298330 0.991060 0.505776 0.181346
N1    N     N_R   0.334269 0.439516 0.801208 -0.333051
N2    N     N_R   0.323138 0.534101 0.204889 -0.334651
N3    N     N_2   0.950320 0.457960 0.486880 -0.173070
N4    N     N_2   0.049680 0.542040 0.513120 -0.172869
O1    O     O_R   0.389250 0.738570 0.503220 -0.613792
O2    O     O_R   0.610750 0.261430 0.496780 -0.606333
O3    O     O_R   0.678390 0.711630 0.494810 -0.625783
O4    O     O_R   0.321610 0.288370 0.505190 -0.631438
O5    O     O_R   0.355440 0.513440 0.575450 -0.607837
O6    O     O_R   0.644560 0.486560 0.424550 -0.617163
O7    O     O_R   0.644590 0.486500 0.567040 -0.626167
O8    O     O_R   0.355410 0.513500 0.432960 -0.618929
O9    O     O_2   0.209728 0.678744 0.789672 -0.586402
O10   O     O_2   0.190834 0.283665 0.221316 -0.585678
O11   O     O_2   0.458183 0.783110 0.188038 -0.590224
O12   O     O_2   0.460925 0.201258 0.812503 -0.593308
Zn1   Zn    Zn3+2 0.306940 0.517990 0.505620 0.937269
Zn2   Zn    Zn3+2 0.693060 0.482010 0.494380 0.936260
C43   C     C_3   0.707495 0.702675 0.662219 -0.428720
C44   C     C_3   0.614573 0.848557 0.651263 -0.846917
H9    H     H_    0.541712 0.891196 0.685402 0.271870
H10   H     H_    0.710681 0.942417 0.638052 0.251113
H11   H     H_    0.523311 0.823093 0.621776 0.251524
H12   H     H_    0.808631 0.733757 0.688284 0.223093
H13   H     H_    0.781148 0.663936 0.627811 0.215326
C45   C     C_3   0.657908 0.278525 0.330840 -0.410590
C46   C     C_3   0.536485 0.144915 0.351608 -0.843245
H14   H     H_    0.456205 0.184308 0.384753 0.247176
H15   H     H_    0.450323 0.099396 0.322673 0.266174
H16   H     H_    0.613358 0.048421 0.362882 0.249741
H17   H     H_    0.741453 0.230063 0.300115 0.226653
H18   H     H_    0.749882 0.318169 0.358762 0.225150
H19   H     H_    0.012980 0.381459 0.462885 0.191709
H20   H     H_    0.987005 0.618566 0.537104 0.187688
C47   C     C_3   0.625202 0.660264 0.772213 -0.389411
C48   C     C_3   0.790696 0.592183 0.786303 -0.849304
H21   H     H_    0.760728 0.474550 0.802263 0.272977
H22   H     H_    0.883775 0.583964 0.753310 0.278527
H23   H     H_    0.851215 0.668776 0.814870 0.276749
H24   H     H_    0.652855 0.780799 0.758598 0.229076
H25   H     H_    0.545262 0.676564 0.807235 0.226263
C49   C     C_3   0.598090 0.327907 0.223055 -0.374805
C50   C     C_3   0.783612 0.385670 0.208723 -0.869541
H26   H     H_    0.786143 0.505258 0.193606 0.267783
H27   H     H_    0.864188 0.386615 0.241011 0.280021
H28   H     H_    0.839362 0.307026 0.179344 0.274376
H29   H     H_    0.590733 0.203433 0.233806 0.233569
H30   H     H_    0.532784 0.327775 0.188023 0.221467
H31   H     H_    0.130906 0.817589 0.871210 0.185818
H32   H     H_    0.122024 0.134733 0.142183 0.190274
C51   C     C_3   0.194963 0.761706 0.282301 -0.378138
C52   C     C_3   0.018244 0.684367 0.272870 -0.839500
H33   H     H_    0.020410 0.633950 0.234645 0.257854
H34   H     H_    0.980442 0.592136 0.300580 0.265362
H35   H     H_    0.919767 0.773147 0.275950 0.260757
H36   H     H_    0.177078 0.839830 0.315619 0.197327
H37   H     H_    0.238759 0.841077 0.251546 0.254576
C53   C     C_3   0.190163 0.206973 0.729194 -0.382660
C54   C     C_3   0.014788 0.271531 0.743094 -0.841897
H38   H     H_    0.018019 0.339203 0.778588 0.264138
H39   H     H_    0.977833 0.346372 0.712920 0.264957
H40   H     H_    0.915340 0.173504 0.748320 0.265773
H41   H     H_    0.173935 0.123394 0.697384 0.201114
H42   H     H_    0.227501 0.135175 0.759783 0.254008
H43   H     H_    0.351227 0.900022 0.111035 0.183747
H44   H     H_    0.353620 0.075738 0.894108 0.184453

loop_
_geom_bond_atom_site_label_1
_geom_bond_atom_site_label_2
_ccdc_geom_bond_type
C51   H37   S    
C31   O12   S    
C29   O9    S    
C50   H26   S    
C37   C43   S    
C8    C26   A    
C14   C18   A    
C34   C42   A    
C21   H43   S    
N4    H20   S    
C47   H25   S    
C49   H30   S    
C39   C41   A    
C38   C45   S    
C46   H14   S    
C23   O5    A    
C51   C52   S    
C7    H31   S    
O8    Zn1   S    
C3    C18   A    
C19   C21   A    
C8    H32   S    
C30   O10   S    
C54   H39   S    
C48   H22   S    
C9    C22   A    
C16   C25   A    
C53   C54   S    
C52   H35   S    
O2    Zn2   S    
C53   H42   S    
C11   C23   S    
C11   C37   A    
N3    Zn2   S    
C32   N2    A    
O5    Zn1   S    
C28   H8    S    
C44   H9    S    
C12   C36   A    
C25   H5    S    
C26   H6    S    
C22   H44   S    
C50   H27   S    
C52   H33   S    
C33   C53   S    
C49   H29   S    
C5    C29   A    
C46   H15   S    
C10   C21   A    
C34   C51   S    
C44   H10   S    
C13   C19   A    
C14   C20   A    
C45   C46   S    
C4    C6    A    
C54   H40   S    
C45   H18   S    
C5    C7    A    
C48   H21   S    
C15   C26   A    
C6    C8    A    
N4    Zn1   S    
C47   C48   S    
C53   H41   S    
C3    C9    A    
C1    O3    A    
C24   O6    A    
C44   H11   S    
C19   H3    S    
C43   H12   S    
C40   C49   S    
C52   H34   S    
C35   H2    S    
C4    C17   A    
C6    C30   A    
C20   C22   A    
C50   H28   S    
C39   C47   S    
O3    Zn2   S    
C4    C10   A    
C29   N1    A    
C46   H16   S    
C51   H36   S    
C15   C17   A    
C30   N2    A    
C24   O8    A    
C31   N1    A    
C3    C5    A    
C48   H23   S    
C45   H17   S    
O1    Zn1   S    
C47   H24   S    
C2    O4    A    
N3    N4    D    
C12   C24   S    
C7    C25   A    
C13   C17   A    
N3    H19   S    
C33   C41   A    
C11   C35   A    
C1    O1    A    
C37   C39   A    
C2    O2    A    
C54   H38   S    
C38   C40   A    
O7    Zn2   S    
C40   C42   A    
C49   C50   S    
C33   C35   A    
C43   H13   S    
C34   C36   A    
C12   C38   A    
C43   C44   S    
C9    C31   A    
C10   C32   A    
O4    Zn1   S    
C23   O7    A    
O6    Zn2   S    
C16   C18   A    
C13   C16   A    
C27   C28   D    
C1    C27   S    
C14   C15   A    
C36   H1    S    
C2    C28   S    
C41   N1    S    
C20   H4    S    
C27   H7    S    
C42   N2    S    
C32   O11   S    
