data_mof_unit_35120.cif
_audit_creation_date              2012-12-10T17:18:58-0500
_audit_creation_method            fapswitch 2.2
_symmetry_space_group_name_H-M    P1
_symmetry_Int_Tables_number       1
_space_group_crystal_system       triclinic
_cell_length_a                    9.570104
_cell_length_b                    10.837234
_cell_length_c                    13.430532
_cell_angle_alpha                 92.163963
_cell_angle_beta                  72.355846
_cell_angle_gamma                 89.293462
_cell_volume                      1326.0398236

loop_
_atom_site_label
_atom_site_type_symbol
_atom_type_description
_atom_site_fract_x
_atom_site_fract_y
_atom_site_fract_z
_atom_type_partial_charge
C1    C     C_R   0.500141 0.737983 0.495146 0.801698
C2    C     C_R   0.433086 0.476088 0.979333 0.083633
C3    C     C_R   0.471654 0.449771 0.869974 0.079204
C4    C     C_R   0.542000 0.461084 0.030577 0.072877
C5    C     C_R   0.681322 0.407748 0.974801 0.165842
C6    C     C_R   0.709542 0.366929 0.870891 -0.248359
C7    C     C_R   0.605700 0.385978 0.819589 -0.209969
C8    C     C_R   0.517615 0.499839 0.135287 -0.252710
C9    C     C_R   0.760976 0.429041 0.129566 -0.216127
C10   C     C_R   0.373899 0.486790 0.814693 -0.115526
C11   C     C_R   0.236539 0.892839 0.485956 -0.176030
C12   C     C_R   0.421590 0.493654 0.699892 0.802517
C13   C     C_R   0.102521 0.957483 0.517990 -0.254277
C14   C     C_R   0.090001 0.070098 0.573108 -0.195448
C15   C     C_R   0.214227 0.124123 0.588102 0.523813
C16   C     C_R   0.355452 0.067235 0.540327 -0.017303
C17   C     C_R   0.362443 0.942127 0.506093 0.042976
C18   C     C_R   0.495421 0.873302 0.493061 -0.094542
C19   C     C_R   0.623492 0.935689 0.491128 -0.205917
C20   C     C_R   0.621888 0.063005 0.500729 -0.228514
C21   C     C_R   0.489532 0.130168 0.522624 -0.109711
C22   C     C_R   0.915740 0.335896 0.361608 -0.170361
C23   C     C_R   0.496047 0.263449 0.509876 0.812308
C24   C     C_R   0.017171 0.254652 0.294156 -0.226362
C25   C     C_R   0.161064 0.253595 0.294248 -0.201218
C26   C     C_R   0.204395 0.333912 0.361647 -0.137392
C27   C     C_R   0.104554 0.418478 0.432105 0.219807
C28   C     C_R   0.954806 0.418945 0.432056 0.201604
C29   C     C_R   0.897453 0.577193 0.564715 -0.064394
C30   C     C_R   0.045563 0.577205 0.564652 -0.066992
C31   C     C_R   0.578695 0.497401 0.299886 0.774893
C32   C     C_R   0.790152 0.393770 0.024258 -0.202291
C33   C     C_R   0.623145 0.479638 0.185897 -0.043274
C34   C     C_R   0.231041 0.528002 0.870619 -0.204076
C35   C     C_R   0.187031 0.538489 0.978975 -0.162099
C36   C     C_R   0.286886 0.515410 0.033073 -0.182275
Cu1   Cu    Cu3+1 0.359340 0.500010 0.500010 0.953935
Cu2   Cu    Cu3+1 0.640660 0.499990 0.499990 0.923970
H1    H     H_    0.844073 0.412840 0.167506 0.153467
H2    H     H_    0.239981 0.807685 0.441031 0.178964
H3    H     H_    0.007077 0.918112 0.502921 0.155439
H4    H     H_    0.983507 0.115769 0.604537 0.151191
H5    H     H_    0.725118 0.108800 0.489992 0.168707
H6    H     H_    0.818677 0.640473 0.617688 0.143685
H7    H     H_    0.808573 0.329745 0.354725 0.201746
H8    H     H_    0.983643 0.192269 0.241213 0.151550
H9    H     H_    0.240217 0.190261 0.241404 0.153261
H10   H     H_    0.317593 0.325130 0.354251 0.194554
H11   H     H_    0.812840 0.320687 0.828734 0.159438
H12   H     H_    0.077792 0.640494 0.617491 0.137543
H13   H     H_    0.896743 0.353167 0.981998 0.136712
H14   H     H_    0.416524 0.546014 0.179908 0.149557
H15   H     H_    0.153330 0.554062 0.830444 0.161055
H16   H     H_    0.245028 0.526299 0.117044 0.132920
H17   H     H_    0.075808 0.568522 0.021305 0.150695
H18   H     H_    0.631178 0.346961 0.740778 0.176591
H19   H     H_    0.726723 0.886260 0.479353 0.158593
N1    N     N_R   0.852480 0.498790 0.499000 -0.200399
N2    N     N_R   0.148360 0.498710 0.498970 -0.189886
O1    O     O_R   0.381190 0.680360 0.500010 -0.594716
O2    O     O_R   0.618760 0.680340 0.500000 -0.579052
O3    O     O_R   0.323240 0.499990 0.650990 -0.548481
O4    O     O_R   0.560820 0.499960 0.650980 -0.586640
O5    O     O_R   0.381240 0.319660 0.500000 -0.554882
O6    O     O_R   0.618810 0.319640 0.499990 -0.619295
O7    O     O_R   0.439180 0.500040 0.349020 -0.609275
O8    O     O_R   0.676760 0.500010 0.349010 -0.597776
O9    O     O_3   0.193352 0.229632 0.652714 -0.561616
C37   C     C_3   0.215771 0.199300 0.748023 -0.354898
H20   H     H_    0.334199 0.182391 0.737856 0.157101
H21   H     H_    0.150855 0.118283 0.782627 0.153689
H22   H     H_    0.177785 0.278651 0.804811 0.196551

loop_
_geom_bond_atom_site_label_1
_geom_bond_atom_site_label_2
_ccdc_geom_bond_type
C37   H22   S    
C2    C4    A    
C24   C25   A    
C31   C33   S    
C32   H13   S    
C29   C30   A    
C28   N1    A    
C31   O7    A    
C12   O3    A    
C25   H9    S    
C19   C20   A    
Cu2   O6    S    
C26   H10   S    
C14   H4    S    
Cu2   O2    S    
C24   H8    S    
C30   N2    A    
Cu1   O5    S    
C13   H3    S    
C2    C3    A    
C30   H12   S    
C10   C34   A    
C3    C10   A    
C27   N2    A    
C13   C14   A    
C19   H19   S    
C31   O8    A    
C4    C5    A    
C11   C13   A    
C23   O6    A    
C1    C18   S    
Cu1   N2    S    
C10   C12   S    
C7    H18   S    
C9    C33   A    
C5    C6    A    
C15   O9    S    
C23   O5    A    
Cu1   Cu2   S    
C17   C18   A    
C6    C7    A    
C3    C7    A    
C37   H20   S    
C21   C23   S    
C29   H6    S    
C26   C27   A    
C11   H2    S    
C22   C24   A    
Cu1   O1    S    
C36   H16   S    
Cu1   O7    S    
C35   H17   S    
C15   C16   A    
Cu2   O8    S    
C8    H14   S    
C9    H1    S    
C20   H5    S    
C22   H7    S    
C29   N1    A    
C34   H15   S    
C20   C21   A    
C34   C35   A    
C1    O1    A    
C2    C36   A    
C4    C8    A    
C37   H21   S    
C12   O4    A    
Cu1   O3    S    
C14   C15   A    
C18   C19   A    
C22   C28   A    
C8    C33   A    
C9    C32   A    
C25   C26   A    
Cu2   O4    S    
C16   C21   A    
Cu2   N1    S    
O9    C37   S    
C5    C32   A    
C11   C17   A    
C6    H11   S    
C35   C36   A    
C16   C17   A    
C27   C28   A    
C1    O2    A    
