data_mof_unit_26942.cif
_audit_creation_date              2012-12-11T15:44:53-0500
_audit_creation_method            fapswitch 2.2
_symmetry_space_group_name_H-M    P1
_symmetry_Int_Tables_number       1
_space_group_crystal_system       triclinic
_cell_length_a                    19.102325
_cell_length_b                    11.006744
_cell_length_c                    18.811446
_cell_angle_alpha                 90.082695
_cell_angle_beta                  90.166381
_cell_angle_gamma                 90.482562
_cell_volume                      3955.02809599

loop_
_atom_site_label
_atom_site_type_symbol
_atom_type_description
_atom_site_fract_x
_atom_site_fract_y
_atom_site_fract_z
_atom_type_partial_charge
C1    C     C_R   0.760380 0.534539 0.646825 0.546702
C2    C     C_R   0.188274 0.041339 0.540745 -0.160610
C3    C     C_R   0.507984 0.955463 0.962187 0.021278
C4    C     C_R   0.019630 0.235518 0.955820 -0.174351
C5    C     C_R   0.023475 0.232536 0.030295 -0.176536
C6    C     C_R   0.522061 0.737503 0.955627 -0.169046
C7    C     C_R   0.525677 0.733454 0.030078 -0.162143
C8    C     C_3   0.966810 0.557455 0.042869 0.190117
C9    C     C_3   0.969571 0.570956 0.962314 0.163370
C10   C     C_3   0.456285 0.047622 0.045365 0.176546
C11   C     C_3   0.460257 0.064881 0.965337 0.189350
C12   C     C_R   0.759934 0.533578 0.851942 0.537310
C13   C     C_R   0.315790 0.579925 0.453688 -0.169311
C14   C     C_R   0.237993 0.527842 0.146178 0.535986
C15   C     C_R   0.260120 0.033492 0.851441 0.539812
C16   C     C_R   0.738058 0.027823 0.146123 0.533513
C17   C     C_R   0.772440 0.125656 0.852806 0.540223
C18   C     C_R   0.213440 0.162313 0.139140 0.538643
C19   C     C_R   0.272502 0.625257 0.852688 0.542504
C20   C     C_R   0.710075 0.670590 0.139719 0.566939
C21   C     C_R   0.971118 0.348053 0.852810 0.532940
C22   C     C_R   0.032420 0.346467 0.144859 0.548778
C23   C     C_R   0.470943 0.848217 0.853002 0.537320
C24   C     C_R   0.688277 0.541317 0.540747 -0.160678
C25   C     C_R   0.532744 0.846301 0.144754 0.523672
C26   C     C_R   0.750116 0.089694 0.421892 0.006288
C27   C     C_R   0.246008 0.087574 0.578157 0.011104
C28   C     C_R   0.250123 0.589701 0.421889 0.005250
C29   C     C_R   0.746010 0.587566 0.578159 0.011049
C30   C     C_R   0.691450 0.111137 0.464059 0.040114
C31   C     C_R   0.297082 0.153244 0.541998 0.040964
C32   C     C_R   0.191461 0.611234 0.464046 0.039939
C33   C     C_R   0.797087 0.653235 0.542001 0.040934
C34   C     C_R   0.698149 0.119220 0.537687 0.000251
C35   C     C_3   0.648956 0.223676 0.460818 -0.274776
C36   C     C_R   0.291299 0.164849 0.468043 0.020266
C37   C     C_R   0.198159 0.619320 0.537677 0.000116
C38   C     C_R   0.791298 0.664857 0.468048 0.020244
C39   C     C_3   0.864161 0.429661 0.051908 -0.106839
C40   C     C_3   0.005722 0.700808 0.872023 -0.122532
C41   C     C_3   0.379327 0.016854 0.138934 -0.107554
C42   C     C_3   0.493256 0.201788 0.877407 -0.120850
C43   C     C_3   0.306878 0.286966 0.551222 -0.278718
C44   C     C_3   0.149049 0.723865 0.460794 -0.274847
C45   C     C_3   0.806899 0.786954 0.551235 -0.278365
C46   C     C_3   0.657077 0.233133 0.540318 -0.266498
C47   C     C_3   0.298169 0.299465 0.472254 -0.235667
C48   C     C_3   0.157184 0.733336 0.540290 -0.266454
C49   C     C_R   0.239273 0.534737 0.353063 0.537604
C50   C     C_3   0.798170 0.799474 0.472269 -0.236727
C51   C     C_R   0.763014 0.100922 0.570011 0.007083
C52   C     C_R   0.239320 0.101801 0.429783 0.006996
C53   C     C_R   0.263009 0.600914 0.570010 0.007358
C54   C     C_R   0.739314 0.601817 0.429790 0.007478
C55   C     C_R   0.989176 0.330607 0.420375 -0.042153
C56   C     C_R   0.995817 0.343343 0.570616 -0.036129
C57   C     C_R   0.489075 0.830571 0.420300 -0.043023
C58   C     C_R   0.495677 0.843358 0.570543 -0.036078
C59   C     C_R   0.995437 0.106892 0.428029 -0.090698
C60   C     C_R   0.260381 0.034536 0.646821 0.545024
C61   C     C_R   0.017965 0.122852 0.573944 -0.091278
C62   C     C_R   0.495387 0.606876 0.427965 -0.090909
C63   C     C_R   0.517907 0.622866 0.573879 -0.091294
C64   C     C_R   0.004069 0.001809 0.468064 -0.154597
C65   C     C_R   0.016168 0.010154 0.540724 -0.150421
C66   C     C_R   0.504048 0.501803 0.467999 -0.154554
C67   C     C_R   0.516145 0.510160 0.540658 -0.150394
C68   C     C_R   0.003177 0.229889 0.535749 0.006153
C69   C     C_R   0.996383 0.222631 0.460664 0.016053
C70   C     C_R   0.503077 0.729894 0.535685 0.006120
C71   C     C_R   0.739272 0.034736 0.353063 0.538045
C72   C     C_R   0.496293 0.722615 0.460599 0.016446
C73   C     C_R   0.988070 0.450203 0.528191 0.026307
C74   C     C_R   0.972272 0.438418 0.455478 0.012609
C75   C     C_R   0.487854 0.950200 0.528097 0.026312
C76   C     C_R   0.472095 0.938363 0.455373 0.014509
C77   C     C_R   0.775288 0.129576 0.644167 0.547153
C78   C     C_R   0.224867 0.130209 0.356036 0.549316
C79   C     C_R   0.275288 0.629575 0.644167 0.545657
C80   C     C_R   0.724854 0.630240 0.356048 0.555899
C81   C     C_R   0.994896 0.569722 0.555469 -0.069042
C82   C     C_R   0.822001 0.082295 0.526890 -0.150302
C83   C     C_R   0.947422 0.539409 0.417157 -0.068816
C84   C     C_R   0.494639 0.069755 0.555339 -0.069294
C85   C     C_R   0.447268 0.039313 0.416994 -0.069091
C86   C     C_R   0.975201 0.669839 0.515291 -0.141964
C87   C     C_R   0.951461 0.654728 0.446159 -0.118496
C88   C     C_R   0.475023 0.169843 0.515090 -0.141505
C89   C     C_R   0.451334 0.154666 0.445942 -0.117977
C90   C     C_R   0.743652 0.058695 0.071247 0.004520
C91   C     C_R   0.250129 0.073850 0.923704 0.015640
C92   C     C_R   0.243731 0.560045 0.071594 0.012588
C93   C     C_R   0.187112 0.041264 0.467753 -0.155421
C94   C     C_R   0.741928 0.595194 0.918575 0.003776
C95   C     C_R   0.799254 0.009158 0.034172 0.017458
C96   C     C_R   0.218011 0.991781 0.969810 0.046508
C97   C     C_R   0.303661 0.523638 0.036533 0.013694
C98   C     C_R   0.682053 0.555530 0.954892 0.018134
C99   C     C_R   0.803776 0.017250 0.961830 0.023573
C100  C     C_R   0.211977 0.013985 0.040710 0.047658
C101  C     C_R   0.309164 0.531749 0.964292 0.020146
C102  C     C_R   0.671898 0.582584 0.025427 0.004644
C103  C     C_R   0.691184 0.113743 0.957232 -0.166911
C104  C     C_R   0.321993 0.582227 0.526894 -0.150036
C105  C     C_R   0.274751 0.202880 0.025306 -0.118790
C106  C     C_R   0.190113 0.599159 0.955664 -0.165332
C107  C     C_R   0.775415 0.708338 0.025109 -0.107409
C108  C     C_R   0.686376 0.103302 0.031640 -0.157649
C109  C     C_R   0.283692 0.176458 0.952818 -0.153246
C110  C     C_R   0.184465 0.590100 0.030093 -0.149874
C111  C     C_R   0.786115 0.680143 0.952747 -0.151118
C112  C     C_3   0.875861 0.025125 0.045738 -0.279812
C113  C     C_3   0.149813 0.925108 0.966074 -0.251960
C114  C     C_3   0.377770 0.559379 0.049701 -0.276263
C115  C     C_R   0.687114 0.541250 0.467756 -0.155703
C116  C     C_3   0.653672 0.429393 0.963862 -0.256200
C117  C     C_3   0.881536 0.035228 0.965829 -0.264017
C118  C     C_3   0.145160 0.942794 0.045870 -0.262366
C119  C     C_3   0.384232 0.570161 0.969864 -0.249173
C120  C     C_3   0.642929 0.458820 0.041405 -0.262793
C121  C     C_R   0.753018 0.078885 0.922463 0.007824
C122  C     C_R   0.233616 0.125545 0.068355 0.032614
C123  C     C_R   0.254917 0.579243 0.922988 0.009697
C124  C     C_R   0.720414 0.652353 0.063321 0.013786
C125  C     C_R   0.970538 0.347150 0.645682 0.531898
C126  C     C_R   0.815790 0.079975 0.453683 -0.168540
C127  C     C_R   0.026390 0.344210 0.351524 0.535474
C128  C     C_R   0.470496 0.847157 0.645651 0.532193
C129  C     C_R   0.526361 0.844204 0.351494 0.530592
C130  C     C_R   0.015528 0.339798 0.069943 0.000800
C131  C     C_R   0.006582 0.346145 0.921062 -0.012860
C132  C     C_R   0.513820 0.838976 0.070388 0.024115
C133  C     C_R   0.505712 0.847371 0.921738 -0.010460
C134  C     C_R   0.011791 0.448347 0.033215 -0.007700
C135  C     C_R   0.012180 0.454675 0.960634 0.008384
C136  C     C_R   0.507320 0.948065 0.034705 0.024278
Cr1   Cr    Cr6+3 0.885860 0.491680 0.749630 0.987075
Cr2   Cr    Cr6+3 0.112430 0.179310 0.249850 0.996580
Cr3   Cr    Cr6+3 0.387570 0.679310 0.750150 0.998441
Cr4   Cr    Cr6+3 0.612430 0.679310 0.249850 0.995385
Cr5   Cr    Cr6+3 0.114140 0.491680 0.250370 1.014085
Cr6   Cr    Cr6+3 0.385860 0.991680 0.749630 0.988603
Cr7   Cr    Cr6+3 0.614140 0.991680 0.250370 0.996893
Cr8   Cr    Cr6+3 0.730490 0.332970 0.748720 0.990576
Cr9   Cr    Cr6+3 0.269510 0.332970 0.251280 0.984976
Cr10  Cr    Cr6+3 0.230490 0.832970 0.748720 0.991663
Cr11  Cr    Cr6+3 0.769510 0.832970 0.251280 1.013949
Cr12  Cr    Cr6+3 0.887570 0.179310 0.750150 0.996097
H1    H     H_    0.873626 0.072364 0.549537 0.168330
H2    H     H_    0.297434 0.284977 0.047074 0.142354
H3    H     H_    0.145671 0.627845 0.924479 0.158531
H4    H     H_    0.812877 0.766236 0.052194 0.162972
H5    H     H_    0.639001 0.132456 0.057894 0.152573
H6    H     H_    0.314304 0.237138 0.919703 0.121269
H7    H     H_    0.134532 0.607942 0.054867 0.148066
H8    H     H_    0.831253 0.717564 0.925623 0.123935
H9    H     H_    0.900700 0.941939 0.067307 0.152311
H10   H     H_    0.156190 0.829664 0.949859 0.168932
H11   H     H_    0.408903 0.483661 0.072232 0.142772
H12   H     H_    0.142896 0.999023 0.441380 0.155225
H13   H     H_    0.694433 0.359703 0.955276 0.152214
H14   H     H_    0.889077 0.110904 0.074252 0.129875
H15   H     H_    0.109258 0.975930 0.936099 0.133968
H16   H     H_    0.382925 0.647770 0.078062 0.150572
H17   H     H_    0.603895 0.414915 0.934245 0.148972
H18   H     H_    0.896961 0.127579 0.948207 0.164208
H19   H     H_    0.099764 0.996753 0.062668 0.141932
H20   H     H_    0.391378 0.665405 0.951926 0.174034
H21   H     H_    0.586851 0.459663 0.056707 0.137428
H22   H     H_    0.910675 0.959090 0.941100 0.146645
H23   H     H_    0.373610 0.572225 0.549547 0.168309
H24   H     H_    0.152219 0.856973 0.076065 0.146315
H25   H     H_    0.420266 0.502516 0.946149 0.141554
H26   H     H_    0.677168 0.405072 0.077235 0.147611
H27   H     H_    0.019748 0.150797 0.926500 0.124609
H28   H     H_    0.028826 0.146743 0.056950 0.129365
H29   H     H_    0.524926 0.653593 0.925678 0.129168
H30   H     H_    0.535078 0.647866 0.056123 0.136926
H31   H     H_    0.995267 0.631075 0.071768 0.163243
H32   H     H_    0.917179 0.565774 0.936669 0.151373
H33   H     H_    0.477337 0.126261 0.076569 0.135564
H34   H     H_    0.642899 0.499009 0.441382 0.155080
H35   H     H_    0.408560 0.053113 0.938713 0.172756
H36   H     H_    0.861210 0.060116 0.421962 0.136296
H37   H     H_    0.146647 0.994570 0.567951 0.143629
H38   H     H_    0.361204 0.560011 0.421973 0.135950
H39   H     H_    0.646644 0.494563 0.567952 0.143673
H40   H     H_    0.094894 0.704971 0.442621 0.159516
H41   H     H_    0.860230 0.811140 0.570447 0.140368
H42   H     H_    0.594818 0.204660 0.442636 0.159375
H43   H     H_    0.360201 0.311176 0.570450 0.140181
H44   H     H_    0.676086 0.297050 0.430997 0.132885
H45   H     H_    0.979107 0.759270 0.537752 0.092670
H46   H     H_    0.263912 0.329931 0.581883 0.135522
H47   H     H_    0.176233 0.797163 0.430960 0.131877
H48   H     H_    0.763946 0.829925 0.581912 0.136085
H49   H     H_    0.691079 0.309377 0.557142 0.174889
H50   H     H_    0.248458 0.344877 0.457629 0.158596
H51   H     H_    0.191262 0.809489 0.557098 0.175006
H52   H     H_    0.748454 0.844889 0.457662 0.157646
H53   H     H_    0.607829 0.223600 0.570570 0.122310
H54   H     H_    0.345346 0.335464 0.445360 0.146445
H55   H     H_    0.107934 0.723952 0.570554 0.122044
H56   H     H_    0.938365 0.732177 0.413821 0.099119
H57   H     H_    0.845337 0.835486 0.445364 0.146433
H58   H     H_    0.003305 0.914162 0.442165 0.101686
H59   H     H_    0.026923 0.930069 0.571765 0.093684
H60   H     H_    0.503302 0.414154 0.442099 0.101140
H61   H     H_    0.526909 0.430067 0.571695 0.093858
H62   H     H_    0.983884 0.095705 0.372099 0.129358
H63   H     H_    0.032673 0.124929 0.629456 0.130129
H64   H     H_    0.483842 0.595683 0.372033 0.128062
H65   H     H_    0.532620 0.624951 0.629389 0.130615
H66   H     H_    0.928735 0.529926 0.362962 0.131368
H67   H     H_    0.478963 0.259309 0.537506 0.092643
H68   H     H_    0.018343 0.588398 0.606665 0.130953
H69   H     H_    0.428628 0.029774 0.362780 0.117097
H70   H     H_    0.518057 0.088513 0.606535 0.131504
H71   H     H_    0.879435 0.355898 0.088747 0.125035
H72   H     H_    0.873019 0.402095 0.995926 0.092213
H73   H     H_    0.807016 0.441336 0.058122 0.147322
H74   H     H_    0.950573 0.705879 0.853088 0.123811
H75   H     H_    0.035907 0.633424 0.840928 0.149901
H76   H     H_    0.030203 0.791054 0.862506 0.117951
H77   H     H_    0.386132 0.113144 0.155756 0.130748
H78   H     H_    0.438294 0.232089 0.413555 0.096297
H79   H     H_    0.413944 0.957108 0.170043 0.128687
H80   H     H_    0.325240 0.987794 0.152034 0.159676
H81   H     H_    0.438950 0.197082 0.855960 0.132186
H82   H     H_    0.528883 0.141351 0.847405 0.149632
H83   H     H_    0.512197 0.296270 0.869461 0.111287
H84   H     H_    0.649157 0.156477 0.928049 0.154835
O1    O     O_R   0.957020 0.451640 0.669920 -0.528565
O2    O     O_R   0.168040 0.093290 0.169870 -0.524563
O3    O     O_R   0.331960 0.593290 0.830130 -0.522144
O4    O     O_R   0.668040 0.593290 0.169870 -0.521522
O5    O     O_R   0.945600 0.250580 0.824860 -0.508207
O6    O     O_R   0.054400 0.250580 0.175140 -0.524679
O7    O     O_R   0.445600 0.750580 0.824860 -0.507054
O8    O     O_R   0.554400 0.750580 0.175140 -0.525997
O9    O     O_3   0.834640 0.334650 0.749500 -0.239508
O10   O     O_3   0.165360 0.334650 0.250500 -0.258255
O11   O     O_3   0.334640 0.834650 0.749500 -0.238335
O12   O     O_R   0.042980 0.451640 0.330080 -0.511537
O13   O     O_3   0.665360 0.834650 0.250500 -0.267125
O14   O     O_R   0.821450 0.543440 0.674610 -0.489515
O15   O     O_R   0.178550 0.543440 0.325390 -0.490556
O16   O     O_R   0.321450 0.043440 0.674610 -0.490922
O17   O     O_R   0.678550 0.043440 0.325390 -0.489442
O18   O     O_R   0.715320 0.458650 0.668100 -0.543584
O19   O     O_R   0.284680 0.458650 0.331900 -0.537857
O20   O     O_R   0.215320 0.958650 0.668100 -0.544702
O21   O     O_R   0.784680 0.958650 0.331900 -0.538413
O22   O     O_R   0.737170 0.209590 0.674530 -0.503946
O23   O     O_R   0.457020 0.951640 0.669920 -0.528511
O24   O     O_R   0.262830 0.209590 0.325470 -0.503410
O25   O     O_R   0.237170 0.709590 0.674530 -0.505343
O26   O     O_R   0.762830 0.709590 0.325470 -0.497560
O27   O     O_R   0.832710 0.092740 0.669580 -0.528561
O28   O     O_R   0.167290 0.092740 0.330420 -0.522353
O29   O     O_R   0.332710 0.592740 0.669580 -0.529503
O30   O     O_R   0.667290 0.592740 0.330420 -0.522881
O31   O     O_R   0.946290 0.250060 0.676040 -0.504824
O32   O     O_R   0.053710 0.250060 0.323960 -0.506695
O33   O     O_R   0.446290 0.750060 0.676040 -0.505108
O34   O     O_R   0.542980 0.951640 0.330080 -0.516022
O35   O     O_R   0.553710 0.750060 0.323960 -0.506539
O36   O     O_R   0.956270 0.452200 0.830470 -0.548041
O37   O     O_R   0.043730 0.452200 0.169530 -0.513639
O38   O     O_R   0.456270 0.952200 0.830470 -0.549171
O39   O     O_R   0.543730 0.952200 0.169530 -0.540913
O40   O     O_R   0.820760 0.543950 0.823440 -0.521673
O41   O     O_R   0.179240 0.543950 0.176560 -0.513989
O42   O     O_R   0.320760 0.043950 0.823440 -0.523540
O43   O     O_R   0.679240 0.043950 0.176560 -0.510312
O44   O     O_R   0.714570 0.459210 0.828640 -0.520379
O45   O     O_R   0.736470 0.210100 0.823360 -0.511819
O46   O     O_R   0.285430 0.459210 0.171360 -0.525336
O47   O     O_R   0.214570 0.959210 0.828640 -0.521954
O48   O     O_R   0.785430 0.959210 0.171360 -0.525848
O49   O     O_3   0.898061 0.540004 0.071261 -0.575784
O50   O     O_3   0.010066 0.675207 0.945190 -0.619194
O51   O     O_3   0.389510 0.002405 0.065211 -0.598993
O52   O     O_3   0.496059 0.175206 0.950525 -0.618218
O53   O     O_R   0.263530 0.210100 0.176640 -0.520717
O54   O     O_R   0.236470 0.710100 0.823360 -0.507868
O55   O     O_R   0.763530 0.710100 0.176640 -0.482433
O56   O     O_R   0.831960 0.093290 0.830130 -0.521436

loop_
_geom_bond_atom_site_label_1
_geom_bond_atom_site_label_2
_ccdc_geom_bond_type
C35   H44   S    
C33   C45   S    
C74   C83   A    
C90   C95   A    
C48   H55   S    
C43   H46   S    
C57   C76   A    
C86   H45   S    
C95   C99   A    
C81   H68   S    
C29   C33   A    
C94   C111  A    
Cr4   O8    S    
C128  O23   A    
C36   C47   S    
C26   C126  A    
C91   C96   A    
C55   C74   A    
C117  H22   S    
C108  H5    S    
C20   O4    A    
C128  O33   A    
C47   H50   S    
C106  H3    S    
C81   C86   A    
C59   H62   S    
C99   C121  A    
Cr1   O9    S    
C42   H83   S    
C14   O46   A    
C22   C130  S    
C26   C71   S    
C130  C134  A    
C11   O52   S    
C16   O43   A    
C73   C81   A    
Cr2   O28   S    
C48   H51   S    
C27   C31   A    
C28   C32   A    
C30   C34   A    
C58   C70   A    
C98   C102  A    
C75   C76   A    
Cr6   O38   S    
C117  H18   S    
C1    C29   S    
Cr4   O35   S    
C109  H6    S    
C7    C132  A    
C84   H70   S    
C18   C122  S    
C104  H23   S    
C5    C130  A    
C35   H42   S    
C6    H29   S    
Cr3   O3    S    
C5    H28   S    
C103  C121  A    
C87   H56   S    
C56   C73   A    
Cr7   O17   S    
C84   C88   A    
C4    C5    A    
C18   O2    A    
C6    C7    A    
Cr5   O10   S    
Cr8   O44   S    
Cr11  O26   S    
C16   O48   A    
C45   C50   S    
C67   H61   S    
C3    C11   S    
C15   C91   S    
C42   H81   S    
C61   C65   A    
C88   C89   A    
Cr12  O56   S    
C62   H64   S    
C31   C36   A    
C43   C47   S    
C76   C85   A    
C71   O17   A    
C129  O34   A    
C44   C48   S    
C21   O5    A    
C23   O38   A    
C58   C128  S    
Cr5   O41   S    
C89   H78   S    
C40   O50   S    
C34   C51   A    
C31   C43   S    
C24   H39   S    
Cr7   O39   S    
C39   H71   S    
C120  H21   S    
C113  H15   S    
C53   C104  A    
C118  H19   S    
C127  O32   A    
C3    C136  A    
C110  H7    S    
C46   H53   S    
C82   C126  A    
C4    H27   S    
Cr9   O24   S    
Cr8   O45   S    
C34   C46   S    
Cr3   O11   S    
C114  C119  S    
C36   C52   A    
Cr11  O55   S    
C45   H48   S    
C66   C67   A    
Cr3   O33   S    
C41   H80   S    
Cr4   O30   S    
C92   C97   A    
Cr5   O12   S    
C62   C66   A    
C40   H75   S    
C8    C134  S    
C79   O25   A    
C116  H13   S    
C80   O30   A    
C56   C68   A    
Cr8   O22   S    
Cr11  O21   S    
C116  C120  S    
C47   H54   S    
C99   C117  S    
C28   C49   S    
C114  H16   S    
C132  C136  A    
C52   C93   A    
C55   C69   A    
C32   C37   A    
C25   O39   A    
C9    C135  S    
C22   O37   A    
C120  H26   S    
C55   C127  S    
C26   C30   A    
Cr3   O29   S    
C83   H66   S    
C105  C109  A    
C107  C111  A    
Cr9   O19   S    
Cr2   O32   S    
C134  C135  A    
C65   H59   S    
C15   O47   A    
C2    H37   S    
C90   C108  A    
Cr9   O10   S    
C92   C110  A    
C96   C100  A    
Cr5   O15   S    
C9    O50   S    
C20   C124  S    
C82   H1    S    
C10   C11   S    
C77   O27   A    
C78   O28   A    
C33   C38   A    
C97   C114  S    
C25   C132  S    
C17   O45   A    
C83   C87   A    
C16   C90   S    
C88   H67   S    
C73   C74   A    
C115  H34   S    
Cr11  O48   S    
C105  H2    S    
C107  C124  A    
C6    C133  A    
C95   C112  S    
C112  C117  S    
Cr1   O36   S    
C102  C124  A    
C94   C98   A    
C24   C29   A    
C71   O21   A    
C21   O36   A    
C68   C69   A    
C13   C28   A    
C2    C27   A    
Cr5   O37   S    
Cr9   O53   S    
C27   C60   S    
Cr7   O43   S    
C12   C94   S    
C52   C78   S    
C54   C80   S    
C41   H77   S    
C112  H9    S    
C127  O12   A    
Cr12  O5    S    
C17   O56   A    
C85   C89   A    
C86   C87   A    
C46   H49   S    
C19   O54   A    
C64   H58   S    
C7    H30   S    
C40   H74   S    
C20   O55   A    
C10   O51   S    
C93   H12   S    
C51   C77   S    
C66   H60   S    
C38   C54   A    
C118  H24   S    
C19   C123  S    
C54   C115  A    
C125  O31   A    
C56   C125  S    
C13   C104  A    
C49   O15   A    
C42   H82   S    
C17   C121  S    
C79   O29   A    
C116  H17   S    
Cr2   O2    S    
C100  C118  S    
Cr12  O27   S    
C102  C120  S    
Cr8   O18   S    
C44   H47   S    
C13   H38   S    
C12   O40   A    
C19   O3    A    
C42   O52   S    
Cr7   O34   S    
C78   O24   A    
C64   C65   A    
C119  H25   S    
C8    H31   S    
C57   C72   A    
C75   C84   A    
C49   O19   A    
Cr10  O20   S    
Cr4   O4    S    
C10   H33   S    
C39   H73   S    
C35   C46   S    
C119  H20   S    
C22   O6    A    
C41   H79   S    
Cr1   O14   S    
C126  H36   S    
Cr9   O46   S    
C14   O41   A    
C12   O44   A    
C18   O53   A    
C59   C64   A    
C101  C123  A    
C30   C35   S    
C40   H76   S    
C57   C129  S    
C53   C79   S    
C10   C136  S    
C131  C135  A    
C1    O14   A    
Cr6   O11   S    
C23   O7    A    
C61   H63   S    
C85   H69   S    
C8    C9    S    
Cr10  O11   S    
C105  C122  A    
C103  C108  A    
C113  H10   S    
C111  H8    S    
Cr6   O42   S    
C129  O35   A    
C43   H43   S    
Cr8   O9    S    
Cr1   O40   S    
C58   C75   A    
C4    C131  A    
C63   C67   A    
C23   C133  S    
Cr3   O7    S    
Cr4   O13   S    
C101  C119  S    
C39   H72   S    
C11   H35   S    
C50   H52   S    
C1    O18   A    
C25   O8    A    
Cr6   O23   S    
Cr7   O13   S    
C3    C133  A    
C106  C123  A    
C15   O42   A    
Cr10  O54   S    
C98   C116  S    
C63   C70   A    
C32   C44   S    
C62   C72   A    
C63   H65   S    
C37   C48   S    
C51   C82   A    
C14   C92   S    
C9    H32   S    
C44   H40   S    
C107  H4    S    
C45   H41   S    
C59   C69   A    
C60   O16   A    
Cr6   O16   S    
Cr12  O9    S    
Cr1   O1    S    
Cr10  O47   S    
C106  C110  A    
C103  H84   S    
C2    C93   A    
C77   O22   A    
C41   O51   S    
Cr2   O10   S    
C38   C50   S    
C112  H14   S    
C91   C109  A    
C37   C53   A    
C8    O49   S    
C61   C68   A    
C39   O49   S    
C21   C131  S    
Cr2   O6    S    
C100  C122  A    
Cr12  O31   S    
C96   C113  S    
C114  H11   S    
C125  O1    A    
C113  C118  S    
C50   H57   S    
C80   O26   A    
Cr11  O13   S    
C24   C115  A    
C60   O20   A    
Cr10  O25   S    
C70   C72   A    
C97   C101  A    
