data_mof_unit_34717.cif
_audit_creation_date              2012-12-10T17:25:14-0500
_audit_creation_method            fapswitch 2.2
_symmetry_space_group_name_H-M    P1
_symmetry_Int_Tables_number       1
_space_group_crystal_system       triclinic
_cell_length_a                    27.726058
_cell_length_b                    10.839187
_cell_length_c                    9.664524
_cell_angle_alpha                 91.331211
_cell_angle_beta                  91.229314
_cell_angle_gamma                 95.384369
_cell_volume                      2890.04819575

loop_
_atom_site_label
_atom_site_type_symbol
_atom_type_description
_atom_site_fract_x
_atom_site_fract_y
_atom_site_fract_z
_atom_type_partial_charge
Br1   Br    Br    0.989968 0.692137 0.803100 -0.430759
Br2   Br    Br    0.663090 0.727444 0.608899 -0.331044
Br3   Br    Br    0.874952 0.632023 0.867117 -0.351231
Br4   Br    Br    0.543340 0.150939 0.048817 -0.451387
Br5   Br    Br    0.446513 0.848601 0.224663 -0.560765
Br6   Br    Br    0.594998 0.733747 0.307726 -0.370929
Br7   Br    Br    0.614430 0.917059 0.826605 -0.308538
Br8   Br    Br    0.615160 0.232395 0.371081 -0.349599
Br9   Br    Br    0.730332 0.178478 0.422886 -0.256489
C1    C     C_R   0.501945 0.262740 0.499572 0.793725
C2    C     C_R   0.970242 0.411723 0.360516 0.059222
C3    C     C_R   0.975689 0.484198 0.604606 -0.038005
C4    C     C_R   0.407706 0.497556 0.498643 0.800896
C5    C     C_R   0.947467 0.443865 0.485215 -0.014974
C6    C     C_R   0.940771 0.395839 0.237424 0.088423
C7    C     C_R   0.889779 0.383967 0.244539 0.141713
C8    C     C_R   0.867216 0.408011 0.370518 -0.025313
C9    C     C_R   0.896238 0.441864 0.489697 -0.127546
C10   C     C_R   0.874019 0.476063 0.613564 -0.132000
C11   C     C_R   0.823193 0.455329 0.620938 0.625429
C12   C     C_R   0.279714 0.366646 0.556428 0.201665
C13   C     C_R   0.816361 0.409083 0.379038 0.647924
C14   C     C_R   0.709619 0.339950 0.464165 0.334981
C15   C     C_R   0.660084 0.359846 0.454749 0.132548
C16   C     C_R   0.494388 0.735706 0.501508 0.878851
C17   C     C_R   0.679096 0.568286 0.550780 0.242314
C18   C     C_R   0.728085 0.550999 0.550381 -0.138170
C19   C     C_R   0.743935 0.437776 0.508376 0.140919
C20   C     C_R   0.021648 0.404282 0.363031 0.088150
C21   C     C_R   0.049050 0.436474 0.486802 0.014580
C22   C     C_R   0.025746 0.467158 0.610130 0.081374
C23   C     C_R   0.253031 0.453450 0.489485 0.278364
C24   C     C_R   0.046648 0.356322 0.250339 -0.162349
C25   C     C_R   0.103274 0.473903 0.736143 -0.183869
C26   C     C_R   0.953526 0.552152 0.708546 0.253363
C27   C     C_R   0.902937 0.539985 0.719717 0.235823
C28   C     C_R   0.592098 0.492837 0.500994 0.918158
C29   C     C_R   0.052786 0.468462 0.736944 0.178828
C30   C     C_R   0.532443 0.123672 0.750236 0.191269
C31   C     C_R   0.519598 0.072973 0.877861 0.295693
C32   C     C_R   0.491119 0.960682 0.881336 -0.227024
C33   C     C_R   0.480130 0.891386 0.760159 -0.191796
C34   C     C_R   0.100237 0.433979 0.488874 -0.050522
C35   C     C_R   0.493696 0.939575 0.631126 0.046148
C36   C     C_R   0.511377 0.065513 0.625975 0.030113
C37   C     C_R   0.503422 0.127966 0.500702 -0.119807
C38   C     C_R   0.485871 0.059725 0.382189 -0.141173
C39   C     C_R   0.478550 0.931367 0.383382 0.253798
C40   C     C_R   0.175178 0.406699 0.371261 0.542996
C41   C     C_R   0.487159 0.869116 0.506069 -0.152264
C42   C     C_R   0.556187 0.703722 0.141243 0.278755
C43   C     C_R   0.572957 0.803859 0.061833 -0.198802
C44   C     C_R   0.577763 0.789008 0.922596 0.242319
C45   C     C_R   0.124295 0.401752 0.368597 -0.002687
C46   C     C_R   0.558413 0.680527 0.857362 -0.161717
C47   C     C_R   0.528819 0.590328 0.927508 0.058117
C48   C     C_R   0.528571 0.594581 0.077482 0.156400
C49   C     C_R   0.472182 0.414760 0.070137 -0.025250
C50   C     C_R   0.471427 0.415693 0.922468 0.270332
C51   C     C_R   0.178121 0.469165 0.609677 0.545309
C52   C     C_R   0.277427 0.554223 0.423911 -0.155972
C53   C     C_R   0.328251 0.570741 0.425622 0.118479
C54   C     C_R   0.330241 0.384420 0.560613 -0.221322
C55   C     C_R   0.096958 0.360188 0.250877 -0.167317
C56   C     C_R   0.127380 0.461677 0.612100 -0.045423
C57   C     C_R   0.354652 0.485481 0.495565 -0.087025
C58   C     C_R   0.644290 0.473668 0.502365 -0.218118
Cu1   Cu    Cu3+1 0.500000 0.499990 0.640660 0.962040
Cu2   Cu    Cu3+1 0.500000 0.500010 0.359340 1.050379
H1    H     H_    0.350632 0.317545 0.612274 0.171082
H2    H     H_    0.566503 0.672197 0.751051 0.247733
H3    H     H_    0.114235 0.326449 0.159784 0.186287
H4    H     H_    0.028474 0.308986 0.162321 0.179576
H5    H     H_    0.036885 0.361226 0.900270 0.216983
H6    H     H_    0.044320 0.513929 0.938937 0.266746
H7    H     H_    0.561966 0.299785 0.796075 0.266564
H8    H     H_    0.583177 0.237403 0.648774 0.239080
H9    H     H_    0.233650 0.210643 0.541960 0.231519
H10   H     H_    0.234857 0.285639 0.697847 0.258886
H11   H     H_    0.446243 0.238601 0.876151 0.204180
H12   H     H_    0.256557 0.620344 0.372879 0.152638
H13   H     H_    0.403767 0.340217 0.875173 0.206924
H14   H     H_    0.868019 0.412710 0.045939 0.269533
H15   H     H_    0.870200 0.261381 0.086482 0.237529
H16   H     H_    0.951118 0.328187 0.043050 0.225090
H17   H     H_    0.949783 0.484817 0.055845 0.279362
H18   H     H_    0.328539 0.725140 0.306911 0.243225
H19   H     H_    0.369423 0.733973 0.437980 0.217241
H20   H     H_    0.123279 0.481095 0.834053 0.190755
H21   H     H_    0.754417 0.627121 0.582232 0.210323
H22   H     H_    0.475856 0.106331 0.289451 0.201493
H23   H     H_    0.480851 0.922107 0.978696 0.223335
H24   H     H_    0.459063 0.802891 0.768568 0.188777
H25   H     H_    0.449281 0.344922 0.122274 0.134369
H26   H     H_    0.589706 0.889669 0.109108 0.253821
N1    N     N_R   0.200992 0.442010 0.490247 -0.465672
N2    N     N_3   0.961901 0.407513 0.103689 -0.606992
N3    N     N_3   0.353166 0.674882 0.359813 -0.516678
N4    N     N_R   0.795444 0.427676 0.503753 -0.457405
N5    N     N_R   0.500460 0.501210 0.147910 -0.183330
N6    N     N_R   0.500480 0.501290 0.852040 -0.189839
N7    N     N_3   0.029077 0.448061 0.865869 -0.570069
N8    N     N_3   0.572281 0.218816 0.749204 -0.473197
N9    N     N_3   0.256303 0.258307 0.617285 -0.573032
N10   N     N_3   0.439100 0.327229 0.846318 -0.531258
N11   N     N_3   0.860953 0.347551 0.122461 -0.463946
O1    O     O_R   0.500000 0.319640 0.618810 -0.588870
O2    O     O_R   0.569730 0.499970 0.618800 -0.611277
O3    O     O_R   0.569740 0.499990 0.381230 -0.508004
O4    O     O_2   0.198644 0.376704 0.256139 -0.524680
O5    O     O_2   0.787937 0.395455 0.263612 -0.430460
O6    O     O_2   0.204423 0.504584 0.725379 -0.528553
O7    O     O_2   0.801299 0.461708 0.743749 -0.444537
O8    O     O_R   0.500000 0.319660 0.381240 -0.557763
O9    O     O_R   0.430260 0.500010 0.618770 -0.567372
O10   O     O_R   0.430270 0.500030 0.381200 -0.551834
O11   O     O_R   0.500000 0.680340 0.618760 -0.620462
O12   O     O_R   0.500000 0.680360 0.381190 -0.518034

loop_
_geom_bond_atom_site_label_1
_geom_bond_atom_site_label_2
_ccdc_geom_bond_type
C46   C47   A    
Cu2   O10   S    
C33   H24   S    
C32   C33   A    
C5    C9    A    
C26   C27   A    
C16   O12   A    
C36   C37   A    
C35   C36   A    
C17   C18   A    
C50   N10   S    
C43   H26   S    
C17   C58   A    
C23   C52   A    
C10   C27   A    
C21   C22   A    
C2    C5    A    
C6    C7    A    
C20   C24   A    
Cu2   O12   S    
C47   C48   A    
C18   H21   S    
C9    C10   A    
H13   N10   S    
H17   N2    S    
C16   C41   S    
C15   C58   A    
C53   N3    S    
C12   N9    S    
Cu2   O3    S    
Br4   C31   S    
Cu1   Cu2   S    
C1    C37   S    
H6    N7    S    
H15   N11   S    
C14   C15   A    
C42   C48   A    
Cu1   O1    S    
Br6   C42   S    
C28   O3    A    
C1    O8    A    
C7    N11   S    
C30   C36   A    
H18   N3    S    
H7    N8    S    
C39   C41   A    
C54   C57   A    
C1    O1    A    
C52   C53   A    
C33   C35   A    
C6    N2    S    
C25   C56   A    
C12   C23   A    
C4    C57   S    
C44   C46   A    
Br5   C39   S    
Cu2   O8    S    
C53   C57   A    
H9    N9    S    
C42   C43   A    
C50   N6    A    
C49   N5    A    
Cu1   N6    S    
C28   O2    A    
C30   C31   A    
Br9   C14   S    
C49   C50   A    
C48   N5    A    
H11   N10   S    
C20   C21   A    
C51   O6    S    
Cu1   O11   S    
C34   C45   A    
C38   C39   A    
C54   H1    S    
C34   C56   A    
C8    C9    A    
Br2   C17   S    
C14   C19   A    
C3    C26   A    
C4    O9    A    
C51   N1    A    
C19   N4    S    
C24   H4    S    
C31   C32   A    
C23   N1    S    
C3    C5    A    
C51   C56   A    
C2    C6    A    
C3    C22   A    
H10   N9    S    
H8    N8    S    
Br7   C44   S    
C43   C44   A    
Br1   C26   S    
C35   C41   A    
C37   C38   A    
C13   N4    A    
C25   C29   A    
C38   H22   S    
C16   O11   A    
C47   N6    A    
H14   N11   S    
C30   N8    S    
C8    C13   A    
C22   C29   A    
H5    N7    S    
C10   C11   A    
C49   H25   S    
C25   H20   S    
C29   N7    S    
C52   H12   S    
C7    C8    A    
C11   N4    A    
C45   C55   A    
Br3   C27   S    
C24   C55   A    
C28   C58   S    
Br8   C15   S    
C55   H3    S    
C40   N1    A    
C11   O7    S    
C21   C34   A    
C46   H2    S    
C12   C54   A    
C4    O10   A    
H16   N2    S    
Cu1   O9    S    
Cu2   N5    S    
C32   H23   S    
C2    C20   A    
C13   O5    S    
C18   C19   A    
Cu1   O2    S    
H19   N3    S    
C40   C45   A    
C40   O4    S    
