data_mof_unit_47339.cif
_audit_creation_date              2012-12-10T17:07:09-0500
_audit_creation_method            fapswitch 2.2
_symmetry_space_group_name_H-M    P1
_symmetry_Int_Tables_number       1
_space_group_crystal_system       triclinic
_cell_length_a                    10.283808
_cell_length_b                    10.731955
_cell_length_c                    13.584121
_cell_angle_alpha                 92.08866
_cell_angle_beta                  82.179812
_cell_angle_gamma                 87.810752
_cell_volume                      1482.87588994

loop_
_atom_site_label
_atom_site_type_symbol
_atom_type_description
_atom_site_fract_x
_atom_site_fract_y
_atom_site_fract_z
_atom_type_partial_charge
C1    C     C_R   0.496286 0.736033 0.501962 0.797130
C2    C     C_R   0.502389 0.264991 0.504710 0.753232
C3    C     C_R   0.524347 0.500898 0.314880 0.915061
C4    C     C_1   0.542470 0.509420 0.211017 -0.181517
C5    C     C_2   0.555216 0.527635 0.018964 0.404874
C6    C     C_2   0.440317 0.540731 0.983356 0.377715
C7    C     C_1   0.444638 0.526143 0.877713 -0.113575
C8    C     C_1   0.552570 0.518128 0.123384 -0.036767
C9    C     C_3   0.219660 0.609202 0.000982 0.125826
C10   C     C_3   0.104986 0.653431 0.078440 -0.870015
C11   C     C_3   0.830882 0.669245 0.603778 0.231447
C12   C     C_1   0.456221 0.513649 0.789601 -0.195816
C13   C     C_3   0.873473 0.760980 0.521383 -0.453989
C14   C     C_3   0.828488 0.893738 0.557248 -0.874301
C15   C     C_3   0.756947 0.605423 0.967210 0.081727
C16   C     C_3   0.721272 0.716333 0.906319 -0.372088
C17   C     C_3   0.817819 0.820199 0.910435 -0.991284
C18   C     C_3   0.555860 0.158469 0.681716 0.089831
C19   C     C_3   0.636613 0.103139 0.757552 -0.375013
C20   C     C_3   0.611713 0.177564 0.856736 -0.903656
C21   C     C_3   0.707256 0.951978 0.299036 0.095132
C22   C     C_3   0.818027 0.878165 0.232929 -0.330445
C23   C     C_2   0.506770 0.065057 0.433953 -0.336255
C24   C     C_3   0.908507 0.965847 0.172876 -0.997465
C25   C     C_3   0.366126 0.885078 0.667896 0.101207
C26   C     C_3   0.244663 0.945396 0.730594 -0.842133
C27   C     C_3   0.143892 0.223641 0.365950 0.063741
C28   C     C_3   0.120572 0.159793 0.466361 -0.372746
C29   C     C_3   0.128113 0.017962 0.450619 -0.889720
C30   C     C_3   0.125764 0.607386 0.645203 0.360129
C31   C     C_3   0.099432 0.595251 0.757129 -0.925639
C32   C     C_3   0.921871 0.432325 0.273770 0.044609
C33   C     C_3   0.874444 0.359249 0.188325 -0.787455
C34   C     C_2   0.515349 0.134533 0.515918 0.388612
C35   C     C_2   0.541044 0.931594 0.432417 0.426187
C36   C     C_2   0.479802 0.868637 0.507314 0.285663
C37   C     C_2   0.090844 0.422817 0.443630 0.545704
C38   C     C_2   0.940271 0.431485 0.438721 0.436455
C39   C     C_R   0.475477 0.502155 0.685226 0.812383
H1    H     H_    0.478951 0.105869 0.367216 0.092218
H2    H     H_    0.832281 0.736766 0.452317 0.256322
H3    H     H_    0.723115 0.896160 0.588160 0.286152
H4    H     H_    0.842517 0.957611 0.494786 0.281835
H5    H     H_    0.885486 0.926251 0.616368 0.242985
H6    H     H_    0.858618 0.570616 0.938769 0.172504
H7    H     H_    0.758164 0.635695 0.046466 0.122813
H8    H     H_    0.721185 0.683920 0.827786 0.224005
H9    H     H_    0.621044 0.754703 0.935677 0.208158
H10   H     H_    0.814946 0.857063 0.988121 0.279538
H11   H     H_    0.790658 0.897461 0.863987 0.268049
H12   H     H_    0.185604 0.534387 0.953109 0.156992
H13   H     H_    0.919172 0.785106 0.881625 0.266037
H14   H     H_    0.449575 0.160633 0.711596 0.139604
H15   H     H_    0.587860 0.255114 0.671699 0.169933
H16   H     H_    0.612217 0.004790 0.770319 0.207013
H17   H     H_    0.742800 0.104458 0.728048 0.237781
H18   H     H_    0.639808 0.275664 0.846553 0.300300
H19   H     H_    0.671489 0.135281 0.910099 0.263554
H20   H     H_    0.506313 0.176585 0.888372 0.258344
H21   H     H_    0.752461 0.019207 0.347444 0.163155
H22   H     H_    0.647131 0.003824 0.250462 0.144958
H23   H     H_    0.250167 0.690478 0.955813 0.132242
H24   H     H_    0.876483 0.821874 0.279760 0.216528
H25   H     H_    0.775555 0.813543 0.181265 0.219377
H26   H     H_    0.851874 0.024648 0.126539 0.269346
H27   H     H_    0.985892 0.910832 0.123040 0.269727
H28   H     H_    0.956590 0.027134 0.223486 0.265506
H29   H     H_    0.454346 0.912429 0.700272 0.151152
H30   H     H_    0.359566 0.782711 0.672831 0.108296
H31   H     H_    0.154778 0.913172 0.702228 0.241639
H32   H     H_    0.241840 0.918820 0.809087 0.202282
H33   H     H_    0.246164 0.048554 0.727547 0.261023
H34   H     H_    0.137035 0.724723 0.130283 0.265734
H35   H     H_    0.229914 0.174813 0.320204 0.170042
H36   H     H_    0.061005 0.209236 0.323283 0.178671
H37   H     H_    0.195114 0.186525 0.513953 0.269087
H38   H     H_    0.021879 0.189069 0.506136 0.216810
H39   H     H_    0.055035 0.987963 0.402476 0.249458
H40   H     H_    0.107869 0.973909 0.523439 0.287973
H41   H     H_    0.227740 0.985392 0.414827 0.280016
H42   H     H_    0.066094 0.684781 0.623846 0.081258
H43   H     H_    0.221619 0.644062 0.624393 0.167248
H44   H     H_    0.160765 0.516783 0.779520 0.266616
H45   H     H_    0.024809 0.694620 0.041236 0.206694
H46   H     H_    0.123290 0.682825 0.795511 0.186682
H47   H     H_    0.994511 0.576436 0.779599 0.267462
H48   H     H_    0.029232 0.443151 0.254173 0.163781
H49   H     H_    0.871274 0.526523 0.281663 0.153497
H50   H     H_    0.769154 0.339200 0.207339 0.263621
H51   H     H_    0.886766 0.414063 0.120150 0.210148
H52   H     H_    0.932316 0.269474 0.173280 0.241265
H53   H     H_    0.067059 0.573554 0.121088 0.248866
H54   H     H_    0.863026 0.705272 0.673621 0.106387
H55   H     H_    0.725192 0.670433 0.628088 0.169834
H56   H     H_    0.981488 0.757011 0.499962 0.196040
N1    N     N_2   0.147970 0.498670 0.498970 -0.008272
N2    N     N_2   0.852310 0.498640 0.498940 0.036621
O1    O     O_R   0.386960 0.680940 0.500020 -0.647989
O2    O     O_3   0.887562 0.547367 0.583190 -0.564055
O3    O     O_3   0.672592 0.506261 0.955650 -0.660674
O4    O     O_3   0.579770 0.085498 0.591462 -0.665773
O5    O     O_3   0.628057 0.869028 0.356636 -0.675184
O6    O     O_3   0.371973 0.924890 0.569230 -0.623768
O7    O     O_3   0.174619 0.351374 0.372315 -0.643121
O8    O     O_3   0.104262 0.491993 0.596678 -0.516458
O9    O     O_3   0.893805 0.366676 0.361820 -0.626412
O10   O     O_R   0.613100 0.680900 0.499980 -0.639676
O11   O     O_R   0.370650 0.500000 0.640370 -0.617749
O12   O     O_R   0.596800 0.499960 0.640330 -0.607104
O13   O     O_R   0.386900 0.319100 0.500020 -0.595349
O14   O     O_R   0.613040 0.319060 0.499980 -0.579795
O15   O     O_R   0.403200 0.500040 0.359670 -0.556671
O16   O     O_R   0.629350 0.500000 0.359630 -0.592696
O17   O     O_3   0.323646 0.562023 0.049046 -0.620166
Zn1   Zn    Zn3+2 0.349000 0.500030 0.500020 0.993774
Zn2   Zn    Zn3+2 0.651000 0.499970 0.499980 0.997171

loop_
_geom_bond_atom_site_label_1
_geom_bond_atom_site_label_2
_ccdc_geom_bond_type
C19   H17   S    
N1    O8    S    
C38   O9    S    
C31   H46   S    
C26   H33   S    
C35   C36   D    
C9    H12   S    
C15   O3    S    
C4    C8    T    
C35   O5    S    
C16   H9    S    
C13   H2    S    
C13   H56   S    
C36   O6    S    
C9    O17   S    
O11   Zn1   S    
C28   C29   S    
C33   H52   S    
C30   C31   S    
C10   H34   S    
C23   H1    S    
C32   H49   S    
C27   O7    S    
C31   H44   S    
C16   H8    S    
C11   O2    S    
C18   C19   S    
C6    O17   S    
O12   Zn2   S    
C22   H24   S    
C29   H39   S    
C19   C20   S    
C16   C17   S    
N1    Zn1   S    
O14   Zn2   S    
C27   H35   S    
C9    C10   S    
C21   H22   S    
C18   H14   S    
C24   H27   S    
C14   H3    S    
O16   Zn2   S    
C11   H54   S    
C10   H53   S    
C31   H47   S    
C32   O9    S    
C21   C22   S    
C26   H32   S    
C7    C12   T    
C25   H29   S    
C38   N2    D    
C27   H36   S    
C17   H13   S    
N2    O2    S    
C39   O11   A    
C2    O14   A    
C34   O4    S    
C9    H23   S    
C21   H21   S    
C3    O16   A    
C17   H10   S    
C25   O6    S    
C25   C26   S    
C32   H48   S    
C37   N1    D    
C20   H20   S    
C18   O4    S    
C30   H43   S    
C37   C38   S    
C33   H50   S    
C5    C8    S    
C29   H40   S    
C5    O3    S    
C3    O15   A    
C23   C34   D    
N2    Zn2   S    
C28   H38   S    
C24   H26   S    
C1    O10   A    
C21   O5    S    
C11   H55   S    
C23   C35   S    
C30   O8    S    
C26   H31   S    
C22   C24   S    
C25   H30   S    
C15   H6    S    
C20   H19   S    
C3    C4    S    
C28   H37   S    
C14   H5    S    
C19   H16   S    
C2    O13   A    
C24   H28   S    
C17   H11   S    
C37   O7    S    
C6    C7    S    
C32   C33   S    
C30   H42   S    
C1    O1    A    
C33   H51   S    
C11   C13   S    
C2    C34   S    
O1    Zn1   S    
C5    C6    D    
C29   H41   S    
C12   C39   S    
C10   H45   S    
O10   Zn2   S    
C18   H15   S    
C22   H25   S    
C39   O12   A    
C27   C28   S    
C15   H7    S    
C20   H18   S    
C13   C14   S    
O13   Zn1   S    
O15   Zn1   S    
C15   C16   S    
C1    C36   S    
C14   H4    S    
