data_mof_unit_50713.cif
_audit_creation_date              2012-12-10T18:55:11-0500
_audit_creation_method            fapswitch 2.2
_symmetry_space_group_name_H-M    P1
_symmetry_Int_Tables_number       1
_space_group_crystal_system       triclinic
_cell_length_a                    10.783062
_cell_length_b                    9.854521
_cell_length_c                    27.341152
_cell_angle_alpha                 89.860401
_cell_angle_beta                  89.404928
_cell_angle_gamma                 89.484375
_cell_volume                      2905.04074678

loop_
_atom_site_label
_atom_site_type_symbol
_atom_type_description
_atom_site_fract_x
_atom_site_fract_y
_atom_site_fract_z
_atom_type_partial_charge
C1    C     C_R   0.259986 0.500436 0.498088 0.969726
C2    C     C_R   0.739963 0.499051 0.501662 1.017430
C3    C     C_R   0.620621 0.454726 0.101423 -0.194200
C4    C     C_R   0.619535 0.444112 0.897103 -0.191582
C5    C     C_R   0.580936 0.341113 0.128944 -0.106509
C6    C     C_R   0.700648 0.527852 0.869842 -0.166339
C7    C     C_R   0.555638 0.217503 0.104926 0.363604
C8    C     C_R   0.801368 0.590222 0.893759 0.350246
C9    C     C_R   0.643266 0.579816 0.124550 -0.169637
C10   C     C_R   0.523620 0.373511 0.873810 -0.111746
C11   C     C_R   0.521856 0.501010 0.353583 -0.265138
C12   C     C_R   0.523260 0.498173 0.646292 -0.308849
C13   C     C_R   0.562056 0.340082 0.975285 0.006838
C14   C     C_R   0.688245 0.550347 0.023060 -0.028426
C15   C     C_R   0.708344 0.528815 0.972330 0.013516
C16   C     C_R   0.585126 0.330138 0.026152 0.054565
C17   C     C_R   0.630610 0.436591 0.948159 -0.097042
C18   C     C_R   0.631789 0.445067 0.050293 -0.093043
C19   C     C_R   0.466485 0.266709 0.951789 0.423175
C20   C     C_R   0.711966 0.676426 0.046105 0.496931
C21   C     C_R   0.441338 0.293522 0.901846 0.337268
C22   C     C_R   0.679563 0.693116 0.095900 0.317667
C23   C     C_R   0.501494 0.500299 0.406035 1.046643
C24   C     C_R   0.501924 0.499815 0.593987 1.020749
C25   C     C_R   0.565881 0.210607 0.053339 0.372468
C26   C     C_R   0.803814 0.592526 0.945348 0.479211
C27   C     C_R   0.064795 0.377045 0.489240 0.375723
C28   C     C_R   0.935553 0.618768 0.511207 0.371384
C29   C     C_R   0.937642 0.373847 0.495042 0.343515
C30   C     C_R   0.061353 0.622964 0.502923 0.371864
C31   C     C_R   0.872549 0.496544 0.503487 -0.414625
C32   C     C_R   0.127249 0.500626 0.495924 -0.425581
C33   C     C_R   0.449071 0.072091 0.538398 0.345444
C34   C     C_R   0.560554 0.926467 0.463857 0.346365
C35   C     C_R   0.552101 0.071449 0.461837 0.358686
C36   C     C_R   0.439446 0.927084 0.536304 0.340155
C37   C     C_R   0.567524 0.355276 0.179891 0.691171
C38   C     C_R   0.676955 0.547414 0.819832 0.624812
C39   C     C_R   0.625867 0.588264 0.175559 0.641672
C40   C     C_R   0.509191 0.390916 0.823154 0.685591
C41   C     C_R   0.665921 0.508821 0.284719 0.385127
C42   C     C_R   0.466744 0.568142 0.728389 0.389482
C43   C     C_R   0.643962 0.511174 0.335556 0.298852
C44   C     C_R   0.441235 0.566057 0.678281 0.321754
C45   C     C_R   0.421344 0.485175 0.322164 0.204651
C46   C     C_R   0.629380 0.430776 0.663811 0.199376
C47   C     C_R   0.443195 0.484755 0.271105 0.346214
C48   C     C_R   0.647819 0.421668 0.714704 0.338694
C49   C     C_R   0.565689 0.489999 0.253157 0.052025
C50   C     C_R   0.567292 0.492060 0.746379 0.042085
N1    N     N_R   0.587955 0.477529 0.201605 -0.306445
N2    N     N_R   0.583759 0.478208 0.797921 -0.306516
N3    N     N_R   0.500000 0.857200 0.500000 -0.187083
N4    N     N_R   0.500000 0.142800 0.500000 -0.182810
O1    O     O_R   0.316770 0.614620 0.500000 -0.565012
O2    O     O_R   0.683230 0.385380 0.500000 -0.564728
O3    O     O_R   0.683230 0.614620 0.500000 -0.564114
O4    O     O_R   0.316770 0.385380 0.500000 -0.563662
O5    O     O_R   0.500030 0.614650 0.428760 -0.570880
O6    O     O_R   0.499970 0.385350 0.571240 -0.567996
O7    O     O_R   0.499970 0.614650 0.571240 -0.566561
O8    O     O_R   0.500030 0.385350 0.428760 -0.604543
O9    O     O_2   0.534124 0.248483 0.207922 -0.470511
O10   O     O_2   0.743188 0.637515 0.793342 -0.537663
O11   O     O_2   0.422496 0.320647 0.798840 -0.487646
O12   O     O_2   0.647392 0.705245 0.199373 -0.532358
Zn1   Zn    Zn3+2 0.500000 0.653120 0.500000 1.061566
Zn2   Zn    Zn3+2 0.500000 0.346880 0.500000 1.047131
O13   O     O_3   0.304655 0.468402 0.342476 -0.810868
H1    H     H_    0.254051 0.414185 0.319838 0.344770
O14   O     O_3   0.713951 0.378494 0.630371 -0.809278
H2    H     H_    0.797320 0.377528 0.645229 0.334286
O15   O     O_3   0.405574 0.142591 0.578705 -0.574805
C51   C     C_3   0.487884 0.120136 0.617898 -0.239349
H3    H     H_    0.585278 0.144903 0.607503 0.184556
H4    H     H_    0.483329 0.014210 0.631721 0.170027
H5    H     H_    0.460141 0.187685 0.648587 0.188764
O16   O     O_3   0.622172 0.852441 0.427988 -0.563465
C52   C     C_3   0.749430 0.885101 0.426788 -0.141843
H6    H     H_    0.802396 0.794179 0.414461 0.187820
H7    H     H_    0.767070 0.966952 0.399732 0.169829
H8    H     H_    0.786438 0.914655 0.463074 0.171402
O17   O     O_3   0.602289 0.141518 0.422737 -0.581599
C53   C     C_3   0.527365 0.121916 0.381278 -0.234325
H9    H     H_    0.428112 0.146765 0.389083 0.153980
H10   H     H_    0.536268 0.017011 0.366890 0.192800
H11   H     H_    0.559372 0.191378 0.351850 0.181772
O18   O     O_3   0.379392 0.852652 0.572493 -0.549863
C54   C     C_3   0.258700 0.903467 0.582416 -0.054219
H12   H     H_    0.198253 0.816795 0.591997 0.190870
H13   H     H_    0.259478 0.970570 0.614907 0.159791
H14   H     H_    0.215867 0.957665 0.550902 0.156447
O19   O     O_3   0.348287 0.481191 0.237607 -0.735279
H15   H     H_    0.272958 0.522626 0.252489 0.346006
O20   O     O_3   0.740493 0.342543 0.734943 -0.742062
H16   H     H_    0.762366 0.268436 0.711940 0.341065
O21   O     O_3   0.517802 0.106400 0.131928 -0.689961
H17   H     H_    0.461826 0.051167 0.111637 0.334058
O22   O     O_3   0.898957 0.646591 0.868071 -0.729414
H18   H     H_    0.920032 0.584637 0.840653 0.380793
O23   O     O_3   0.339241 0.635731 0.660514 -0.567686
C55   C     C_3   0.238528 0.545644 0.658780 -0.221496
H19   H     H_    0.214354 0.506378 0.695852 0.203791
H20   H     H_    0.257715 0.459923 0.633279 0.138132
H21   H     H_    0.156353 0.601503 0.644844 0.163512
O24   O     O_3   0.740500 0.530076 0.367753 -0.616117
C56   C     C_3   0.803744 0.405713 0.374532 -0.284228
H22   H     H_    0.830114 0.355642 0.339452 0.189141
H23   H     H_    0.747385 0.336081 0.397395 0.241686
H24   H     H_    0.890931 0.426081 0.394196 0.170144
O25   O     O_3   0.386648 0.633527 0.760502 -0.570307
C57   C     C_3   0.421972 0.770580 0.763569 -0.198571
H25   H     H_    0.413568 0.823001 0.727626 0.181618
H26   H     H_    0.517938 0.780202 0.777667 0.169202
H27   H     H_    0.358723 0.823074 0.789747 0.199247
O26   O     O_3   0.784938 0.513274 0.264900 -0.603503
C58   C     C_3   0.844167 0.635781 0.277304 -0.109476
H28   H     H_    0.904278 0.619843 0.309544 0.171502
H29   H     H_    0.778744 0.722162 0.284179 0.173746
H30   H     H_    0.905346 0.665724 0.246322 0.178733
O27   O     O_3   0.333208 0.249221 0.880790 -0.700773
H31   H     H_    0.266628 0.251222 0.906044 0.354893
O28   O     O_3   0.676597 0.822633 0.114611 -0.730281
H32   H     H_    0.593717 0.835728 0.129998 0.380345
O29   O     O_3   0.385272 0.188226 0.979527 -0.607486
C59   C     C_3   0.380090 0.053962 0.961079 -0.133776
H33   H     H_    0.467367 0.020097 0.942331 0.178379
H34   H     H_    0.300296 0.042008 0.936280 0.160449
H35   H     H_    0.364091 0.983761 0.992253 0.190988
O30   O     O_3   0.738475 0.789410 0.017294 -0.597475
C60   C     C_3   0.842372 0.860413 0.035066 -0.062610
H36   H     H_    0.909164 0.794743 0.055383 0.152920
H37   H     H_    0.811995 0.947141 0.058155 0.194790
H38   H     H_    0.893329 0.904088 0.003372 0.172814
O31   O     O_3   0.573066 0.087958 0.029113 -0.757354
H39   H     H_    0.591154 0.014206 0.052615 0.367281
O32   O     O_3   0.905452 0.640175 0.970270 -0.765215
H40   H     H_    0.964725 0.683443 0.947336 0.377215
O33   O     O_3   0.127419 0.256765 0.479200 -0.564305
C61   C     C_3   0.135062 0.240373 0.428048 -0.252910
H41   H     H_    0.182492 0.327517 0.410248 0.186327
H42   H     H_    0.041671 0.226001 0.412065 0.168731
H43   H     H_    0.190932 0.147895 0.420012 0.156826
O34   O     O_3   0.874563 0.737656 0.524230 -0.584213
C62   C     C_3   0.866641 0.743396 0.575694 -0.251730
H44   H     H_    0.812597 0.656912 0.590865 0.168010
H45   H     H_    0.817210 0.838337 0.586180 0.166584
H46   H     H_    0.960398 0.746025 0.592309 0.153659
O35   O     O_3   0.877197 0.252099 0.487781 -0.569434
C63   C     C_3   0.879182 0.176836 0.531756 -0.190298
H47   H     H_    0.840784 0.236375 0.563023 0.171847
H48   H     H_    0.974472 0.140268 0.540127 0.181758
H49   H     H_    0.819770 0.086469 0.527457 0.159163
O36   O     O_3   0.119794 0.746954 0.505436 -0.579334
C64   C     C_3   0.117959 0.807466 0.458631 -0.223407
H50   H     H_    0.163187 0.741203 0.430592 0.158055
H51   H     H_    0.171033 0.903262 0.459956 0.168872
H52   H     H_    0.021700 0.833553 0.447622 0.156791

loop_
_geom_bond_atom_site_label_1
_geom_bond_atom_site_label_2
_ccdc_geom_bond_type
C39   N1    A    
O19   H15   S    
C16   C25   A    
C48   O20   S    
C5    C37   A    
C64   H51   S    
C8    C26   A    
O15   C51   S    
C14   C18   A    
O20   H16   S    
C61   H43   S    
C60   H38   S    
C57   H26   S    
C62   H44   S    
C2    O3    A    
C22   O28   S    
C47   C49   A    
C36   O18   S    
C23   O5    A    
C24   O7    A    
C51   H4    S    
C3    C18   A    
C19   C21   A    
C8    O22   S    
C53   H10   S    
C58   H29   S    
C37   N1    A    
C9    C22   A    
N4    Zn2   S    
O24   C56   S    
C9    C39   A    
C33   C36   A    
C27   C29   A    
C55   H21   S    
C10   C40   A    
C34   C35   A    
C36   N3    A    
O5    Zn1   S    
C37   O9    S    
C23   O8    A    
O25   C57   S    
C49   N1    S    
C51   H5    S    
C50   N2    S    
C56   H22   S    
C53   H11   S    
C11   C43   A    
C28   O34   S    
C44   O23   S    
C54   H13   S    
O28   H32   S    
C26   O32   S    
C48   C50   A    
C35   N4    A    
C41   C43   A    
O13   H1    S    
C42   C44   A    
O3    Zn1   S    
C25   O31   S    
C41   C49   A    
C57   H25   S    
C62   H45   S    
O21   H17   S    
C38   O10   S    
C45   C47   A    
C10   C21   A    
C46   C48   A    
O27   H31   S    
C51   H3    S    
C13   C19   A    
C45   O13   S    
O23   C55   S    
C14   C20   A    
O31   H39   S    
C53   H9    S    
C4    C6    A    
C58   H30   S    
C52   H7    S    
C35   O17   S    
O16   C52   S    
C15   C26   A    
C6    C8    A    
C59   H35   S    
C3    C5    A    
C40   N2    A    
C63   H49   S    
C1    C32   S    
C27   O33   S    
C2    C31   S    
C43   O24   S    
C42   O25   S    
C3    C9    A    
O7    Zn1   S    
O17   C53   S    
C24   O6    A    
C6    C38   A    
C47   O19   S    
C61   H41   S    
C54   H14   S    
C55   H20   S    
O36   C64   S    
C46   O14   S    
C42   C50   A    
C4    C17   A    
C12   C46   A    
C20   C22   A    
C40   O11   S    
O29   C59   S    
C39   O12   S    
C63   H48   S    
C11   C45   A    
C41   O26   S    
C4    C10   A    
C60   H36   S    
C62   H46   S    
C5    C7    A    
C33   O15   S    
C33   N4    A    
C15   C17   A    
C59   H34   S    
C7    O21   S    
C27   C32   A    
C63   H47   S    
C28   C31   A    
C20   O30   S    
O34   C62   S    
C60   H37   S    
C52   H8    S    
O1    Zn1   S    
O33   C61   S    
C61   H42   S    
C13   C17   A    
O32   H40   S    
C12   C24   S    
C58   H28   S    
C7    C25   A    
O22   H18   S    
O8    Zn2   S    
C28   C30   A    
O30   C60   S    
C1    O1    A    
O14   H2    S    
C29   C31   A    
O2    Zn2   S    
O35   C63   S    
C34   O16   S    
C30   C32   A    
O4    Zn2   S    
C56   H23   S    
C59   H33   S    
C11   C23   S    
C56   H24   S    
C19   O29   S    
O26   C58   S    
C21   O27   S    
C55   H19   S    
N3    Zn1   S    
C29   O35   S    
C52   H6    S    
C30   O36   S    
C38   N2    A    
O18   C54   S    
O6    Zn2   S    
C34   N3    A    
C16   C18   A    
C13   C16   A    
C64   H50   S    
C14   C15   A    
C12   C44   A    
C2    O2    A    
C54   H12   S    
C1    O4    A    
C57   H27   S    
C64   H52   S    
