data_mof_unit_25095.cif
_audit_creation_date              2012-12-10T17:09:50-0500
_audit_creation_method            fapswitch 2.2
_symmetry_space_group_name_H-M    P1
_symmetry_Int_Tables_number       1
_space_group_crystal_system       triclinic
_cell_length_a                    10.759607
_cell_length_b                    13.034653
_cell_length_c                    11.714552
_cell_angle_alpha                 99.675902
_cell_angle_beta                  93.342472
_cell_angle_gamma                 90.750909
_cell_volume                      1616.37434688

loop_
_atom_site_label
_atom_site_type_symbol
_atom_type_description
_atom_site_fract_x
_atom_site_fract_y
_atom_site_fract_z
_atom_type_partial_charge
C1    C     C_R   0.496772 0.299069 0.478981 0.859689
C2    C     C_R   0.064227 0.401869 0.497517 0.034870
C3    C     C_R   0.128956 0.497626 0.502093 -0.147895
C4    C     C_R   0.064944 0.590830 0.503547 0.245541
C5    C     C_R   0.936233 0.589390 0.502003 -0.224858
C6    C     C_R   0.870691 0.495645 0.496604 -0.131018
C7    C     C_R   0.509924 0.812628 0.533006 -0.029906
C8    C     C_R   0.488340 0.185400 0.468241 -0.236893
C9    C     C_R   0.397877 0.018678 0.370905 0.200415
C10   C     C_R   0.410150 0.126524 0.378802 0.192880
C11   C     C_R   0.552614 0.135724 0.551896 0.139647
C12   C     C_R   0.262721 0.500655 0.500832 0.855319
C13   C     C_R   0.535732 0.028125 0.547214 0.074132
C14   C     C_R   0.460676 0.969069 0.454862 0.000878
C15   C     C_R   0.451240 0.861041 0.447955 -0.189595
C16   C     C_R   0.578372 0.871061 0.626818 -0.212322
C17   C     C_R   0.592369 0.977642 0.633445 -0.107732
C18   C     C_R   0.363654 0.422534 0.025775 -0.310777
C19   C     C_R   0.378380 0.427860 0.146725 0.079290
C20   C     C_R   0.562960 0.531515 0.154900 0.401265
C21   C     C_R   0.552109 0.526981 0.032003 0.017283
C22   C     C_R   0.450413 0.472423 0.967390 0.021651
C23   C     C_R   0.503012 0.700285 0.521161 0.831566
C24   C     C_R   0.438153 0.469281 0.845570 0.094606
C25   C     C_R   0.622079 0.572134 0.851714 0.113937
C26   C     C_R   0.639038 0.576051 0.971887 -0.308866
C27   C     C_R   0.737296 0.499800 0.499123 0.798324
C28   C     C_R   0.127137 0.307408 0.497873 -0.125700
C29   C     C_R   0.060776 0.213401 0.488351 -0.085297
C30   C     C_R   0.931187 0.211827 0.478252 -0.093093
C31   C     C_R   0.867367 0.304489 0.479884 -0.108126
C32   C     C_R   0.932853 0.400582 0.491515 0.084692
Cu1   Cu    Cu3+1 0.509250 0.507730 0.615930 0.986756
Cu2   Cu    Cu3+1 0.490750 0.492270 0.384070 0.993926
H1    H     H_    0.647807 0.018923 0.707104 0.192283
H2    H     H_    0.361201 0.426157 0.794931 0.122198
H3    H     H_    0.689506 0.610622 0.807401 0.126854
H4    H     H_    0.284185 0.380182 0.978368 0.166056
H5    H     H_    0.720820 0.616810 0.015929 0.150054
H6    H     H_    0.309260 0.390708 0.190216 0.187000
H7    H     H_    0.227662 0.305419 0.505295 0.133207
H8    H     H_    0.110148 0.141497 0.487907 0.159519
H9    H     H_    0.879872 0.138651 0.469590 0.158529
H10   H     H_    0.766789 0.300313 0.471159 0.142415
H11   H     H_    0.886856 0.661698 0.504953 0.161582
H12   H     H_    0.398691 0.813034 0.376660 0.166678
H13   H     H_    0.624274 0.833878 0.693343 0.151674
N1    N     N_R   0.523180 0.519350 0.790130 -0.182012
N2    N     N_R   0.476820 0.480650 0.209890 -0.196349
O1    O     O_R   0.506570 0.354460 0.582000 -0.546113
O2    O     O_R   0.490940 0.341410 0.386200 -0.553053
O3    O     O_R   0.327470 0.506530 0.597920 -0.589350
O4    O     O_R   0.311840 0.493480 0.402120 -0.571658
O5    O     O_R   0.509060 0.658590 0.613800 -0.584287
O6    O     O_R   0.493430 0.645540 0.418000 -0.570639
O7    O     O_R   0.688160 0.506520 0.597880 -0.577251
O8    O     O_R   0.672530 0.493470 0.402080 -0.559133
Br1   Br    Br    0.149985 0.722244 0.508653 -0.559706
Br2   Br    Br    0.308090 0.190043 0.269658 -0.533211
Br3   Br    Br    0.668755 0.212801 0.670372 -0.538614
N3    N     N_2   0.663147 0.588997 0.221948 -0.388477
H14   H     H_    0.750452 0.564512 0.199231 0.239545
C33   C     C_3   0.652195 0.701185 0.243277 -0.642934
H15   H     H_    0.703917 0.736923 0.180156 0.199479
H16   H     H_    0.693027 0.732603 0.331628 0.233100
H17   H     H_    0.553333 0.724015 0.237309 0.222556
N4    N     N_2   0.316096 0.962379 0.281127 -0.390900
H18   H     H_    0.256876 0.908768 0.306452 0.267161
C34   C     C_3   0.373722 0.925293 0.173838 -0.596262
H19   H     H_    0.301818 0.887954 0.107482 0.232475
H20   H     H_    0.445301 0.867392 0.187286 0.190622
H21   H     H_    0.418029 0.991045 0.140813 0.262374

loop_
_geom_bond_atom_site_label_1
_geom_bond_atom_site_label_2
_ccdc_geom_bond_type
C34   H21   S    
C6    C32   A    
C9    C14   A    
C9    N4    S    
C23   O6    A    
C29   C30   A    
C18   C22   A    
C29   H8    S    
Cu2   O8    S    
C1    C8    S    
C11   C13   A    
C1    O1    A    
C19   N2    A    
N4    H18   S    
C31   C32   A    
C14   C15   A    
C13   C17   A    
C30   C31   A    
C21   C26   A    
Cu1   O7    S    
C33   H16   S    
C2    C3    A    
C18   H4    S    
C33   H17   S    
Cu2   O6    S    
C24   H2    S    
C13   C14   A    
Cu1   O3    S    
N4    C34   S    
C1    O2    A    
C25   N1    A    
Cu2   O2    S    
C20   N2    A    
C12   O4    A    
C5    H11   S    
C23   O5    A    
C8    C11   A    
C7    C23   S    
C5    C6    A    
C16   H13   S    
C7    C15   A    
C28   C29   A    
C12   O3    A    
Cu1   Cu2   S    
C34   H19   S    
C27   O8    A    
N3    H14   S    
C30   H9    S    
C22   C24   A    
C26   H5    S    
C16   C17   A    
C19   H6    S    
C11   Br3   S    
C24   N1    A    
C9    C10   A    
C28   H7    S    
Cu1   O5    S    
C20   C21   A    
Cu2   O4    S    
C2    C32   A    
C18   C19   A    
C31   H10   S    
Cu1   O1    S    
C4    Br1   S    
C20   N3    S    
C34   H20   S    
Cu1   N1    S    
C27   O7    A    
C4    C5    A    
Cu2   N2    S    
C2    C28   A    
C3    C12   S    
C17   H1    S    
C15   H12   S    
C25   H3    S    
C25   C26   A    
C21   C22   A    
C10   Br2   S    
C8    C10   A    
C7    C16   A    
C3    C4    A    
C6    C27   S    
C33   H15   S    
N3    C33   S    
