data_mof_unit_12887.cif
_audit_creation_date              2012-12-10T18:22:33-0500
_audit_creation_method            fapswitch 2.2
_symmetry_space_group_name_H-M    P1
_symmetry_Int_Tables_number       1
_space_group_crystal_system       triclinic
_cell_length_a                    23.503165
_cell_length_b                    10.624445
_cell_length_c                    9.464465
_cell_angle_alpha                 89.098704
_cell_angle_beta                  89.732429
_cell_angle_gamma                 90.065545
_cell_volume                      2363.03349923

loop_
_atom_site_label
_atom_site_type_symbol
_atom_type_description
_atom_site_fract_x
_atom_site_fract_y
_atom_site_fract_z
_atom_type_partial_charge
C1    C     C_R   0.500665 0.259950 0.501022 0.865183
C2    C     C_R   0.701130 0.499601 0.629711 -0.250862
C3    C     C_R   0.238522 0.500075 0.632152 -0.000763
C4    C     C_R   0.760848 0.498971 0.633316 0.004207
C5    C     C_R   0.208925 0.495491 0.502217 0.292420
C6    C     C_R   0.791090 0.499744 0.503332 0.294367
C7    C     C_3   0.515576 0.035889 0.627769 0.475716
C8    C     C_3   0.484344 0.964133 0.372287 0.476083
C9    C     C_3   0.553138 0.954164 0.529851 -0.518392
C10   C     C_3   0.446781 0.045852 0.470204 -0.517435
C11   C     C_3   0.499339 0.876415 0.497327 -0.222566
C12   C     C_R   0.499295 0.740051 0.498988 0.865379
C13   C     C_3   0.500577 0.123588 0.502735 -0.222756
C14   C     C_3   0.462668 0.957530 0.595160 0.440284
C15   C     C_3   0.537247 0.042484 0.404903 0.437946
C16   C     C_R   0.391050 0.499619 0.500266 0.787371
C17   C     C_R   0.608956 0.500180 0.499880 0.788362
C18   C     C_3   0.538995 0.572323 0.046963 0.116484
C19   C     C_3   0.461001 0.427671 0.953010 0.116648
C20   C     C_3   0.491088 0.612251 0.947135 -0.119764
C21   C     C_3   0.508905 0.387741 0.052856 -0.123137
C22   C     C_3   0.548367 0.460721 0.949250 -0.068571
C23   C     C_R   0.239086 0.492128 0.374444 -0.114065
C24   C     C_3   0.451627 0.539269 0.050740 -0.069394
C25   C     C_R   0.880677 0.611623 0.500681 0.585611
C26   C     C_R   0.119351 0.384416 0.490190 0.589535
C27   C     C_R   0.880106 0.386856 0.491382 0.583132
C28   C     C_R   0.119931 0.609174 0.499652 0.577605
C29   C     C_R   0.939760 0.383975 0.488760 -0.008437
C30   C     C_R   0.060280 0.612278 0.497769 -0.007043
C31   C     C_R   0.970001 0.498452 0.493056 -0.011085
C32   C     C_R   0.030038 0.497840 0.492744 -0.011022
C33   C     C_R   0.940347 0.613506 0.498322 -0.010204
C34   C     C_R   0.761575 0.500924 0.375231 -0.126065
C35   C     C_R   0.059689 0.382756 0.488101 -0.011176
C36   C     C_R   0.969752 0.269851 0.483011 -0.149907
C37   C     C_R   0.030290 0.726484 0.501822 -0.150800
C38   C     C_R   0.029113 0.269247 0.482680 -0.150449
C39   C     C_R   0.970926 0.727092 0.502080 -0.151445
C40   C     C_2   0.584815 0.658169 0.098042 0.822259
C41   C     C_2   0.415210 0.341870 0.901671 0.820946
C42   C     C_2   0.208966 0.503706 0.771857 0.869191
C43   C     C_2   0.789704 0.497045 0.773521 0.871173
C44   C     C_3   0.569174 0.006351 0.829048 0.017409
C45   C     C_R   0.298256 0.493553 0.373423 -0.196699
C46   C     C_3   0.580759 0.056216 0.975307 -0.644623
C47   C     C_3   0.431257 0.994624 0.170380 0.016601
C48   C     C_3   0.419736 0.944838 0.024067 -0.644125
C49   C     C_3   0.375608 0.863852 0.639056 0.080622
C50   C     C_3   0.339633 0.797079 0.751156 -0.736255
C51   C     C_3   0.624301 0.136246 0.361425 0.093147
C52   C     C_3   0.659744 0.205657 0.250287 -0.760815
C53   C     C_R   0.702441 0.501315 0.373814 -0.220688
C54   C     C_R   0.328362 0.498316 0.500768 -0.064989
C55   C     C_R   0.671655 0.500487 0.500806 -0.064480
C56   C     C_R   0.298215 0.501390 0.629017 -0.277460
Cu1   Cu    Cu3+1 0.500010 0.499990 0.643150 0.983349
Cu2   Cu    Cu3+1 0.499990 0.500010 0.356850 0.981767
H1    H     H_    0.947486 0.180648 0.479440 0.189443
H2    H     H_    0.784789 0.501172 0.276112 0.146878
H3    H     H_    0.320335 0.490945 0.272806 0.180051
H4    H     H_    0.680896 0.500759 0.273218 0.200901
H5    H     H_    0.321455 0.505636 0.727077 0.227096
H6    H     H_    0.677356 0.498817 0.728005 0.208621
H7    H     H_    0.595483 0.911996 0.551165 0.166830
H8    H     H_    0.404460 0.088103 0.448807 0.166130
H9    H     H_    0.668531 0.699231 0.101069 0.338251
H10   H     H_    0.331458 0.301337 0.897298 0.340668
H11   H     H_    0.215707 0.526581 0.982675 0.337492
H12   H     H_    0.052557 0.815681 0.505490 0.189864
H13   H     H_    0.781394 0.501128 0.986054 0.337094
H14   H     H_    0.610159 0.008625 0.769720 0.145914
H15   H     H_    0.553490 0.907584 0.839484 0.161178
H16   H     H_    0.540693 0.060098 0.036999 0.282612
H17   H     H_    0.611246 0.993258 0.031034 0.235976
H18   H     H_    0.599040 0.152502 0.966868 0.222964
H19   H     H_    0.447460 0.092982 0.160000 0.160724
H20   H     H_    0.390138 0.993481 0.229139 0.145172
H21   H     H_    0.400915 0.849061 0.032453 0.222882
H22   H     H_    0.389719 0.008515 0.967783 0.236553
H23   H     H_    0.483869 0.706860 0.899231 0.161808
H24   H     H_    0.459920 0.939750 0.962970 0.282543
H25   H     H_    0.384977 0.795477 0.554076 0.122896
H26   H     H_    0.350176 0.943235 0.594720 0.165162
H27   H     H_    0.326920 0.864095 0.834250 0.244120
H28   H     H_    0.300439 0.759427 0.702289 0.226861
H29   H     H_    0.364043 0.718265 0.799868 0.247422
H30   H     H_    0.650079 0.056508 0.403626 0.165239
H31   H     H_    0.614959 0.202949 0.448114 0.121476
H32   H     H_    0.634929 0.284892 0.203781 0.246640
H33   H     H_    0.698909 0.243133 0.299461 0.225902
H34   H     H_    0.516130 0.293133 0.100751 0.162315
H35   H     H_    0.672500 0.140423 0.165459 0.245749
H36   H     H_    0.589075 0.427713 0.902898 0.156393
H37   H     H_    0.410912 0.572239 0.097101 0.153825
H38   H     H_    0.050918 0.179595 0.478874 0.188978
H39   H     H_    0.949119 0.816741 0.505929 0.189420
H40   H     H_    0.216356 0.488910 0.275284 0.145724
N1    N     N_R   0.852039 0.499400 0.498793 -0.454441
N2    N     N_R   0.147991 0.496372 0.497431 -0.454886
N3    N     N_3   0.500040 0.499970 0.858290 -0.195977
N4    N     N_3   0.499960 0.500030 0.141710 -0.196236
O1    O     O_R   0.500030 0.316850 0.620870 -0.512208
O2    O     O_2   0.148586 0.275278 0.486330 -0.526065
O3    O     O_2   0.850302 0.278332 0.487649 -0.533321
O4    O     O_2   0.149738 0.717636 0.504581 -0.535591
O5    O     O_2   0.572433 0.751683 0.164874 -0.543772
O6    O     O_R   0.641475 0.633671 0.063057 -0.782724
O7    O     O_2   0.427647 0.248231 0.835123 -0.543945
O8    O     O_R   0.358503 0.366649 0.935882 -0.783504
O9    O     O_2   0.157694 0.485837 0.781347 -0.579493
O10   O     O_R   0.240232 0.526849 0.894249 -0.760012
O11   O     O_2   0.841474 0.489584 0.781943 -0.580858
O12   O     O_R   0.499970 0.683150 0.379130 -0.512079
O13   O     O_R   0.757236 0.503334 0.897566 -0.756396
O14   O     O_3   0.528510 0.083794 0.762093 -0.533017
O15   O     O_3   0.471365 0.916221 0.238011 -0.532922
O16   O     O_3   0.425947 0.909201 0.701221 -0.575902
O17   O     O_3   0.573980 0.091051 0.299013 -0.575761
O18   O     O_R   0.500000 0.316860 0.379090 -0.587712
O19   O     O_R   0.500000 0.683140 0.620910 -0.587451
O20   O     O_R   0.417890 0.499960 0.620920 -0.583172
O21   O     O_R   0.582110 0.500040 0.379080 -0.583007
O22   O     O_R   0.417870 0.499970 0.379140 -0.592560
O23   O     O_R   0.582130 0.500030 0.620860 -0.592522
O24   O     O_2   0.851424 0.720683 0.505768 -0.527561

loop_
_geom_bond_atom_site_label_1
_geom_bond_atom_site_label_2
_ccdc_geom_bond_type
C30   C32   A    
C3    C42   S    
C23   C45   A    
C27   C29   A    
C52   H32   S    
C42   O9    D    
C36   H1    S    
C17   O23   A    
C46   H18   S    
C29   C36   A    
C27   N1    A    
Cu2   O21   S    
C33   C39   A    
C22   N3    S    
C49   H26   S    
C21   C22   S    
C19   C21   S    
C2    C55   A    
C18   N4    S    
H11   O10   S    
H9    O6    S    
C39   H39   S    
C27   O3    S    
C3    C56   A    
C45   H3    S    
C42   O10   S    
C16   O20   A    
C50   H27   S    
C26   O2    S    
Cu1   O20   S    
C25   N1    A    
C7    C14   S    
C12   O19   A    
C31   C32   A    
C44   C46   S    
C14   O16   S    
C47   C48   S    
C51   O17   S    
C31   C33   A    
Cu2   N4    S    
C1    O1    A    
C18   C20   S    
C40   O6    S    
C43   O13   S    
C28   N2    A    
C53   C55   A    
C41   O7    D    
C37   H12   S    
C34   H2    S    
C22   H36   S    
C15   O17   S    
C46   H17   S    
C2    H6    S    
C8    O15   S    
C12   O12   A    
C10   H8    S    
Cu1   O1    S    
C54   C56   A    
C51   C52   S    
C32   C35   A    
C20   C24   S    
C35   C38   A    
C4    C6    A    
C10   C14   S    
C24   H37   S    
C28   O4    S    
C20   N3    S    
C6    C34   A    
C30   C37   A    
C1    O18   A    
C7    O14   S    
C2    C4    A    
C25   O24   S    
C26   N2    A    
C53   H4    S    
C49   O16   S    
C5    C23   A    
C5    N2    S    
C47   O15   S    
C9    H7    S    
Cu2   O18   S    
C56   H5    S    
H13   O13   S    
C52   H35   S    
H10   O8    S    
C9    C11   S    
C50   H29   S    
C40   O5    D    
C21   N4    S    
C8    C10   S    
C45   C54   A    
C8    C15   S    
C41   O8    S    
C13   C15   S    
C1    C13   S    
C47   H19   S    
C46   H16   S    
C48   H21   S    
C7    C9    S    
C17   C55   S    
C18   C22   S    
C3    C5    A    
C10   C13   S    
C51   H30   S    
C11   C12   S    
C4    C43   S    
Cu1   N3    S    
Cu2   O22   S    
C6    N1    S    
C49   H25   S    
C36   C38   A    
C19   C24   S    
C16   O22   A    
C29   C31   A    
C43   O11   D    
Cu1   O23   S    
C19   N3    S    
C48   H22   S    
Cu1   Cu2   S    
C8    C11   S    
C28   C30   A    
C11   C14   S    
C48   H24   S    
C44   H14   S    
C24   N4    S    
C9    C15   S    
C44   H15   S    
C16   C54   S    
C50   H28   S    
Cu1   O19   S    
C26   C35   A    
C7    C13   S    
C23   H40   S    
C18   C40   S    
C44   O14   S    
C34   C53   A    
C37   C39   A    
C49   C50   S    
C38   H38   S    
Cu2   O12   S    
C52   H33   S    
C47   H20   S    
C17   O21   A    
C20   H23   S    
C51   H31   S    
C19   C41   S    
C25   C33   A    
C21   H34   S    
