data_mof_unit_15008.cif
_audit_creation_date              2013-03-05T16:06:17-0500
_audit_creation_method            fapswitch 2.2
_symmetry_space_group_name_H-M    P1
_symmetry_Int_Tables_number       1
_space_group_crystal_system       triclinic
_cell_length_a                    10.855064
_cell_length_b                    9.509316
_cell_length_c                    27.777406
_cell_angle_alpha                 90.001679
_cell_angle_beta                  89.226222
_cell_angle_gamma                 90.000338
_cell_volume                      2867.03997793

loop_
_atom_site_label
_atom_site_type_symbol
_atom_site_description
_atom_site_fract_x
_atom_site_fract_y
_atom_site_fract_z
_atom_type_partial_charge
O1    O     O_R   0.319640 0.618740 0.500000 -0.586512
O2    O     O_R   0.680360 0.381260 0.500000 -0.596583
O3    O     O_R   0.680360 0.618740 0.500000 -0.586521
O4    O     O_R   0.319640 0.381260 0.500000 -0.596579
C1    C     C_R   0.262004 0.500014 0.499962 0.819096
C2    C     C_R   0.737996 0.500015 0.500038 0.819038
O5    O     O_R   0.500020 0.618770 0.430260 -0.570833
O6    O     O_R   0.499980 0.381230 0.569740 -0.578504
O7    O     O_R   0.499980 0.618770 0.569740 -0.570831
O8    O     O_R   0.500020 0.381230 0.430260 -0.578503
C3    C     C_R   0.498084 0.499959 0.407417 0.842242
C4    C     C_R   0.501915 0.499963 0.592584 0.842188
Cu1   Cu    Cu3+1 0.500000 0.640660 0.500000 0.982999
Cu2   Cu    Cu3+1 0.500000 0.359340 0.500000 0.966813
C5    C     C_R   0.402572 0.438895 0.179729 0.573465
C6    C     C_R   0.597421 0.438969 0.820274 0.573649
O9    O     O_2   0.302775 0.408004 0.207187 -0.485996
O10   O     O_2   0.697255 0.408223 0.792815 -0.485797
N1    N     N_R   0.510709 0.472731 0.201682 -0.454235
N2    N     N_R   0.489267 0.472720 0.798319 -0.454241
C7    C     C_R   0.617158 0.492050 0.175725 0.596548
C8    C     C_R   0.382797 0.491932 0.824273 0.596537
C9    C     C_R   0.568967 0.385941 0.280742 -0.086277
C10   C     C_R   0.431073 0.385897 0.719255 -0.086282
C11   C     C_R   0.562700 0.390896 0.330617 -0.203556
C12   C     C_R   0.437344 0.390860 0.669380 -0.203487
C13   C     C_R   0.437914 0.603912 0.326988 -0.107889
C14   C     C_R   0.562006 0.603968 0.673018 -0.107868
C15   C     C_R   0.446476 0.600346 0.275909 -0.045540
C16   C     C_R   0.553436 0.600398 0.724097 -0.045589
C17   C     C_R   0.511489 0.488973 0.253169 0.272837
C18   C     C_R   0.488484 0.488973 0.746832 0.272822
C19   C     C_R   0.504699 0.456866 0.101719 -0.108394
C20   C     C_R   0.495260 0.456823 0.898281 -0.108450
C21   C     C_R   0.395423 0.436971 0.129030 -0.117870
C22   C     C_R   0.604552 0.436995 0.870973 -0.117802
C23   C     C_R   0.282757 0.417434 0.105092 0.496102
C24   C     C_R   0.717218 0.417470 0.894913 0.496094
C25   C     C_R   0.616716 0.481280 0.125379 0.011298
C26   C     C_R   0.383233 0.481153 0.874619 0.011335
C27   C     C_R   0.498161 0.498814 0.354275 -0.121468
C28   C     C_R   0.501825 0.498825 0.645727 -0.121494
C29   C     C_R   0.385677 0.458605 0.976181 0.092584
C30   C     C_R   0.614271 0.458691 0.023818 0.092556
C31   C     C_R   0.611553 0.443689 0.973060 -0.022132
C32   C     C_R   0.388403 0.443641 0.026941 -0.022119
C33   C     C_R   0.497569 0.452919 0.949279 0.070079
C34   C     C_R   0.502385 0.452947 0.050721 0.070092
C35   C     C_R   0.275074 0.483583 0.951482 -0.205963
C36   C     C_R   0.724861 0.483776 0.048514 -0.205924
C37   C     C_R   0.274659 0.497299 0.901692 -0.156485
C38   C     C_R   0.725272 0.497521 0.098302 -0.156461
O11   O     O_2   0.277140 0.522175 0.801401 -0.544333
O12   O     O_2   0.722800 0.522379 0.198596 -0.544336
C39   C     C_R   0.280902 0.418770 0.054638 -0.307295
C40   C     C_R   0.719065 0.418833 0.945367 -0.307333
H1    H     H_    0.390804 0.309830 0.649095 0.171453
H2    H     H_    0.609293 0.309904 0.350900 0.171417
H3    H     H_    0.382704 0.299938 0.736747 0.161278
H4    H     H_    0.617387 0.300021 0.263246 0.161266
H5    H     H_    0.188628 0.520840 0.884459 0.159286
H6    H     H_    0.811284 0.521163 0.115532 0.159196
H7    H     H_    0.188228 0.499510 0.970104 0.129447
H8    H     H_    0.811693 0.499769 0.029887 0.129509
H9    H     H_    0.194798 0.393840 0.037631 0.147442
H10   H     H_    0.805150 0.393897 0.962386 0.147403
C41   C     C_R   0.063787 0.372321 0.499955 -0.166926
C42   C     C_R   0.936205 0.627824 0.500073 -0.158875
C43   C     C_R   0.936212 0.372321 0.500045 -0.166934
C44   C     C_R   0.063797 0.627824 0.499927 -0.158901
H11   H     H_    0.111727 0.272411 0.499926 0.148789
H12   H     H_    0.888242 0.727724 0.500155 0.145207
H13   H     H_    0.888270 0.272411 0.500074 0.148790
H14   H     H_    0.111761 0.727723 0.499845 0.145202
C45   C     C_R   0.871829 0.500062 0.500083 -0.006778
C46   C     C_R   0.128171 0.500061 0.499917 -0.006760
C47   C     C_R   0.417335 0.074462 0.473156 -0.008141
C48   C     C_R   0.582806 0.925636 0.526741 0.004439
C49   C     C_R   0.582665 0.074467 0.526844 -0.008129
C50   C     C_R   0.417195 0.925630 0.473259 0.004405
H15   H     H_    0.351203 0.130560 0.451600 0.136531
H16   H     H_    0.649243 0.869671 0.548034 0.135456
H17   H     H_    0.648798 0.130570 0.548399 0.136526
H18   H     H_    0.350759 0.869660 0.451964 0.135479
N3    N     N_R   0.500000 0.852070 0.500000 -0.171958
N4    N     N_R   0.500000 0.147930 0.500000 -0.171983
C51   C     C_2   0.362039 0.712482 0.351684 0.912981
O13   O     O_2   0.383131 0.837296 0.344907 -0.579170
O14   O     O_R   0.265755 0.670962 0.382466 -0.757775
H19   H     H_    0.217569 0.753622 0.395982 0.320386
C52   C     C_2   0.637832 0.712584 0.648327 0.913099
O15   O     O_2   0.616637 0.837385 0.655085 -0.579176
O16   O     O_R   0.734194 0.671122 0.617572 -0.757703
H20   H     H_    0.782350 0.753814 0.604062 0.320390
C53   C     C_2   0.385625 0.708827 0.245678 0.881267
O17   O     O_2   0.281792 0.750094 0.255840 -0.567117
O18   O     O_R   0.446594 0.761695 0.204869 -0.760226
H21   H     H_    0.395276 0.832878 0.186806 0.334869
C54   C     C_2   0.614226 0.708924 0.754335 0.881347
O19   O     O_2   0.717997 0.750348 0.744155 -0.566910
O20   O     O_R   0.553275 0.761649 0.795170 -0.760225
H22   H     H_    0.604573 0.832835 0.813243 0.334876
O21   O     O_3   0.176219 0.386413 0.131118 -0.554846
C55   C     C_3   0.087050 0.493934 0.125993 0.060020
H23   H     H_    0.999289 0.451562 0.140818 0.189566
H24   H     H_    0.069754 0.521099 0.087710 0.103048
C56   C     C_3   0.119932 0.626057 0.154955 -0.321408
H25   H     H_    0.130378 0.597699 0.193466 0.287801
H26   H     H_    0.208409 0.670898 0.141450 0.205654
C57   C     C_3   0.019996 0.738104 0.150991 -0.840232
H27   H     H_    0.006766 0.767899 0.112728 0.242756
H28   H     H_    0.047681 0.833152 0.171416 0.282650
H29   H     H_    0.931548 0.698501 0.166324 0.283922
O22   O     O_3   0.823743 0.386441 0.868877 -0.554880
C58   C     C_3   0.913059 0.493774 0.874070 0.060978
H30   H     H_    0.000584 0.451614 0.858947 0.189969
H31   H     H_    0.930920 0.520044 0.912383 0.102872
C59   C     C_3   0.879903 0.626600 0.845528 -0.323353
H32   H     H_    0.868461 0.599052 0.806995 0.287863
H33   H     H_    0.791867 0.671555 0.859448 0.205308
C60   C     C_3   0.980302 0.738137 0.849395 -0.839741
H34   H     H_    0.994702 0.766923 0.887682 0.242654
H35   H     H_    0.952341 0.833808 0.829365 0.282310
H36   H     H_    0.068217 0.698538 0.833573 0.284148

loop_
_geom_bond_atom_site_label_1
_geom_bond_atom_site_label_2
_geom_bond_distance
_ccdc_geom_bond_type
C16   C18   1.416552 A    
C51   O13   1.222873 D    
O16   H20   1.013472 S    
C35   H7    1.079844 S    
C13   C15   1.421023 A    
C36   H8    1.079852 S    
C53   O17   1.222900 D    
C37   H5    1.078640 S    
C50   H18   1.079229 S    
O3    C2    1.290771 A    
N1    C17   1.438628 S    
C55   H24   1.112740 S    
O18   H21   1.013814 S    
C2    C45   1.452788 S    
C42   C45   1.401555 A    
O5    C3    1.296092 A    
C29   C32   1.417862 A    
C19   C25   1.409229 A    
O1    C1    1.290769 A    
N1    C7    1.366136 A    
C10   C12   1.386939 A    
C7    O12   1.349608 S    
C24   O22   1.387299 S    
C58   H30   1.108633 S    
C14   C28   1.419319 A    
O7    Cu1   1.948351 S    
C59   H32   1.110532 S    
C60   H36   1.111008 S    
C4    C28   1.476205 S    
C39   H9    1.079310 S    
C57   H27   1.111163 S    
C31   C40   1.409022 A    
C13   C27   1.419317 A    
C35   C37   1.389234 A    
C32   C39   1.409020 A    
C44   H14   1.083281 S    
C36   C38   1.389224 A    
C56   H25   1.110508 S    
C43   H13   1.083264 S    
C41   H11   1.083265 S    
O3    Cu1   1.968886 S    
C6    N2    1.368432 A    
C25   C38   1.397926 A    
Cu1   Cu2   2.675161 S    
C56   H26   1.111406 S    
O2    C2    1.291008 A    
C5    C21   1.411574 A    
C55   H23   1.108545 S    
O7    C4    1.296098 A    
O22   C58   1.416444 S    
C8    O11   1.349611 S    
C57   H28   1.110720 S    
C31   C33   1.413168 A    
C9    H4    1.083085 S    
C32   C34   1.413176 A    
O20   H22   1.013831 S    
Cu2   N4    2.010365 S    
O8    Cu2   1.948351 S    
C11   C27   1.401181 A    
C52   O15   1.222875 D    
C23   O21   1.387267 S    
C48   C49   1.415290 A    
C29   C35   1.410971 A    
C58   H31   1.112704 S    
C16   C54   1.490251 S    
C42   H12   1.083281 S    
C41   C43   1.384801 A    
C59   C60   1.525567 S    
C9    C17   1.395992 A    
C5    N1    1.368428 A    
C10   C18   1.395987 A    
C50   N3    1.366407 A    
C52   O16   1.398296 S    
C48   H16   1.079225 S    
C54   O19   1.222871 D    
C7    C25   1.402307 A    
C47   H15   1.081691 S    
O6    C4    1.295449 A    
C58   C59   1.536651 S    
C8    C26   1.402305 A    
C13   C51   1.483089 S    
C57   H29   1.110847 S    
C60   H34   1.111267 S    
C48   N3    1.366404 A    
C6    O10   1.348821 S    
C54   O20   1.398381 S    
N2    C8    1.366142 A    
C47   N4    1.366510 A    
C51   O14   1.398303 S    
C44   C46   1.401559 A    
C56   C57   1.525601 S    
C20   C26   1.409235 A    
O1    Cu1   1.968883 S    
C11   H2    1.083572 S    
C30   C31   1.417834 A    
C12   C28   1.401175 A    
C15   C53   1.490202 S    
N2    C18   1.438632 S    
C47   C50   1.415292 A    
C30   C36   1.410957 A    
C5    O9    1.348805 S    
O6    Cu2   1.948339 S    
C21   C23   1.412206 A    
O4    C1    1.291011 A    
C53   O18   1.398386 S    
C41   C46   1.401415 A    
C26   C37   1.397937 A    
C1    C46   1.452787 S    
C22   C24   1.412218 A    
C15   C17   1.416541 A    
C38   H6    1.078608 S    
C6    C22   1.411593 A    
C49   H17   1.081690 S    
C10   H3    1.083076 S    
C40   H10   1.079286 S    
C49   N4    1.366507 A    
C14   C16   1.421038 A    
C19   C21   1.412125 A    
C43   C45   1.401418 A    
C14   C52   1.483069 S    
C20   C22   1.412134 A    
C9    C11   1.386952 A    
O4    Cu2   1.968886 S    
O2    Cu2   1.968883 S    
C12   H1    1.083561 S    
C59   H33   1.111535 S    
C60   H35   1.110828 S    
O8    C3    1.295442 A    
C23   C39   1.401950 A    
O5    Cu1   1.948339 S    
C24   C40   1.401974 A    
C42   C44   1.384973 A    
C3    C27   1.476184 S    
Cu1   N3    2.010364 S    
O21   C55   1.416449 S    
C19   C34   1.417657 A    
C20   C33   1.417645 A    
O14   H19   1.013458 S    
C29   C33   1.418458 A    
C55   C56   1.536509 S    
C30   C34   1.418443 A    
