data_mof_unit_22994.cif
_audit_creation_date              2012-12-10T20:39:57-0500
_audit_creation_method            fapswitch 2.2
_symmetry_space_group_name_H-M    P1
_symmetry_Int_Tables_number       1
_space_group_crystal_system       triclinic
_cell_length_a                    23.422276
_cell_length_b                    10.671806
_cell_length_c                    9.860179
_cell_angle_alpha                 89.665006
_cell_angle_beta                  90.183821
_cell_angle_gamma                 90.033343
_cell_volume                      2464.57527913

loop_
_atom_site_label
_atom_site_type_symbol
_atom_type_description
_atom_site_fract_x
_atom_site_fract_y
_atom_site_fract_z
_atom_type_partial_charge
C1    C     C_R   0.501767 0.259867 0.500326 0.885764
C2    C     C_R   0.969687 0.300940 0.392280 -0.188159
C3    C     C_R   0.029270 0.297747 0.392081 -0.043630
C4    C     C_R   0.060410 0.403684 0.438904 -0.062331
C5    C     C_R   0.030653 0.507179 0.494383 -0.056910
C6    C     C_R   0.060752 0.611231 0.547949 -0.149453
C7    C     C_R   0.029950 0.716051 0.597490 0.463024
C8    C     C_R   0.970666 0.711817 0.602557 -0.135205
C9    C     C_R   0.120117 0.412695 0.429403 0.549808
C10   C     C_R   0.120510 0.604386 0.553606 0.536227
C11   C     C_R   0.240951 0.591346 0.410538 0.510021
C12   C     C_R   0.389623 0.498291 0.499781 0.897600
C13   C     C_R   0.300134 0.586368 0.416490 -0.241157
C14   C     C_R   0.327810 0.497505 0.498325 -0.228911
C15   C     C_R   0.295924 0.410515 0.575958 0.451538
C16   C     C_R   0.236790 0.418826 0.573958 -0.085957
C17   C     C_R   0.209167 0.507389 0.491872 0.075369
C18   C     C_R   0.762355 0.495302 0.623573 -0.088237
C19   C     C_R   0.703090 0.493697 0.623593 -0.201544
C20   C     C_R   0.672956 0.502083 0.500533 -0.041282
C21   C     C_R   0.702792 0.512646 0.377734 -0.207524
C22   C     C_R   0.762014 0.514629 0.378123 -0.089030
C23   C     C_R   0.502032 0.740016 0.499740 0.888054
C24   C     C_R   0.791751 0.505668 0.500893 0.302205
C25   C     C_R   0.511721 0.062867 0.623493 0.102724
C26   C     C_R   0.511249 0.128478 0.501075 -0.092689
C27   C     C_R   0.522307 0.065504 0.379347 -0.187778
C28   C     C_R   0.522593 0.935924 0.379023 -0.179393
C29   C     C_R   0.511709 0.871236 0.500310 -0.124727
C30   C     C_R   0.512026 0.934981 0.623077 0.114082
C31   C     C_3   0.471625 0.926281 0.740500 -0.204141
C32   C     C_3   0.471737 0.068677 0.741363 -0.530289
C33   C     C_R   0.450324 0.481970 0.071083 0.183609
C34   C     C_R   0.610701 0.500418 0.500163 0.877857
C35   C     C_R   0.547933 0.529103 0.072064 -0.131117
C36   C     C_R   0.547960 0.528858 0.928232 -0.067784
C37   C     C_R   0.450427 0.482266 0.928294 0.241939
C38   C     C_3   0.412779 0.370141 0.921051 -0.530924
C39   C     C_3   0.413065 0.368081 0.075368 -0.303534
C40   C     C_R   0.881022 0.606310 0.552663 0.539853
C41   C     C_R   0.880585 0.405325 0.447392 0.521999
C42   C     C_R   0.940225 0.403885 0.444120 -0.011769
C43   C     C_R   0.970563 0.506622 0.496703 -0.012005
C44   C     C_R   0.940686 0.608729 0.551940 -0.112347
H1    H     H_    0.946262 0.220048 0.355965 0.211634
H2    H     H_    0.681001 0.485360 0.719555 0.158400
H3    H     H_    0.680503 0.519667 0.281597 0.156761
H4    H     H_    0.784920 0.522949 0.283251 0.148266
H5    H     H_    0.526652 0.115140 0.283767 0.176592
H6    H     H_    0.527205 0.887547 0.283470 0.175025
H7    H     H_    0.429722 0.884750 0.711962 0.158343
H8    H     H_    0.429654 0.109907 0.713691 0.216462
H9    H     H_    0.492660 0.110635 0.831800 0.204572
H10   H     H_    0.586869 0.551018 0.126048 0.154678
H11   H     H_    0.586919 0.550537 0.874504 0.164239
H12   H     H_    0.370865 0.393132 0.874133 0.266015
H13   H     H_    0.434648 0.288556 0.875800 0.203931
H14   H     H_    0.435222 0.284863 0.119285 0.171066
H15   H     H_    0.948108 0.792134 0.642480 0.219099
H16   H     H_    0.324770 0.651960 0.355944 0.208022
H17   H     H_    0.211781 0.353658 0.634013 0.197815
H18   H     H_    0.785524 0.487907 0.718507 0.149062
N1    N     N_R   0.852519 0.505706 0.500646 -0.358543
N2    N     N_R   0.148322 0.508915 0.490671 -0.357437
N3    N     N_R   0.499610 0.499140 0.142800 -0.130490
N4    N     N_R   0.499610 0.499180 0.857150 -0.119576
O1    O     O_R   0.500010 0.316790 0.614690 -0.622990
O2    O     O_2   0.850713 0.306986 0.398804 -0.541047
O3    O     O_2   0.150184 0.328513 0.357360 -0.497125
O4    O     O_2   0.151010 0.690318 0.622814 -0.485947
O5    O     O_R   0.500000 0.316760 0.385350 -0.623948
O6    O     O_R   0.416160 0.499980 0.614700 -0.613989
O7    O     O_R   0.416150 0.499940 0.385360 -0.605653
O8    O     O_R   0.500000 0.683240 0.614650 -0.604346
O9    O     O_R   0.499990 0.683210 0.385310 -0.619631
O10   O     O_R   0.583850 0.500060 0.614640 -0.625537
O11   O     O_R   0.583840 0.500020 0.385300 -0.632087
O12   O     O_2   0.851585 0.704024 0.603456 -0.540933
Zn1   Zn    Zn3+2 0.500000 0.500020 0.653130 0.975188
Zn2   Zn    Zn3+2 0.500000 0.499980 0.346870 0.964278
C45   C     C_2   0.497144 0.868768 0.866990 0.976898
O13   O     O_2   0.545939 0.827892 0.867202 -0.631360
O14   O     O_R   0.463982 0.861330 0.984251 -0.784808
H19   H     H_    0.484725 0.818304 0.061951 0.333506
C46   C     C_2   0.056334 0.177781 0.352909 1.014189
O15   O     O_2   0.041454 0.125252 0.248686 -0.593172
O16   O     O_R   0.096648 0.121601 0.438703 -0.732269
H20   H     H_    0.111402 0.039295 0.401836 0.360490
C47   C     C_2   0.355204 0.392633 0.135630 1.024447
O17   O     O_2   0.336018 0.320333 0.220619 -0.594861
O18   O     O_R   0.323269 0.496549 0.093297 -0.776659
H21   H     H_    0.284401 0.500150 0.137963 0.366973
O19   O     O_3   0.055786 0.825696 0.637714 -0.681515
H22   H     H_    0.084365 0.847816 0.567653 0.370028
O20   O     O_3   0.216279 0.678014 0.323888 -0.714105
H23   H     H_    0.174618 0.663509 0.318911 0.343137
O21   O     O_3   0.320078 0.314355 0.650870 -0.746409
H24   H     H_    0.360104 0.301764 0.622396 0.331475

loop_
_geom_bond_atom_site_label_1
_geom_bond_atom_site_label_2
_ccdc_geom_bond_type
C22   H4    S    
O16   H20   S    
O19   H22   S    
C3    C46   S    
C9    N2    A    
C41   C42   A    
C19   C20   A    
O10   Zn1   S    
O21   H24   S    
C19   H2    S    
C33   N3    A    
C7    C8    A    
C13   H16   S    
C46   O15   D    
N4    Zn1   S    
C26   C27   A    
C33   C39   S    
C40   N1    A    
C18   C24   A    
C5    C6    A    
C23   C29   S    
C28   C29   A    
C9    O3    S    
O6    Zn1   S    
C8    H15   S    
C30   C31   S    
C36   N4    A    
C35   N3    A    
C15   C16   A    
C18   C19   A    
C32   H8    S    
C28   H6    S    
C31   C32   S    
C16   C17   A    
C13   C14   A    
C47   O18   S    
C29   C30   A    
O9    Zn2   S    
C20   C34   S    
C25   C32   S    
C5    C43   A    
N3    Zn2   S    
C12   O7    A    
C35   H10   S    
C15   O21   S    
O5    Zn2   S    
C45   O14   S    
C45   O13   D    
C41   O2    S    
C46   O16   S    
C2    H1    S    
C7    O19   S    
O1    Zn1   S    
C23   O9    A    
O18   H21   S    
C18   H18   S    
C25   C26   A    
C39   H14   S    
C33   C37   A    
C35   C36   A    
C43   C44   A    
C37   C38   S    
C38   H13   S    
O14   H19   S    
C37   N4    A    
C1    O5    A    
C10   O4    S    
C12   C14   S    
C24   N1    S    
O8    Zn1   S    
C1    C26   S    
C22   C24   A    
C16   H17   S    
C41   N1    A    
C23   O8    A    
C3    C4    A    
C32   H9    S    
C27   C28   A    
O11   Zn2   S    
C11   O20   S    
C25   C30   A    
C11   C17   A    
C10   N2    A    
C8    C44   A    
C31   H7    S    
C4    C5    A    
C6    C10   A    
C6    C7    A    
C31   C45   S    
C2    C3    A    
C4    C9    A    
C34   O11   A    
C36   H11   S    
C11   C13   A    
C38   C39   S    
C2    C42   A    
C1    O1    A    
O7    Zn2   S    
C40   O12   S    
C12   O6    A    
C40   C44   A    
C38   H12   S    
C20   C21   A    
C42   C43   A    
O20   H23   S    
C14   C15   A    
C17   N2    S    
C47   O17   D    
C21   C22   A    
C39   C47   S    
C27   H5    S    
C34   O10   A    
C21   H3    S    
