data_mof_unit_52790.cif
_audit_creation_date              2012-12-10T17:04:21-0500
_audit_creation_method            fapswitch 2.2
_symmetry_space_group_name_H-M    P1
_symmetry_Int_Tables_number       1
_space_group_crystal_system       triclinic
_cell_length_a                    11.673432
_cell_length_b                    11.022943
_cell_length_c                    9.979605
_cell_angle_alpha                 112.503448
_cell_angle_beta                  97.876342
_cell_angle_gamma                 92.832994
_cell_volume                      1167.85713507

loop_
_atom_site_label
_atom_site_type_symbol
_atom_type_description
_atom_site_fract_x
_atom_site_fract_y
_atom_site_fract_z
_atom_type_partial_charge
C1    C     C_R   0.487788 0.252506 0.438060 0.779597
C2    C     C_R   0.508603 0.747985 0.561725 0.816116
C3    C     C_R   0.284394 0.500211 0.500843 0.783171
C4    C     C_R   0.715628 0.500231 0.499237 0.815830
C5    C     C_1   0.162791 0.500396 0.502103 -0.199442
C6    C     C_1   0.837216 0.499969 0.497904 -0.195559
C7    C     C_1   0.060061 0.500262 0.501043 -0.010307
C8    C     C_1   0.939933 0.500028 0.498883 -0.016780
C9    C     C_2   0.472470 0.108368 0.397925 -0.072722
C10   C     C_2   0.507791 0.891962 0.597132 -0.069404
C11   C     C_2   0.459592 0.065331 0.504887 -0.213623
C12   C     C_2   0.461093 0.926701 0.486838 -0.198487
C13   C     C_2   0.520038 0.496781 0.075070 0.612097
C14   C     C_2   0.494135 0.477771 0.913132 0.561819
Cu1   Cu    Cu3+1 0.519790 0.521810 0.644910 0.963171
Cu2   Cu    Cu3+1 0.480210 0.478190 0.355090 0.987726
H1    H     H_    0.426630 0.851382 0.378895 0.186225
H2    H     H_    0.455291 0.136551 0.613872 0.213420
N1    N     N_2   0.450460 0.445430 0.137370 -0.035145
N2    N     N_2   0.549540 0.554570 0.862630 -0.032114
O1    O     O_R   0.510560 0.332330 0.577400 -0.541868
O2    O     O_R   0.489440 0.667670 0.422600 -0.559298
O3    O     O_R   0.477140 0.295500 0.332650 -0.612220
O4    O     O_R   0.522860 0.704500 0.667350 -0.575700
O5    O     O_R   0.353910 0.518430 0.622380 -0.586456
O6    O     O_R   0.646090 0.481570 0.377620 -0.539893
O7    O     O_R   0.320490 0.481600 0.377630 -0.551935
O8    O     O_R   0.679510 0.518400 0.622370 -0.598521
C15   C     C_3   0.558182 0.000718 0.748031 -0.406555
C16   C     C_3   0.635112 0.959428 0.856285 -0.346951
C17   C     C_3   0.694496 0.079866 0.990627 -0.903025
H3    H     H_    0.755792 0.139600 0.957915 0.254491
H4    H     H_    0.628668 0.142423 0.043853 0.251647
H5    H     H_    0.744168 0.047143 0.071479 0.244911
H6    H     H_    0.580977 0.898663 0.895525 0.270740
H7    H     H_    0.703513 0.903497 0.800847 0.212103
H8    H     H_    0.613612 0.076156 0.729757 0.228099
H9    H     H_    0.485237 0.049006 0.800578 0.200654
C18   C     C_3   0.470870 0.014516 0.239325 -0.371052
C19   C     C_3   0.345430 0.962989 0.158951 -0.368707
C20   C     C_3   0.341818 0.875184 0.997106 -0.811153
H10   H     H_    0.379582 0.932344 0.940013 0.243353
H11   H     H_    0.390808 0.789119 0.986543 0.287593
H12   H     H_    0.250155 0.838112 0.943058 0.232850
H13   H     H_    0.301939 0.905401 0.211559 0.223549
H14   H     H_    0.295342 0.047715 0.165938 0.201996
H15   H     H_    0.513675 0.066639 0.180770 0.203354
H16   H     H_    0.522377 0.931230 0.234489 0.228048
O9    O     O_3   0.441823 0.353754 0.815607 -0.632495
C21   C     C_3   0.321960 0.354625 0.768721 -0.192643
H17   H     H_    0.287930 0.451926 0.819259 0.161072
H18   H     H_    0.270888 0.280251 0.792125 0.163879
H19   H     H_    0.303682 0.317621 0.647186 0.158728
O10   O     O_3   0.628357 0.557788 0.154527 -0.562505
C22   C     C_3   0.711767 0.468928 0.105674 -0.327898
H20   H     H_    0.715160 0.439868 0.986847 0.129896
H21   H     H_    0.694391 0.377871 0.125802 0.171647
H22   H     H_    0.798974 0.517730 0.168344 0.194294
O11   O     O_3   0.590609 0.676336 0.963902 -0.537963
C23   C     C_3   0.705086 0.703435 0.945783 -0.121061
H23   H     H_    0.706690 0.717484 0.842573 0.168733
H24   H     H_    0.759882 0.624617 0.947855 0.139320
H25   H     H_    0.744971 0.796502 0.038099 0.135649
O12   O     O_3   0.342436 0.396294 0.061810 -0.540914
C24   C     C_3   0.319021 0.270330 0.063663 -0.118082
H26   H     H_    0.292608 0.277294 0.168203 0.181007
H27   H     H_    0.393665 0.210647 0.039954 0.138611
H28   H     H_    0.243617 0.215509 0.976893 0.105082

loop_
_geom_bond_atom_site_label_1
_geom_bond_atom_site_label_2
_ccdc_geom_bond_type
C15   H9    S    
C2    O2    A    
C21   H18   S    
C11   C12   S    
C17   H4    S    
C11   H2    S    
C1    O1    A    
C15   C16   S    
C22   H21   S    
C9    C11   D    
C20   H10   S    
C13   O10   S    
C4    O6    A    
C17   H3    S    
C16   H7    S    
N1    O12   S    
C22   H20   S    
C24   H28   S    
O12   C24   S    
Cu2   O7    S    
C3    O7    A    
C21   H17   S    
C17   H5    S    
C7    C8    S    
O11   C23   S    
Cu1   O4    S    
C13   C14   S    
C12   H1    S    
C19   H14   S    
C20   H11   S    
C10   C15   S    
Cu1   O8    S    
C16   C17   S    
Cu1   O1    S    
C10   C12   D    
C16   H6    S    
Cu2   N1    S    
C6    C8    T    
C4    C6    S    
C19   C20   S    
C4    O8    A    
C1    O3    A    
Cu2   O3    S    
C5    C7    T    
C23   H25   S    
C2    O4    A    
C19   H13   S    
C20   H12   S    
Cu1   O5    S    
C14   O9    S    
C13   N1    D    
Cu1   Cu2   S    
C21   H19   S    
C14   N2    D    
C3    O5    A    
C1    C9    S    
C23   H24   S    
C24   H26   S    
C22   H22   S    
C15   H8    S    
C18   C19   S    
O9    C21   S    
O10   C22   S    
C23   H23   S    
Cu2   O2    S    
C3    C5    S    
C18   H15   S    
Cu1   N2    S    
C9    C18   S    
N2    O11   S    
C18   H16   S    
C24   H27   S    
Cu2   O6    S    
C2    C10   S    
