data_mof_unit_28593.cif
_audit_creation_date              2012-12-10T19:43:23-0500
_audit_creation_method            fapswitch 2.2
_symmetry_space_group_name_H-M    P1
_symmetry_Int_Tables_number       1
_space_group_crystal_system       triclinic
_cell_length_a                    10.913385
_cell_length_b                    10.811046
_cell_length_c                    9.660755
_cell_angle_alpha                 90.213008
_cell_angle_beta                  91.887654
_cell_angle_gamma                 93.420406
_cell_volume                      1137.15889072

loop_
_atom_site_label
_atom_site_type_symbol
_atom_type_description
_atom_site_fract_x
_atom_site_fract_y
_atom_site_fract_z
_atom_type_partial_charge
C1    C     C_R   0.502526 0.261830 0.500961 0.835078
C2    C     C_R   0.161647 0.208941 0.052744 -0.073552
C3    C     C_R   0.927497 0.430244 0.398059 0.581550
C4    C     C_R   0.872632 0.488286 0.508163 -0.165368
C5    C     C_R   0.948145 0.528425 0.623646 0.057666
C6    C     C_R   0.074647 0.534347 0.612214 -0.168970
C7    C     C_R   0.129158 0.490220 0.495216 -0.154133
C8    C     C_R   0.055207 0.431690 0.389117 -0.104148
C9    C     C_R   0.940127 0.640155 0.850607 0.226205
C10   C     C_R   0.924408 0.634056 0.993958 0.182991
C11   C     C_R   0.860704 0.531448 0.050119 -0.363718
C12   C     C_R   0.262765 0.495078 0.497738 0.815591
C13   C     C_R   0.825077 0.427978 0.968259 0.308742
C14   C     C_R   0.855889 0.425990 0.829017 0.198133
C15   C     C_R   0.905346 0.535384 0.766730 -0.119509
C16   C     C_R   0.539875 0.113236 0.762494 -0.055450
C17   C     C_R   0.513672 0.052441 0.885785 -0.072256
C18   C     C_R   0.452125 0.936745 0.881824 -0.148166
C19   C     C_R   0.426881 0.876754 0.756444 -0.101875
C20   C     C_R   0.463023 0.932759 0.631470 0.068563
C21   C     C_R   0.501758 0.059316 0.632560 0.085028
C22   C     C_R   0.495734 0.125621 0.505017 -0.129888
C23   C     C_R   0.482962 0.735126 0.500349 0.850112
C24   C     C_R   0.457224 0.061405 0.382797 -0.192635
C25   C     C_R   0.437028 0.933245 0.382775 0.267279
C26   C     C_R   0.457124 0.867428 0.504726 -0.148358
C27   C     C_R   0.637375 0.688384 0.147636 -0.332149
C28   C     C_R   0.687665 0.790556 0.078070 0.571001
C29   C     C_R   0.691336 0.787803 0.935160 0.556759
C30   C     C_R   0.640871 0.684699 0.862587 -0.384361
C31   C     C_R   0.567440 0.592056 0.928114 0.116290
C32   C     C_R   0.566505 0.592890 0.076993 0.163509
C33   C     C_R   0.438490 0.410144 0.071100 0.006156
C34   C     C_R   0.737887 0.496892 0.502709 0.878676
C35   C     C_R   0.437450 0.410757 0.923571 -0.047679
C36   C     C_R   0.143965 0.334727 0.032447 -0.168283
C37   C     C_R   0.118509 0.409875 0.144768 -0.078981
C38   C     C_R   0.105750 0.358716 0.277009 0.167595
C39   C     C_R   0.124769 0.232679 0.297188 -0.097852
C40   C     C_R   0.153446 0.158323 0.185359 -0.071723
Cu1   Cu    Cu3+1 0.499990 0.499990 0.640660 0.948973
Cu2   Cu    Cu3+1 0.500010 0.500010 0.359340 1.016243
H1    H     H_    0.182451 0.150987 0.966006 0.170304
H2    H     H_    0.840829 0.532352 0.158477 0.241957
H3    H     H_    0.438169 0.110879 0.287899 0.173588
H4    H     H_    0.591418 0.200760 0.772811 0.209930
H5    H     H_    0.539154 0.095680 0.984523 0.192003
H6    H     H_    0.429357 0.889881 0.975582 0.194645
H7    H     H_    0.376363 0.787662 0.758643 0.178970
H8    H     H_    0.389591 0.335514 0.123917 0.126861
H9    H     H_    0.150855 0.374240 0.929968 0.146979
H10   H     H_    0.662634 0.684460 0.254919 0.238894
H11   H     H_    0.665253 0.678501 0.756899 0.253101
H12   H     H_    0.385980 0.337263 0.866920 0.123779
H13   H     H_    0.106522 0.507231 0.128481 0.167168
H14   H     H_    0.113930 0.191484 0.398440 0.156758
H15   H     H_    0.166773 0.060953 0.201005 0.205956
H16   H     H_    0.131685 0.566555 0.700699 0.183952
N1    N     N_R   0.501190 0.501210 0.147910 -0.156054
N2    N     N_R   0.501230 0.501290 0.852040 -0.170997
O1    O     O_R   0.499990 0.319640 0.618810 -0.609330
O2    O     O_R   0.500000 0.319660 0.381240 -0.563880
O3    O     O_R   0.319640 0.500000 0.618780 -0.599607
O4    O     O_R   0.319650 0.500020 0.381210 -0.570529
O5    O     O_R   0.500000 0.680340 0.618760 -0.618145
O6    O     O_R   0.500010 0.680360 0.381190 -0.558717
O7    O     O_R   0.680350 0.499980 0.618790 -0.592517
O8    O     O_R   0.680360 0.500000 0.381220 -0.552524
Br1   Br    Br    0.738013 0.288424 0.048759 -0.332340
Br2   Br    Br    0.846015 0.269109 0.731281 -0.408651
Br3   Br    Br    0.350568 0.854607 0.227952 -0.536430
F1    F     F_    0.743220 0.887276 0.150405 -0.553750
F2    F     F_    0.751388 0.881332 0.867065 -0.551121
F3    F     F_    0.856551 0.357871 0.309319 -0.613408
Br4   Br    Br    0.011679 0.790249 0.771136 -0.355181
Br5   Br    Br    0.993493 0.761141 0.117677 -0.344746

loop_
_geom_bond_atom_site_label_1
_geom_bond_atom_site_label_2
_ccdc_geom_bond_type
C16   C21   A    
Cu1   Cu2   S    
C6    H16   S    
C19   C20   A    
Cu1   O1    S    
C1    O2    A    
C7    C8    A    
Cu1   O7    S    
C37   C38   A    
C13   Br1   S    
C24   H3    S    
C23   O6    A    
C28   C29   A    
C5    C6    A    
C12   O4    A    
C29   F2    S    
C18   C19   A    
C23   C26   S    
C3    F3    S    
C10   Br5   S    
C31   C32   A    
C16   C17   A    
C25   Br3   S    
C9    C10   A    
Cu2   O2    S    
C1    C22   S    
C33   N1    A    
C21   C22   A    
C35   H12   S    
Cu2   O8    S    
C14   Br2   S    
C28   F1    S    
C8    C38   S    
C25   C26   A    
C7    C12   S    
C30   H11   S    
C4    C34   S    
C38   C39   A    
C24   C25   A    
C3    C8    A    
C34   O8    A    
C39   C40   A    
C12   O3    A    
Cu1   O5    S    
C33   H8    S    
C18   H6    S    
C35   N2    A    
C31   N2    A    
Cu2   N1    S    
C29   C30   A    
C19   H7    S    
C39   H14   S    
C2    H1    S    
C17   C18   A    
C11   H2    S    
C36   H9    S    
C22   C24   A    
Cu1   O3    S    
C16   H4    S    
C3    C4    A    
Cu2   O4    S    
C27   H10   S    
C2    C36   A    
C36   C37   A    
C40   H15   S    
C27   C32   A    
C17   H5    S    
Cu1   N2    S    
C4    C5    A    
C1    O1    A    
C34   O7    A    
C6    C7    A    
C23   O5    A    
C9    C15   A    
C11   C13   A    
C30   C31   A    
C20   C26   A    
C33   C35   A    
C5    C15   S    
C10   C11   A    
C37   H13   S    
C2    C40   A    
C20   C21   A    
C27   C28   A    
Cu2   O6    S    
C14   C15   A    
C9    Br4   S    
C32   N1    A    
C13   C14   A    
