data_mof_unit_63637.cif
_audit_creation_date              2012-12-10T19:32:02-0500
_audit_creation_method            fapswitch 2.2
_symmetry_space_group_name_H-M    P1
_symmetry_Int_Tables_number       1
_space_group_crystal_system       triclinic
_cell_length_a                    18.746659
_cell_length_b                    18.516891
_cell_length_c                    18.79417
_cell_angle_alpha                 109.056025
_cell_angle_beta                  109.677113
_cell_angle_gamma                 109.164459
_cell_volume                      5053.79622275

loop_
_atom_site_label
_atom_site_type_symbol
_atom_type_description
_atom_site_fract_x
_atom_site_fract_y
_atom_site_fract_z
_atom_type_partial_charge
C1    C     C_R   0.380748 0.379894 0.500693 0.926742
C2    C     C_3   0.810811 0.504306 0.810957 -0.271729
C3    C     C_3   0.844448 0.598321 0.816718 0.569030
C4    C     C_3   0.724784 0.475935 0.817045 0.108296
C5    C     C_R   0.233711 0.258472 0.426652 0.102917
C6    C     C_R   0.314557 0.315242 0.501293 -0.125558
C7    C     C_R   0.326681 0.317821 0.580011 -0.116591
C8    C     C_R   0.261880 0.254061 0.580202 -0.166705
C9    C     C_R   0.184500 0.189981 0.502001 -0.088040
C10   C     C_R   0.168884 0.196655 0.427083 0.091358
C11   C     C_3   0.138397 0.128532 0.337744 -0.482157
C12   C     C_R   0.621139 0.500290 0.620335 1.004055
C13   C     C_3   0.210557 0.197046 0.337662 0.226780
C14   C     C_R   0.313939 0.497737 0.243836 -0.063340
C15   C     C_R   0.309197 0.497482 0.315452 -0.195625
C16   C     C_R   0.237963 0.500437 0.324483 0.352859
C17   C     C_R   0.174303 0.503482 0.260478 0.344842
C18   C     C_R   0.182444 0.502971 0.188061 -0.205081
C19   C     C_R   0.254370 0.502059 0.183783 -0.039051
C20   C     C_3   0.295926 0.495922 0.128452 0.434595
C21   C     C_3   0.365278 0.491905 0.198675 0.076716
C22   C     C_R   0.759996 0.681874 0.507243 0.073899
C23   C     C_R   0.619196 0.620409 0.499345 0.938238
C24   C     C_R   0.686515 0.687812 0.502264 -0.120037
C25   C     C_R   0.682176 0.763571 0.508220 -0.103281
C26   C     C_R   0.746183 0.827446 0.507418 -0.089346
C27   C     C_R   0.815848 0.816751 0.504439 -0.135678
C28   C     C_R   0.824965 0.746741 0.509736 0.096857
C29   C     C_3   0.838509 0.682230 0.451306 0.153525
C30   C     C_3   0.766405 0.610195 0.448484 0.080844
C31   C     C_R   0.998118 0.379764 0.878025 0.925192
C32   C     C_R   0.877070 0.502488 0.878531 1.005767
C33   C     C_R   0.999788 0.620460 0.119412 0.968863
C34   C     C_R   0.377552 0.498437 0.379834 0.981391
C35   C     C_R   0.117604 0.500844 0.119091 0.966646
C36   C     C_R   0.998388 0.118935 0.618876 0.884958
C37   C     C_R   0.119802 0.120286 0.499765 0.872758
C38   C     C_R   0.002433 0.881651 0.380783 0.918706
C39   C     C_R   0.880301 0.879893 0.500297 0.891213
C40   C     C_R   0.930359 0.229403 0.761266 0.025063
C41   C     C_R   0.999114 0.314612 0.812392 -0.059486
C42   C     C_R   0.070208 0.335822 0.797251 -0.089868
C43   C     C_R   0.070407 0.270914 0.733036 -0.167429
C44   C     C_R   0.999018 0.185499 0.683225 -0.036215
C45   C     C_3   0.726371 0.444149 0.649674 -0.341264
C46   C     C_R   0.930200 0.167537 0.699050 0.010290
C47   C     C_3   0.845531 0.096571 0.675316 0.105466
C48   C     C_3   0.845106 0.167953 0.746188 0.202814
C49   C     C_R   0.927525 0.689416 0.176299 0.135415
C50   C     C_R   0.004146 0.688444 0.187507 -0.216131
C51   C     C_R   0.085112 0.759778 0.258668 0.235528
C52   C     C_R   0.086321 0.826928 0.322450 0.221035
C53   C     C_R   0.006521 0.820056 0.314571 -0.221763
C54   C     C_R   0.928851 0.754640 0.238855 0.116906
C55   C     C_3   0.846720 0.692824 0.228883 -0.475309
C56   C     C_3   0.783592 0.431754 0.719900 0.017969
C57   C     C_3   0.845440 0.620444 0.160149 -0.368402
C58   C     C_3   0.765395 0.598423 0.753820 -0.021183
C59   C     C_3   0.651361 0.467277 0.739736 0.084029
C60   C     C_3   0.689787 0.501771 0.688357 -0.217554
H1    H     H_    0.764881 0.476683 0.624624 0.267230
H2    H     H_    0.741264 0.632118 0.792779 0.195821
H3    H     H_    0.387375 0.366147 0.639948 0.191282
H4    H     H_    0.273015 0.253297 0.640318 0.178594
H5    H     H_    0.148471 0.072411 0.337066 0.195386
H6    H     H_    0.071567 0.109630 0.290863 0.258136
H7    H     H_    0.262286 0.180858 0.335975 0.149028
H8    H     H_    0.673210 0.378245 0.594405 0.242733
H9    H     H_    0.363746 0.427669 0.176509 0.172055
H10   H     H_    0.627272 0.770876 0.508658 0.183009
H11   H     H_    0.740566 0.883828 0.507348 0.178897
H12   H     H_    0.819958 0.680472 0.387968 0.055226
H13   H     H_    0.706971 0.567607 0.383300 0.122942
H14   H     H_    0.743323 0.366403 0.710771 0.215819
H15   H     H_    0.125714 0.401503 0.835434 0.197439
H16   H     H_    0.125475 0.287155 0.722242 0.152747
H17   H     H_    0.793904 0.069109 0.607743 0.169021
H18   H     H_    0.850483 0.159015 0.803104 0.179128
H19   H     H_    0.857475 0.686385 0.287668 0.206446
H20   H     H_    0.792643 0.706060 0.202730 0.236948
H21   H     H_    0.855074 0.572047 0.179254 0.228315
H22   H     H_    0.790103 0.591448 0.094371 0.265640
H23   H     H_    0.622720 0.506694 0.764353 0.196105
H24   H     H_    0.703522 0.410710 0.813663 0.220053
O1    O     O_R   0.408690 0.356690 0.448570 -0.615376
O2    O     O_R   0.049530 0.460080 0.906210 -0.606888
O3    O     O_R   0.853510 0.448360 0.905260 -0.615800
O4    O     O_R   0.956950 0.551730 0.905200 -0.559167
O5    O     O_R   0.945130 0.540000 0.088470 -0.611185
O6    O     O_R   0.048570 0.643360 0.088400 -0.580003
O7    O     O_R   0.037700 0.448350 0.089480 -0.589870
O8    O     O_R   0.141150 0.551720 0.089410 -0.583939
O9    O     O_R   0.051500 0.091600 0.643170 -0.595693
O10   O     O_R   0.947510 0.091650 0.539220 -0.618036
O11   O     O_R   0.143610 0.091630 0.552030 -0.605605
O12   O     O_R   0.408080 0.460090 0.551420 -0.600962
O13   O     O_R   0.039620 0.091690 0.448080 -0.611625
O14   O     O_R   0.052490 0.908450 0.460880 -0.563112
O15   O     O_R   0.948500 0.908500 0.356930 -0.621387
O16   O     O_R   0.960380 0.908410 0.552020 -0.560470
O17   O     O_R   0.856390 0.908470 0.448070 -0.631300
O18   O     O_R   0.592400 0.448300 0.540680 -0.600633
O19   O     O_R   0.591790 0.551700 0.643540 -0.629972
O20   O     O_R   0.591920 0.539910 0.448580 -0.614824
O21   O     O_R   0.591310 0.643310 0.551430 -0.601391
O22   O     O_R   0.408210 0.448300 0.356460 -0.609842
O23   O     O_R   0.407600 0.551700 0.459320 -0.585489
O24   O     O_R   0.946090 0.356720 0.906270 -0.614386
Zn1   Zn    Zn3+2 0.500410 0.430960 0.431320 1.076844
Zn2   Zn    Zn3+2 0.499590 0.569040 0.568680 1.101694
Zn3   Zn    Zn3+2 0.928260 0.431020 0.997380 1.106159
Zn4   Zn    Zn3+2 0.066400 0.569060 0.997290 1.167364
Zn5   Zn    Zn3+2 0.069430 0.000010 0.569450 1.133837
Zn6   Zn    Zn3+2 0.930570 0.000090 0.430650 1.041247
Cl1   Cl    Cl    0.737388 0.545507 0.917954 -0.578533
Cl2   Cl    Cl    0.891172 0.686538 0.924432 -0.476029
Cl3   Cl    Cl    0.171284 0.232557 0.262653 -0.499901
Cl4   Cl    Cl    0.225048 0.495399 0.412047 -0.435621
Cl5   Cl    Cl    0.087483 0.511313 0.273495 -0.448271
Br1   Br    Br    0.222825 0.387164 0.018485 -0.469202
Br2   Br    Br    0.334087 0.598927 0.114136 -0.306794
Br3   Br    Br    0.482379 0.592695 0.268925 -0.443167
Cl6   Cl    Cl    0.946165 0.699080 0.504906 -0.402237
Br4   Br    Br    0.799940 0.544735 0.502975 -0.283000
Cl7   Cl    Cl    0.859425 0.017010 0.703426 -0.551459
Cl8   Cl    Cl    0.763063 0.194758 0.703527 -0.528853
Br5   Br    Br    0.192925 0.761207 0.274162 -0.316836
Br6   Br    Br    0.195978 0.926928 0.418321 -0.349644
Br7   Br    Br    0.875160 0.416891 0.700082 -0.357369
Br8   Br    Br    0.793401 0.670747 0.700031 -0.332710
Br9   Br    Br    0.940429 0.629092 0.790824 -0.215504
Cl9   Cl    Cl    0.563167 0.355835 0.671687 -0.597798

loop_
_geom_bond_atom_site_label_1
_geom_bond_atom_site_label_2
_ccdc_geom_bond_type
C58   H2    S    
O21   Zn2   S    
C45   C60   S    
C26   H11   S    
C41   C42   A    
C4    Cl1   S    
C2    C4    S    
C19   C20   S    
O6    Zn4   S    
C38   O14   A    
O15   Zn6   S    
C37   O13   A    
C52   Br6   S    
C7    C8    A    
C53   C54   A    
C40   C46   A    
C42   H15   S    
C58   Br8   S    
O19   Zn2   S    
C3    Br9   S    
C34   O23   A    
C14   C21   S    
C28   C29   S    
C59   H23   S    
C33   O5    A    
C3    Cl2   S    
C5    C6    A    
O3    Zn3   S    
C58   C60   S    
C49   C54   A    
C32   O4    A    
C49   C57   S    
C37   O11   A    
C2    C32   S    
C18   C19   A    
C31   O24   A    
C48   H18   S    
C21   Br3   S    
C54   C55   S    
C36   O9    A    
C23   O20   A    
C45   C56   S    
C27   C39   S    
C16   C17   A    
C17   C18   A    
C23   C24   S    
C39   O17   A    
C31   C41   S    
C18   C35   S    
C15   C34   S    
C5    C13   S    
C56   Br7   S    
C11   H6    S    
C29   H12   S    
C35   O8    A    
C48   Cl8   S    
C59   C60   S    
C31   O2    A    
C22   C28   A    
O17   Zn6   S    
C9    C10   A    
C44   C46   A    
C47   Cl7   S    
C1    O1    A    
C59   Cl9   S    
C56   H14   S    
C15   C16   A    
C51   C52   A    
C34   O22   A    
C24   C25   A    
C12   O19   A    
C30   H13   S    
O8    Zn4   S    
O14   Zn5   S    
C33   C50   S    
C32   O3    A    
O12   Zn2   S    
C1    C6    S    
C21   H9    S    
C12   C60   S    
O2    Zn4   S    
C43   C44   A    
C12   O18   A    
C29   C30   S    
C16   Cl4   S    
C55   H19   S    
C47   C48   S    
C4    H24   S    
C45   H8    S    
C9    C37   S    
C50   C51   A    
C8    C9    A    
O9    Zn5   S    
C7    H3    S    
C20   Br2   S    
C8    H4    S    
C40   C41   A    
C30   Br4   S    
O10   Zn6   S    
C55   C57   S    
C26   C27   A    
O23   Zn2   S    
C22   C24   A    
C36   C44   S    
C42   C43   A    
C47   H17   S    
C20   Br1   S    
C52   C53   A    
C13   H7    S    
C43   H16   S    
C40   C48   S    
C46   C47   S    
C22   C30   S    
C14   C15   A    
C14   C19   A    
O16   Zn5   S    
C38   O15   A    
C13   Cl3   S    
C6    C7    A    
O5    Zn3   S    
O1    Zn1   S    
O24   Zn3   S    
C51   Br5   S    
C2    C3    S    
C25   C26   A    
C5    C10   A    
C2    C56   S    
C33   O6    A    
C55   H20   S    
C11   C13   S    
C39   O16   A    
O20   Zn1   S    
C38   C53   S    
O11   Zn5   S    
C1    O12   A    
C29   Cl6   S    
C4    C59   S    
C45   H1    S    
C57   H21   S    
C10   C11   S    
C17   Cl5   S    
O7    Zn3   S    
O4    Zn4   S    
C3    C58   S    
C36   O10   A    
C20   C21   S    
C49   C50   A    
C27   C28   A    
C57   H22   S    
O18   Zn1   S    
C25   H10   S    
O13   Zn6   S    
C11   H5    S    
C35   O7    A    
O22   Zn1   S    
C23   O21   A    
