data_mof_unit_27774.cif
_audit_creation_date              2012-12-10T17:02:28-0500
_audit_creation_method            fapswitch 2.2
_symmetry_space_group_name_H-M    P1
_symmetry_Int_Tables_number       1
_space_group_crystal_system       triclinic
_cell_length_a                    10.784227
_cell_length_b                    11.080452
_cell_length_c                    9.879089
_cell_angle_alpha                 112.125199
_cell_angle_beta                  100.324568
_cell_angle_gamma                 89.444418
_cell_volume                      1073.69212468

loop_
_atom_site_label
_atom_site_type_symbol
_atom_type_description
_atom_site_fract_x
_atom_site_fract_y
_atom_site_fract_z
_atom_type_partial_charge
C1    C     C_R   0.488539 0.253562 0.439279 0.828005
C2    C     C_R   0.511456 0.746438 0.560721 0.827993
C3    C     C_2   0.477781 0.113251 0.402597 -0.175554
C4    C     C_2   0.522200 0.886750 0.597401 -0.175546
C5    C     C_2   0.504920 0.069366 0.512970 -0.202897
C6    C     C_2   0.495033 0.930631 0.487017 -0.202847
C7    C     C_2   0.509100 0.509961 0.082292 -0.092609
C8    C     C_2   0.490884 0.490056 0.917713 -0.092580
C9    C     C_R   0.262273 0.515572 0.501932 0.812511
C10   C     C_R   0.737728 0.484434 0.498070 0.812522
C11   C     C_R   0.151158 0.664876 0.772217 0.015545
C12   C     C_R   0.848848 0.335137 0.227792 0.015558
C13   C     C_R   0.116860 0.679926 0.907194 -0.161760
C14   C     C_R   0.883144 0.320086 0.092814 -0.161744
C15   C     C_R   0.012348 0.608639 0.908412 -0.179161
C16   C     C_R   0.987653 0.391377 0.091594 -0.179189
C17   C     C_R   0.935276 0.530927 0.774809 -0.123537
C18   C     C_R   0.064725 0.469091 0.225197 -0.123544
C19   C     C_R   0.962349 0.522749 0.636603 0.081907
C20   C     C_R   0.037653 0.477270 0.363403 0.081917
C21   C     C_R   0.081494 0.573458 0.636038 0.023029
C22   C     C_R   0.918509 0.426560 0.363968 0.023031
C23   C     C_R   0.874664 0.466628 0.499949 -0.222917
C24   C     C_R   0.125339 0.533388 0.500056 -0.222918
Cu1   Cu    Cu3+1 0.521920 0.521810 0.644910 0.965980
Cu2   Cu    Cu3+1 0.478080 0.478190 0.355090 0.965974
H1    H     H_    0.012138 0.382036 0.986731 0.157856
H2    H     H_    0.987863 0.617978 0.013274 0.157897
H3    H     H_    0.170000 0.748410 0.011598 0.152559
H4    H     H_    0.830006 0.251597 0.988411 0.152559
H5    H     H_    0.856921 0.474883 0.781687 0.156474
H6    H     H_    0.143082 0.525133 0.218319 0.156474
H7    H     H_    0.464172 0.861545 0.373447 0.184596
H8    H     H_    0.535763 0.138448 0.626531 0.184618
H9    H     H_    0.419498 0.416725 0.839654 0.170527
H10   H     H_    0.580453 0.583323 0.160357 0.170544
N1    N     N_2   0.445130 0.445420 0.137360 -0.236746
N2    N     N_2   0.554870 0.554580 0.862640 -0.236713
O1    O     O_R   0.511700 0.332340 0.577400 -0.598858
O2    O     O_R   0.488300 0.667660 0.422600 -0.598862
O3    O     O_R   0.474680 0.295500 0.332650 -0.557177
O4    O     O_R   0.525320 0.704500 0.667350 -0.557165
O5    O     O_R   0.338170 0.518410 0.622370 -0.575522
O6    O     O_R   0.661830 0.481590 0.377630 -0.575512
O7    O     O_R   0.301150 0.481570 0.377630 -0.590469
O8    O     O_R   0.698850 0.518430 0.622370 -0.590474
C25   C     C_1   0.241702 0.761099 0.775080 0.263317
N3    N     N_1   0.312466 0.840334 0.778514 -0.253660
C26   C     C_1   0.758321 0.238904 0.224940 0.263309
N4    N     N_1   0.687575 0.159661 0.221523 -0.253684
C27   C     C_1   0.563286 0.973764 0.751568 0.305604
N5    N     N_1   0.595905 0.043182 0.874491 -0.259458
C28   C     C_1   0.436719 0.026241 0.248441 0.305623
N6    N     N_1   0.404121 0.956828 0.125530 -0.259466
C29   C     C_1   0.646098 0.651423 0.958308 0.434947
N7    N     N_1   0.721999 0.732088 0.037641 -0.322677
C30   C     C_1   0.354002 0.348497 0.041680 0.435009
N8    N     N_1   0.278186 0.267764 0.962337 -0.322637

loop_
_geom_bond_atom_site_label_1
_geom_bond_atom_site_label_2
_ccdc_geom_bond_type
Cu1   O4    S    
C10   O8    A    
C19   C23   A    
C29   N7    T    
Cu2   N1    S    
C9    O7    A    
C2    O2    A    
C10   C23   S    
C11   C13   A    
C7    H10   S    
C2    C4    S    
C25   N3    T    
C6    H7    S    
C12   C14   A    
C5    H8    S    
Cu1   O5    S    
C16   H1    S    
C12   C26   S    
C30   N8    T    
Cu2   O6    S    
C7    C8    S    
C9    C24   S    
C16   C18   A    
C28   N6    T    
Cu1   O1    S    
C3    C28   S    
Cu2   O2    S    
C15   H2    S    
C8    N2    D    
C2    O4    A    
C13   H3    S    
C19   C21   A    
C14   H4    S    
C18   C20   A    
C13   C15   A    
C7    N1    D    
C5    C6    S    
C17   H5    S    
C14   C16   A    
C9    O5    A    
C18   H6    S    
C1    O1    A    
C4    C27   S    
C10   O6    A    
C27   N5    T    
C12   C22   A    
Cu1   N2    S    
C4    C6    D    
C26   N4    T    
C21   C24   A    
C1    O3    A    
C1    C3    S    
C15   C17   A    
C22   C23   A    
Cu2   O7    S    
C17   C19   A    
Cu1   Cu2   S    
C11   C25   S    
Cu1   O8    S    
C11   C21   A    
N1    C30   S    
N2    C29   S    
C20   C24   A    
Cu2   O3    S    
C20   C22   A    
C3    C5    D    
C8    H9    S    
