data_mof_unit_51134.cif
_audit_creation_date              2012-12-11T17:44:01-0500
_audit_creation_method            fapswitch 2.2
_symmetry_space_group_name_H-M    P1
_symmetry_Int_Tables_number       1
_space_group_crystal_system       triclinic
_cell_length_a                    20.430913
_cell_length_b                    22.655419
_cell_length_c                    6.938759
_cell_angle_alpha                 90.000815
_cell_angle_beta                  86.038617
_cell_angle_gamma                 89.999932
_cell_volume                      3204.07619868

loop_
_atom_site_label
_atom_site_type_symbol
_atom_type_description
_atom_site_fract_x
_atom_site_fract_y
_atom_site_fract_z
_atom_type_partial_charge
O1    O     O_R   0.751270 0.447300 0.600030 -0.546983
O2    O     O_R   0.248730 0.947300 0.399970 -0.546986
O3    O     O_R   0.613530 0.440160 0.952150 -0.545677
O4    O     O_R   0.386470 0.940160 0.047850 -0.545675
O5    O     O_R   0.613050 0.552700 0.122560 -0.519313
O6    O     O_R   0.386950 0.052700 0.877440 -0.519327
C1    C     C_R   0.591723 0.425838 0.789030 0.717388
C2    C     C_R   0.408278 0.925838 0.210967 0.717392
O7    O     O_R   0.750780 0.440350 0.929820 -0.548216
O8    O     O_R   0.249220 0.940350 0.070180 -0.548216
O9    O     O_R   0.751280 0.552900 0.100070 -0.531829
O10   O     O_R   0.248720 0.052900 0.899930 -0.531828
C3    C     C_R   0.773726 0.425730 0.756702 0.673873
C4    C     C_R   0.226275 0.925729 0.243296 0.673867
O11   O     O_R   0.613040 0.447100 0.622520 -0.533686
O12   O     O_R   0.386960 0.947100 0.377480 -0.533675
O13   O     O_3   0.682160 0.536920 0.777780 -0.355421
O14   O     O_3   0.317840 0.036920 0.222220 -0.355436
V1    V     V_3+5 0.682160 0.493150 0.052630 1.442573
V2    V     V_3+5 0.317840 0.993150 0.947370 1.442579
O15   O     O_R   0.750790 0.559840 0.429870 -0.551383
O16   O     O_R   0.249210 0.059840 0.570130 -0.551387
C5    C     C_R   0.777211 0.570225 0.257337 0.717350
C6    C     C_R   0.222786 0.070221 0.742664 0.717360
O17   O     O_R   0.613540 0.559650 0.452200 -0.524605
O18   O     O_R   0.386460 0.059650 0.547800 -0.524604
C7    C     C_R   0.593043 0.575891 0.288012 0.828942
C8    C     C_R   0.406956 0.075891 0.711990 0.829009
V3    V     V_3+5 0.682160 0.506850 0.552630 1.448548
V4    V     V_3+5 0.317840 0.006850 0.447370 1.448547
O19   O     O_3   0.682150 0.463080 0.277610 -0.381309
O20   O     O_3   0.317850 0.963080 0.722390 -0.381305
C9    C     C_R   0.559011 0.852548 0.005287 -0.152966
C10   C     C_R   0.440978 0.352558 0.994655 -0.152977
H1    H     H_    0.521592 0.940280 0.007424 0.099283
H2    H     H_    0.478402 0.440289 0.992530 0.099298
H3    H     H_    0.634740 0.765234 0.903397 0.132848
H4    H     H_    0.365245 0.265252 0.096531 0.132849
H5    H     H_    0.600244 0.864166 0.906165 0.115696
H6    H     H_    0.399740 0.364181 0.093755 0.115702
C11   C     C_R   0.461702 0.882917 0.195245 -0.045269
C12   C     C_R   0.538298 0.382919 0.804741 -0.045264
C13   C     C_R   0.481611 0.602821 0.413732 0.394465
C14   C     C_R   0.518394 0.102815 0.586314 0.394444
C15   C     C_R   0.430089 0.642406 0.447744 -0.175574
C16   C     C_R   0.569917 0.142399 0.552311 -0.175617
C17   C     C_R   0.434142 0.699371 0.375010 -0.206261
C18   C     C_R   0.565861 0.199367 0.625022 -0.206255
C19   C     C_R   0.490575 0.719168 0.265262 0.029508
C20   C     C_R   0.509422 0.219169 0.734738 0.029514
C21   C     C_R   0.543023 0.677932 0.219484 -0.068149
C22   C     C_R   0.456972 0.177936 0.780502 -0.068151
C23   C     C_R   0.496974 0.779324 0.203109 0.088451
C24   C     C_R   0.503023 0.279328 0.796873 0.088454
C25   C     C_R   0.550057 0.794595 0.071076 0.083304
C26   C     C_R   0.449933 0.294603 0.928878 0.083318
C27   C     C_R   0.595907 0.752695 0.009622 -0.291149
C28   C     C_R   0.404079 0.252707 0.990320 -0.291168
C29   C     C_R   0.598567 0.697873 0.102317 0.398587
C30   C     C_R   0.401421 0.197881 0.897637 0.398591
C31   C     C_R   0.452772 0.825111 0.265663 -0.214976
C32   C     C_R   0.547229 0.325111 0.734334 -0.214990
C33   C     C_R   0.515169 0.896183 0.066397 -0.165314
C34   C     C_R   0.484826 0.396190 0.933563 -0.165310
C35   C     C_R   0.538416 0.619379 0.299149 -0.192216
C36   C     C_R   0.461583 0.119379 0.700861 -0.192197
H7    H     H_    0.410329 0.817147 0.363290 0.100448
H8    H     H_    0.589677 0.317143 0.636728 0.100441
H9    H     H_    0.391929 0.727070 0.407093 0.127374
H10   H     H_    0.608076 0.227065 0.592949 0.127366
H11   H     H_    0.386908 0.629189 0.536621 0.129250
H12   H     H_    0.613103 0.129177 0.463459 0.129239
C37   C     C_R   0.172010 0.881005 0.261991 -0.043622
C38   C     C_R   0.827992 0.381007 0.738004 -0.043621
C39   C     C_R   0.150339 0.852052 0.097886 -0.222996
C40   C     C_R   0.849672 0.352064 0.902111 -0.222998
C41   C     C_R   0.099436 0.810173 0.114907 -0.144547
C42   C     C_R   0.900574 0.310185 0.885088 -0.144563
C43   C     C_R   0.068414 0.796158 0.297503 0.417964
C44   C     C_R   0.931587 0.296159 0.702487 0.417971
C45   C     C_R   0.089910 0.825187 0.460444 -0.185945
C46   C     C_R   0.910082 0.325178 0.539543 -0.185968
C47   C     C_R   0.141020 0.866757 0.443611 -0.203972
C48   C     C_R   0.858972 0.366750 0.556378 -0.203981
C49   C     C_R   0.907239 0.682960 0.377173 -0.236325
C50   C     C_R   0.092707 0.182898 0.622728 -0.236235
C51   C     C_R   0.853062 0.644988 0.394639 -0.255072
C52   C     C_R   0.146880 0.144918 0.605263 -0.254927
C53   C     C_R   0.948430 0.685145 0.205235 0.359974
C54   C     C_R   0.051576 0.185152 0.794770 0.359798
N1    N     N_2   0.014949 0.755088 0.324445 -0.319034
N2    N     N_2   0.985045 0.255082 0.675538 -0.319019
N3    N     N_2   0.002809 0.725480 0.178651 -0.262451
N4    N     N_2   0.997207 0.225500 0.821364 -0.262503
C55   C     C_R   0.837254 0.608624 0.240515 -0.092815
C56   C     C_R   0.162737 0.108615 0.759485 -0.092943
H13   H     H_    0.822426 0.645233 0.528237 0.147166
H14   H     H_    0.177472 0.145112 0.471583 0.147192
H15   H     H_    0.916464 0.710972 0.498582 0.175441
H16   H     H_    0.083445 0.210862 0.501237 0.175608
H17   H     H_    0.066787 0.815520 0.602105 0.128301
H18   H     H_    0.933196 0.315502 0.397877 0.128323
H19   H     H_    0.155928 0.888027 0.573301 0.129822
H20   H     H_    0.844057 0.388012 0.426686 0.129830
C57   C     C_R   0.878747 0.609673 0.070244 -0.319858
C58   C     C_R   0.121296 0.109729 0.929857 -0.319693
C59   C     C_R   0.934979 0.647189 0.051324 0.401183
C60   C     C_R   0.065070 0.147254 0.948771 0.401116
H21   H     H_    0.865996 0.581715 0.952405 0.117029
H22   H     H_    0.134079 0.081836 0.047814 0.117113
H23   H     H_    0.084208 0.789341 0.984916 0.145345
H24   H     H_    0.915808 0.289360 0.015082 0.145339
H25   H     H_    0.172756 0.861700 0.955398 0.132968
H26   H     H_    0.827262 0.361720 0.044604 0.132963
O21   O     O_3   0.976057 0.652037 0.882639 -0.565510
C61   C     C_3   0.976729 0.601115 0.765053 0.063422
H27   H     H_    0.930899 0.599094 0.687954 0.135025
H28   H     H_    0.982266 0.560241 0.851994 0.114427
C62   C     C_3   0.034779 0.604970 0.614455 -0.264422
H29   H     H_    0.033536 0.647935 0.537696 0.226321
H30   H     H_    0.081349 0.602560 0.687970 0.192064
C63   C     C_3   0.033125 0.555123 0.466865 -0.838990
H31   H     H_    0.035087 0.511594 0.539928 0.232113
H32   H     H_    0.076072 0.558991 0.360506 0.236094
H33   H     H_    0.987675 0.557783 0.388091 0.235040
O22   O     O_3   0.024100 0.152189 0.117625 -0.565536
C64   C     C_3   0.023183 0.101162 0.234789 0.063388
H34   H     H_    0.068969 0.098930 0.312053 0.134998
H35   H     H_    0.017538 0.060372 0.147504 0.114325
C65   C     C_3   0.965083 0.105079 0.385211 -0.264422
H36   H     H_    0.966431 0.147991 0.462254 0.226330
H37   H     H_    0.918542 0.102845 0.311500 0.192017
C66   C     C_3   0.966515 0.055130 0.532513 -0.839051
H38   H     H_    0.964466 0.011653 0.459161 0.232132
H39   H     H_    0.923524 0.059038 0.638703 0.236040
H40   H     H_    0.011924 0.057631 0.611529 0.234986
O23   O     O_3   0.479192 0.549527 0.511314 -0.573842
C67   C     C_3   0.443771 0.507217 0.410584 0.050299
H41   H     H_    0.478876 0.472497 0.356689 0.139391
H42   H     H_    0.419397 0.524920 0.283192 0.093860
C68   C     C_3   0.391548 0.479566 0.551206 -0.276414
H43   H     H_    0.413946 0.466867 0.686446 0.208701
H44   H     H_    0.352480 0.512617 0.588149 0.180551
C69   C     C_3   0.361067 0.424878 0.465808 -0.844795
H45   H     H_    0.338982 0.436103 0.328619 0.225567
H46   H     H_    0.322045 0.407274 0.569469 0.233013
H47   H     H_    0.398950 0.390129 0.438712 0.236121
O24   O     O_3   0.520815 0.049516 0.488756 -0.573846
C70   C     C_3   0.556271 0.007222 0.589447 0.050282
H48   H     H_    0.521183 0.972506 0.643471 0.139381
H49   H     H_    0.580683 0.024946 0.716746 0.093873
C71   C     C_3   0.608460 0.979558 0.448744 -0.276395
H50   H     H_    0.586028 0.966850 0.313568 0.208714
H51   H     H_    0.647523 0.012605 0.411699 0.180533
C72   C     C_3   0.638958 0.924876 0.534113 -0.844803
H52   H     H_    0.661053 0.936102 0.671287 0.225564
H53   H     H_    0.677976 0.907277 0.430424 0.233004
H54   H     H_    0.601084 0.890120 0.561230 0.236115
O25   O     O_3   0.655041 0.663875 0.077167 -0.570361
C73   C     C_3   0.712405 0.698379 0.096496 0.084793
H55   H     H_    0.740101 0.678702 0.210360 0.120927
H56   H     H_    0.703519 0.744231 0.151061 0.103106
C74   C     C_3   0.754314 0.699134 0.904674 -0.291610
H57   H     H_    0.775839 0.654773 0.876722 0.198712
H58   H     H_    0.723363 0.709316 0.783537 0.184861
C75   C     C_3   0.808830 0.745096 0.906770 -0.816493
H59   H     H_    0.787466 0.790199 0.912075 0.225237
H60   H     H_    0.841856 0.740974 0.773748 0.233357
H61   H     H_    0.837925 0.738796 0.034281 0.243286
O26   O     O_3   0.344946 0.163883 0.922769 -0.570373
C76   C     C_3   0.287579 0.198389 0.903526 0.084782
H62   H     H_    0.259856 0.178708 0.789726 0.120957
H63   H     H_    0.296460 0.244236 0.848917 0.103108
C77   C     C_3   0.245705 0.199155 0.095411 -0.291656
H64   H     H_    0.224178 0.154799 0.123404 0.198684
H65   H     H_    0.276680 0.209333 0.216497 0.184877
C78   C     C_3   0.191196 0.245126 0.093399 -0.816295
H66   H     H_    0.212570 0.290226 0.088043 0.225197
H67   H     H_    0.158195 0.241015 0.226478 0.233419
H68   H     H_    0.162073 0.238828 0.965945 0.243273

loop_
_geom_bond_atom_site_label_1
_geom_bond_atom_site_label_2
_ccdc_geom_bond_type
C9    C25   A    
C76   H62   S    
C52   C56   A    
C10   C26   A    
O22   C64   S    
O11   V3    S    
C72   H53   S    
O13   V3    S    
C14   C36   A    
C74   H57   S    
C11   C31   A    
O4    C2    A    
V1    O19   S    
C64   H35   S    
C17   C19   A    
C45   H17   S    
C57   C59   A    
O9    V1    S    
C9    H5    S    
C47   H19   S    
C22   C30   A    
C5    C55   S    
C10   H6    S    
C74   H58   S    
C40   C42   A    
O3    C1    A    
C6    C56   S    
C58   H22   S    
C42   C44   A    
C27   C29   A    
C15   H11   S    
O26   C76   S    
C28   C30   A    
O21   C61   S    
C50   C52   A    
C61   H27   S    
C21   C35   A    
C15   C17   A    
C41   H23   S    
O7    C3    A    
C77   H64   S    
C17   H9    S    
C56   C58   A    
C55   C57   A    
O13   V1    S    
O5    C7    A    
C23   C31   A    
O7    V1    S    
O6    C8    A    
C8    C36   S    
O8    V2    S    
C78   H67   S    
C51   C55   A    
C66   H40   S    
C20   C22   A    
O3    V1    S    
C39   H25   S    
C50   H16   S    
C12   C32   A    
C43   N1    S    
C9    C33   A    
C62   H30   S    
C2    O12   A    
H4    C28   S    
C72   H54   S    
C75   H60   S    
C37   C39   A    
O10   V2    S    
C29   O25   S    
C69   H47   S    
N2    N4    D    
C45   C47   A    
C14   C16   A    
C54   N4    S    
C16   C18   A    
C23   C25   A    
O15   C5    A    
O17   V3    S    
C76   C77   S    
C24   C26   A    
C49   C51   A    
C73   C74   S    
C74   C75   S    
C2    C11   S    
C44   C46   A    
C50   C54   A    
C70   C71   S    
C38   C48   A    
C43   C45   A    
C49   C53   A    
C1    O11   A    
C24   C32   A    
C19   C21   A    
O15   V3    S    
C68   H44   S    
C73   H56   S    
C44   N2    S    
C65   H37   S    
C1    C12   S    
C7    C35   S    
N1    N3    D    
C76   H63   S    
C4    C37   S    
C31   H7    S    
C40   H26   S    
O25   C73   S    
C71   C72   S    
C13   C35   A    
C78   H68   S    
C53   C59   A    
C10   C34   A    
C46   H18   S    
C41   C43   A    
C20   C24   A    
O24   C70   S    
C18   C20   A    
C39   C41   A    
C77   C78   S    
C59   O21   S    
C67   H42   S    
C61   H28   S    
O14   V4    S    
C69   H46   S    
C71   H51   S    
O18   V4    S    
C46   C48   A    
C25   C27   A    
O8    C4    A    
C66   H38   S    
C48   H20   S    
O16   C6    A    
C68   C69   S    
C65   C66   S    
O1    C3    A    
C38   C40   A    
C63   H32   S    
C64   H34   S    
C12   C34   A    
C22   C36   A    
V2    O20   S    
C62   C63   S    
C57   H21   S    
O16   V4    S    
C16   H12   S    
C18   H10   S    
C69   H45   S    
C67   C68   S    
C42   H24   S    
C62   H29   S    
H3    C27   S    
O5    V1    S    
O17   C7    A    
O6    V2    S    
O23   C67   S    
O10   C6    A    
O18   C8    A    
C61   C62   S    
C32   H8    S    
O2    V4    S    
C30   O26   S    
C73   H55   S    
C63   H33   S    
C70   H49   S    
C65   H36   S    
C64   C65   S    
C54   C60   A    
C13   C15   A    
H2    C34   S    
C68   H43   S    
V4    O20   S    
C49   H15   S    
O1    V3    S    
C75   H59   S    
C58   C60   A    
C19   C23   A    
O9    C5    A    
C14   O24   S    
C26   C28   A    
C13   O23   S    
O14   V2    S    
C53   N3    S    
O2    C4    A    
C77   H65   S    
C67   H41   S    
O4    V2    S    
C21   C29   A    
C3    C38   S    
C75   H61   S    
V3    O19   S    
C78   H66   S    
C72   H52   S    
C66   H39   S    
C11   C33   A    
H1    C33   S    
C71   H50   S    
C60   O22   S    
C63   H31   S    
C70   H48   S    
O12   V4    S    
C37   C47   A    
C52   H14   S    
C51   H13   S    
