data_mof_unit_52096.cif
_audit_creation_date              2012-12-11T16:51:01-0500
_audit_creation_method            fapswitch 2.2
_symmetry_space_group_name_H-M    P1
_symmetry_Int_Tables_number       1
_space_group_crystal_system       triclinic
_cell_length_a                    6.931941
_cell_length_b                    28.84279
_cell_length_c                    32.068312
_cell_angle_alpha                 100.824281
_cell_angle_beta                  89.587102
_cell_angle_gamma                 90.67248
_cell_volume                      6297.03397789

loop_
_atom_site_label
_atom_site_type_symbol
_atom_type_description
_atom_site_fract_x
_atom_site_fract_y
_atom_site_fract_z
_atom_type_partial_charge
O1    O     O_R   0.494350 0.453170 0.452520 -0.538538
O2    O     O_R   0.820980 0.455850 0.538220 -0.536898
O3    O     O_R   0.994300 0.546830 0.547480 -0.543529
C1    C     C_R   0.650865 0.445076 0.551292 0.714207
O4    O     O_R   0.823860 0.447590 0.452270 -0.506329
O5    O     O_R   0.997200 0.538510 0.460920 -0.540606
C2    C     C_R   0.654626 0.434345 0.436934 0.744310
O6    O     O_R   0.491440 0.461490 0.539080 -0.541932
O7    O     O_3   0.661790 0.529840 0.502940 -0.376898
V1    V     V_3+5 0.935470 0.494460 0.499450 1.467575
O8    O     O_R   0.327090 0.544150 0.461780 -0.544873
C3    C     C_R   0.159338 0.554355 0.448219 0.701515
O9    O     O_R   0.324210 0.552410 0.547730 -0.543454
C4    C     C_R   0.155561 0.565096 0.563571 0.686768
V2    V     V_3+5 0.435840 0.505540 0.500550 1.417976
O10   O     O_3   0.159650 0.470160 0.497060 -0.349651
C5    C     C_R   0.173709 0.901310 0.864521 0.318052
C6    C     C_R   0.193402 0.864872 0.828332 0.094380
C7    C     C_R   0.079679 0.823354 0.825266 -0.012154
C8    C     C_R   0.951226 0.818650 0.858075 -0.192527
H1    H     H_    0.866026 0.786455 0.855275 0.151218
C9    C     C_R   0.934222 0.853841 0.894732 0.075006
C10   C     C_R   0.046449 0.896042 0.898261 -0.159304
C11   C     C_R   0.242983 0.751466 0.784690 -0.165277
H2    H     H_    0.348141 0.754336 0.809897 0.153116
C12   C     C_R   0.258265 0.714957 0.749089 0.394886
C13   C     C_R   0.121300 0.710776 0.715959 -0.003799
C14   C     C_R   0.969381 0.743285 0.720101 -0.177052
H3    H     H_    0.862447 0.741119 0.695323 0.134895
C15   C     C_R   0.955235 0.779430 0.755718 -0.137658
H4    H     H_    0.838556 0.804233 0.757659 0.129641
C16   C     C_R   0.092412 0.784022 0.788108 0.036449
C17   C     C_R   0.303398 0.665168 0.653255 -0.072769
H5    H     H_    0.431134 0.686378 0.662783 0.132338
C18   C     C_R   0.311372 0.630137 0.616536 -0.162433
H6    H     H_    0.446336 0.624734 0.599172 0.122283
C19   C     C_R   0.146759 0.602877 0.602198 -0.054334
C20   C     C_R   0.974122 0.611601 0.625596 -0.162921
H7    H     H_    0.844568 0.591301 0.615621 0.129241
C21   C     C_R   0.967004 0.646208 0.662591 -0.123442
H8    H     H_    0.832427 0.651733 0.680112 0.159930
C22   C     C_R   0.131917 0.673148 0.677095 0.129974
C23   C     C_R   0.106804 0.656596 0.282691 0.571033
N1    N     N_R   0.137983 0.676221 0.324543 -0.560240
C24   C     C_R   0.164519 0.724047 0.337011 0.573063
C25   C     C_R   0.158462 0.754108 0.307047 -0.030089
C26   C     C_R   0.125824 0.734440 0.264027 -0.015674
C27   C     C_R   0.100724 0.685263 0.251602 -0.029348
C28   C     C_R   0.183190 0.803269 0.319066 -0.140292
C29   C     C_R   0.173864 0.832469 0.288892 -0.138433
C30   C     C_R   0.139916 0.813268 0.245901 -0.030277
C31   C     C_R   0.117388 0.764030 0.233392 -0.018426
C32   C     C_R   0.085857 0.744321 0.190338 -0.034677
C33   C     C_R   0.063254 0.695122 0.178242 -0.138326
C34   C     C_R   0.070079 0.665985 0.208493 -0.140208
C35   C     C_R   0.126499 0.842086 0.215063 0.544543
N2    N     N_R   0.090393 0.822525 0.173395 -0.553204
C36   C     C_R   0.074612 0.774468 0.160555 0.563826
O11   O     O_2   0.082868 0.609460 0.271103 -0.521286
O12   O     O_2   0.194900 0.742564 0.378314 -0.519173
H9    H     H_    0.208844 0.819406 0.351888 0.172622
H10   H     H_    0.192384 0.870177 0.299431 0.173573
O13   O     O_2   0.150390 0.889226 0.226599 -0.523036
O14   O     O_2   0.043817 0.755963 0.119265 -0.521401
H11   H     H_    0.038663 0.678964 0.145384 0.172922
H12   H     H_    0.050841 0.628295 0.197968 0.172113
C37   C     C_R   0.217930 0.855629 0.113382 -0.131745
H13   H     H_    0.345235 0.834484 0.113432 0.135787
C38   C     C_R   0.205783 0.885682 0.084110 -0.210327
H14   H     H_    0.325771 0.887392 0.062602 0.134605
C39   C     C_R   0.040384 0.912749 0.082200 -0.074014
C40   C     C_R   0.886078 0.908686 0.110101 -0.197535
H15   H     H_    0.757827 0.929481 0.108801 0.138196
C41   C     C_R   0.898508 0.879352 0.140690 0.148590
C42   C     C_R   0.068430 0.852828 0.142536 0.386551
C43   C     C_R   0.317512 0.637789 0.374910 -0.088217
H16   H     H_    0.449741 0.654039 0.366230 0.118667
C44   C     C_R   0.322863 0.608173 0.404896 -0.199911
H17   H     H_    0.460307 0.602344 0.418789 0.130166
C45   C     C_R   0.153099 0.586418 0.416727 -0.059181
C46   C     C_R   0.977989 0.595184 0.397666 -0.197606
H18   H     H_    0.844540 0.579049 0.405809 0.127335
C47   C     C_R   0.973222 0.624592 0.367481 -0.090227
H19   H     H_    0.837223 0.630711 0.353124 0.116823
C48   C     C_R   0.142877 0.646112 0.355866 0.383188
C49   C     C_R   0.519879 0.223960 0.838590 0.660122
N3    N     N_R   0.591555 0.179140 0.828069 -0.530922
C50   C     C_R   0.675588 0.163773 0.789203 0.548986
C51   C     C_R   0.691950 0.193940 0.759530 -0.010349
C52   C     C_R   0.614123 0.239719 0.769440 -0.011540
C53   C     C_R   0.526751 0.254737 0.809156 -0.093660
C54   C     C_R   0.782356 0.179109 0.720098 -0.161962
C55   C     C_R   0.794115 0.209022 0.690733 -0.140703
C56   C     C_R   0.713796 0.254353 0.699825 -0.019693
C57   C     C_R   0.622547 0.270123 0.739433 -0.029120
C58   C     C_R   0.538827 0.315705 0.748738 -0.082567
C59   C     C_R   0.446233 0.330534 0.789210 0.107080
C60   C     C_R   0.445327 0.299697 0.818663 -0.116484
C61   C     C_R   0.720913 0.283970 0.669790 0.575863
N4    N     N_R   0.639224 0.327579 0.678500 -0.548486
C62   C     C_R   0.550803 0.344046 0.716688 0.560236
O15   O     O_2   0.438806 0.238408 0.877162 -0.483673
O16   O     O_2   0.740627 0.119163 0.779010 -0.547643
H20   H     H_    0.844429 0.144284 0.711747 0.167046
H21   H     H_    0.864910 0.196242 0.660616 0.172830
O17   O     O_2   0.807487 0.269141 0.631874 -0.521719
O18   O     O_2   0.475973 0.387700 0.723105 -0.537631
H22   H     H_    0.378523 0.310143 0.849430 0.188614
C63   C     C_R   0.801213 0.384419 0.640913 -0.096870
H23   H     H_    0.925787 0.384804 0.661166 0.131752
C64   C     C_R   0.801213 0.412503 0.609839 -0.233849
H24   H     H_    0.926934 0.434453 0.607229 0.134922
C65   C     C_R   0.641226 0.413079 0.582971 -0.059606
C66   C     C_R   0.479014 0.383399 0.587650 0.083578
C67   C     C_R   0.481295 0.355931 0.619675 -0.117874
H25   H     H_    0.359473 0.333305 0.623805 0.124641
C68   C     C_R   0.640809 0.356312 0.646194 0.371016
C69   C     C_R   0.437164 0.110664 0.853180 0.118944
C70   C     C_R   0.422503 0.081749 0.883846 -0.159404
H26   H     H_    0.312598 0.054399 0.880609 0.189932
C71   C     C_R   0.551296 0.086877 0.917933 -0.141250
C72   C     C_R   0.691827 0.122764 0.922297 -0.243511
H27   H     H_    0.791163 0.127428 0.948727 0.167289
C73   C     C_R   0.701758 0.153717 0.893487 0.394602
C74   C     C_R   0.576719 0.147678 0.858287 0.281614
C75   C     C_R   0.712560 0.109941 0.129014 0.377078
C76   C     C_R   0.719216 0.147293 0.163926 -0.167359
H28   H     H_    0.846029 0.151723 0.183908 0.147620
C77   C     C_R   0.563405 0.178078 0.173968 0.034312
C78   C     C_R   0.398064 0.170588 0.148449 -0.121670
H29   H     H_    0.275591 0.193802 0.155380 0.120600
C79   C     C_R   0.390812 0.133794 0.113049 -0.157072
H30   H     H_    0.262301 0.129768 0.093648 0.175310
C80   C     C_R   0.547733 0.103098 0.102382 -0.134470
C81   C     C_R   0.420061 0.227565 0.239694 -0.155281
H31   H     H_    0.288090 0.206835 0.234768 0.126939
C82   C     C_R   0.436016 0.263217 0.275703 -0.185368
H32   H     H_    0.315893 0.269141 0.297781 0.134409
C83   C     C_R   0.606217 0.290283 0.283959 0.085013
C84   C     C_R   0.761474 0.281921 0.254367 0.156071
C85   C     C_R   0.744223 0.245243 0.218711 -0.180230
H33   H     H_    0.862291 0.238632 0.196111 0.110672
C86   C     C_R   0.575112 0.217659 0.211185 0.083544
C87   C     C_R   0.758697 0.323564 0.354242 -0.158555
H34   H     H_    0.857130 0.294119 0.349456 0.145727
C88   C     C_R   0.773857 0.358202 0.391162 0.382719
C89   C     C_R   0.642512 0.396089 0.398733 -0.132269
C90   C     C_R   0.495437 0.397400 0.368911 -0.176831
H35   H     H_    0.391510 0.425692 0.373867 0.143490
C91   C     C_R   0.483352 0.363051 0.331822 -0.139329
H36   H     H_    0.370803 0.365463 0.309083 0.128932
C92   C     C_R   0.617501 0.326382 0.323716 0.029613
O19   O     O_R   0.699170 0.038480 0.960880 -0.539751
O20   O     O_R   0.366800 0.052460 0.047690 -0.535002
O21   O     O_R   0.193520 0.961530 0.039110 -0.541461
C93   C     C_R   0.536053 0.064778 0.063910 0.741434
O22   O     O_R   0.369630 0.044100 0.961740 -0.530843
O23   O     O_R   0.196370 0.953120 0.952550 -0.516816
C94   C     C_R   0.539437 0.054496 0.948628 0.777456
O24   O     O_R   0.696320 0.046890 0.047450 -0.509478
O25   O     O_3   0.528890 0.970170 0.997080 -0.380190
V3    V     V_3+5 0.255190 0.005530 0.000540 1.527911
O26   O     O_R   0.866460 0.947530 0.952310 -0.546596
C95   C     C_R   0.035196 0.934548 0.936648 0.772923
O27   O     O_R   0.863630 0.955880 0.038270 -0.540437
C96   C     C_R   0.031597 0.945585 0.051621 0.743873
V4    V     V_3+5 0.754830 0.994440 0.999470 1.500282
O28   O     O_3   0.031000 0.029830 0.002920 -0.356054
Cl1   Cl    Cl    0.301954 0.955147 0.866207 -0.729461
C97   C     C_3   0.334180 0.870968 0.793116 -0.303752
C98   C     C_3   0.541783 0.863278 0.805733 -0.697483
H37   H     H_    0.580880 0.886886 0.836007 0.266916
H38   H     H_    0.561005 0.826117 0.809441 0.209116
H39   H     H_    0.641404 0.871016 0.780621 0.210446
H40   H     H_    0.302671 0.846168 0.763030 0.170440
H41   H     H_    0.320361 0.906702 0.785339 0.224630
C99   C     C_3   0.731968 0.878305 0.171502 -0.337961
C100  C     C_3   0.646113 0.828838 0.169486 -0.715901
H42   H     H_    0.644135 0.808726 0.136365 0.237926
H43   H     H_    0.727927 0.809022 0.189810 0.224906
H44   H     H_    0.496762 0.831662 0.182082 0.220823
H45   H     H_    0.780496 0.892521 0.204367 0.221894
H46   H     H_    0.614422 0.901679 0.164688 0.189247
C101  C     C_3   0.347543 0.378469 0.800792 -0.294418
C102  C     C_3   0.246644 0.389812 0.844101 -0.762773
H47   H     H_    0.130666 0.363486 0.846418 0.241270
H48   H     H_    0.352345 0.390990 0.870159 0.240835
H49   H     H_    0.179086 0.425093 0.847889 0.238602
H50   H     H_    0.457310 0.406734 0.800246 0.228531
H51   H     H_    0.234977 0.380479 0.776715 0.220798
C103  C     C_3   0.305486 0.377965 0.558540 -0.379048
C104  C     C_3   0.357565 0.351893 0.513981 -0.589891
H52   H     H_    0.463939 0.372197 0.498443 0.211030
H53   H     H_    0.418498 0.316796 0.515485 0.225523
H54   H     H_    0.225709 0.346486 0.494258 0.262983
H55   H     H_    0.189324 0.357171 0.570857 0.188125
H56   H     H_    0.239946 0.412580 0.557591 0.203248
C105  C     C_3   0.306930 0.100334 0.814820 -0.366488
C106  C     C_3   0.146242 0.136218 0.817108 -0.611644
H57   H     H_    0.027142 0.126564 0.837202 0.260869
H58   H     H_    0.195743 0.172545 0.830343 0.249925
H59   H     H_    0.092474 0.135922 0.784593 0.229088
H60   H     H_    0.391462 0.099420 0.785282 0.216677
H61   H     H_    0.239747 0.064650 0.811773 0.204329
Cl2   Cl    Cl    0.873962 0.199819 0.902092 -0.598066
Cl3   Cl    Cl    0.912233 0.071816 0.121971 -0.671643
C107  C     C_3   0.799515 0.844021 0.929667 -0.344015
C108  C     C_3   0.911180 0.834103 0.967899 -0.706894
H62   H     H_    0.003818 0.802708 0.958221 0.235418
H63   H     H_    0.003335 0.864644 0.981880 0.191182
H64   H     H_    0.808190 0.826914 0.992654 0.218489
H65   H     H_    0.697698 0.873447 0.939396 0.198680
H66   H     H_    0.706899 0.812584 0.918000 0.179665
C109  C     C_3   0.943704 0.312083 0.258756 -0.391775
C110  C     C_3   0.905482 0.361477 0.250256 -0.700448
H67   H     H_    0.842348 0.359215 0.218186 0.233651
H68   H     H_    0.805663 0.380945 0.274358 0.231223
H69   H     H_    0.043498 0.381642 0.251693 0.217440
H70   H     H_    0.008422 0.314535 0.290548 0.178566
H71   H     H_    0.055435 0.295778 0.235721 0.183365
Cl4   Cl    Cl    0.954285 0.351150 0.427713 -0.682761
Cl5   Cl    Cl    0.445172 0.673998 0.748589 -0.660986

loop_
_geom_bond_atom_site_label_1
_geom_bond_atom_site_label_2
_ccdc_geom_bond_type
C62   O18   S    
C27   C34   A    
C20   C21   A    
N3    C50   A    
C24   O12   S    
O27   C96   A    
C73   Cl2   S    
C33   C34   A    
O26   V4    S    
C57   C58   A    
C13   C22   S    
C1    O6    A    
C50   O16   S    
C76   C77   A    
C66   C67   A    
C102  H47   S    
C63   C68   A    
C81   H31   S    
C33   H11   S    
C97   H41   S    
C32   C33   A    
C35   N2    A    
C82   C83   A    
C25   C28   A    
C103  H56   S    
C12   C13   A    
C55   C56   A    
C47   H19   S    
C17   C22   A    
C14   H3    S    
C18   C19   A    
C43   C44   A    
C65   C66   A    
C49   C53   A    
C63   C64   A    
O5    C3    A    
C15   H4    S    
C45   C46   A    
C5    Cl1   S    
C102  H48   S    
C97   C98   S    
O21   C96   A    
V2    O10   S    
C3    C45   S    
C83   C92   S    
C107  H66   S    
C60   H22   S    
C101  C102  S    
C6    C7    A    
O24   V4    S    
C38   C39   A    
C69   C70   A    
C54   C55   A    
C43   C48   A    
C89   C90   A    
C55   H21   S    
C103  H55   S    
O26   C95   A    
O8    V2    S    
O2    V1    S    
C80   C93   S    
C7    C8    A    
C79   H30   S    
C67   C68   A    
C39   C96   S    
C12   Cl5   S    
C106  H59   S    
C105  C106  S    
O1    V2    S    
C69   C74   A    
C23   C27   A    
O20   C93   A    
C23   O11   S    
C21   C22   A    
C106  H57   S    
O27   V4    S    
O9    C4    A    
O19   V4    S    
C109  H70   S    
C56   C57   A    
C85   H33   S    
C7    C16   S    
C46   C47   A    
C59   C60   A    
C2    C89   S    
C97   H40   S    
C70   C71   A    
O21   V3    S    
C36   O14   S    
C98   H39   S    
C28   H9    S    
C41   C42   A    
C88   C89   A    
C30   C31   A    
C100  H44   S    
C104  H54   S    
C100  H42   S    
C1    C65   S    
C52   C57   A    
C11   H2    S    
C40   C41   A    
C10   C95   S    
C110  H69   S    
C71   C94   S    
V4    O28   S    
O4    C2    A    
C88   Cl4   S    
C54   H20   S    
C44   H17   S    
C108  H62   S    
C102  H49   S    
O23   C95   A    
C29   C30   A    
C99   H46   S    
C81   C86   A    
C46   H18   S    
C37   H13   S    
C37   C38   A    
C18   H6    S    
C104  H53   S    
O19   C94   A    
O2    C1    A    
C23   N1    A    
C11   C16   A    
N2    C36   A    
C19   C20   A    
C98   H38   S    
C26   C27   A    
C93   O24   A    
C70   H26   S    
C58   C59   A    
C8    H1    S    
C5    C6    A    
C35   O13   S    
C64   C65   A    
C5    C10   A    
C84   C85   A    
C51   C54   A    
C44   C45   A    
C98   H37   S    
C71   C72   A    
O25   V4    S    
O3    C4    A    
C79   C80   A    
V3    O28   S    
N1    C48   S    
C87   C88   A    
C21   H8    S    
C47   C48   A    
C8    C9    A    
C28   C29   A    
O6    V2    S    
O9    V2    S    
C105  H61   S    
C107  H65   S    
C29   H10   S    
C91   C92   A    
C37   C42   A    
C72   C73   A    
C76   H28   S    
C49   O15   S    
N3    C74   S    
C34   H12   S    
C31   C32   A    
C49   N3    A    
C59   C101  S    
C106  H58   S    
C77   C78   A    
O7    V1    S    
C103  C104  S    
C81   C82   A    
C61   O17   S    
C51   C52   A    
C25   C26   A    
C66   C103  S    
C64   H24   S    
O1    C2    A    
O20   V3    S    
N1    C24   A    
C30   C35   A    
C90   C91   A    
C40   H15   S    
C53   C60   A    
O5    V1    S    
C100  H43   S    
C32   C36   A    
C26   C31   A    
C77   C86   S    
C84   C109  S    
C82   H32   S    
C91   H36   S    
C61   N4    A    
C87   H34   S    
C78   C79   A    
C104  H52   S    
N2    C42   S    
C85   C86   A    
C78   H29   S    
O7    V2    S    
O4    V1    S    
C87   C92   A    
C108  H63   S    
V1    O10   S    
C63   H23   S    
C4    C19   S    
C15   C16   A    
C43   H16   S    
C83   C84   A    
C11   C12   A    
C52   C53   A    
C20   H7    S    
C41   C99   S    
O25   V3    S    
C56   C61   A    
C75   Cl3   S    
C75   C76   A    
C109  C110  S    
C14   C15   A    
N4    C62   A    
C17   C18   A    
C17   H5    S    
C9    C107  S    
C101  H51   S    
C90   H35   S    
C110  H67   S    
C38   H14   S    
C110  H68   S    
O23   V3    S    
C24   C25   A    
C39   C40   A    
C50   C51   A    
C75   C80   A    
O22   C94   A    
C99   C100  S    
C108  H64   S    
C6    C97   S    
C105  H60   S    
O3    V1    S    
C107  C108  S    
C9    C10   A    
C109  H71   S    
N4    C68   S    
C67   H25   S    
C72   H27   S    
C58   C62   A    
O22   V3    S    
C101  H50   S    
C99   H45   S    
O8    C3    A    
C73   C74   A    
C13   C14   A    
C69   C105  S    
