data_mof_unit_61171.cif
_audit_creation_date              2012-12-10T18:15:20-0500
_audit_creation_method            fapswitch 2.2
_symmetry_space_group_name_H-M    P1
_symmetry_Int_Tables_number       1
_space_group_crystal_system       monoclinic
_cell_length_a                    18.354168
_cell_length_b                    18.354167
_cell_length_c                    39.610476
_cell_angle_alpha                 90.0
_cell_angle_beta                  90.0
_cell_angle_gamma                 89.951417
_cell_volume                      13343.7927092

loop_
_atom_site_label
_atom_site_type_symbol
_atom_type_description
_atom_site_fract_x
_atom_site_fract_y
_atom_site_fract_z
_atom_type_partial_charge
C1    C     C_R   0.964750 0.555732 0.431217 -0.098574
C2    C     C_R   0.536854 0.945322 0.068746 -0.085154
C3    C     C_R   0.309833 0.743577 0.728352 -0.114261
C4    C     C_R   0.253244 0.306684 0.273539 -0.102376
C5    C     C_R   0.746759 0.693315 0.726460 -0.105061
C6    C     C_R   0.309833 0.743577 0.271648 -0.114609
C7    C     C_R   0.690167 0.256423 0.728352 -0.114261
C8    C     C_R   0.196308 0.696308 0.250000 0.045871
C9    C     C_R   0.803692 0.303692 0.750000 0.045207
C10   C     C_R   0.303703 0.196297 0.250000 0.043892
C11   C     C_R   0.696298 0.803702 0.750000 0.046653
C12   C     C_R   0.803692 0.303692 0.250000 0.045872
C13   C     C_R   0.054678 0.463145 0.931254 -0.085154
C14   C     C_R   0.196308 0.696308 0.750000 0.045207
C15   C     C_R   0.696297 0.803703 0.250000 0.043892
C16   C     C_R   0.303702 0.196298 0.750000 0.046653
C17   C     C_R   0.196297 0.303703 0.750000 0.043892
C18   C     C_R   0.803702 0.696298 0.250000 0.046653
C19   C     C_R   0.303692 0.803692 0.750000 0.045872
C20   C     C_R   0.696308 0.196308 0.250000 0.045207
C21   C     C_R   0.803703 0.696297 0.750000 0.043892
C22   C     C_R   0.196298 0.303702 0.250000 0.046653
C23   C     C_R   0.696308 0.196308 0.750000 0.045871
C24   C     C_R   0.944268 0.535250 0.068783 -0.098574
C25   C     C_R   0.303691 0.803692 0.250000 0.045207
C26   C     C_R   1.000000 0.500000 0.377965 0.016517
C27   C     C_R   1.000000 0.500000 0.622014 0.004942
C28   C     C_R   0.500000 1.000000 0.377986 0.004942
C29   C     C_R   0.500000 1.000000 0.622035 0.016517
C30   C     C_R   0.500000 0.000000 0.877965 0.016517
C31   C     C_R   0.500000 0.000000 0.122014 0.004942
C32   C     C_R   1.000000 0.500000 0.877986 0.004942
C33   C     C_R   0.000000 0.500000 0.122035 0.016517
C34   C     C_R   0.535250 0.944268 0.931217 -0.098574
C35   C     C_R   0.463145 0.054678 0.068746 -0.085154
C36   C     C_R   0.945322 0.536855 0.931254 -0.085154
C37   C     C_R   0.055732 0.464750 0.068783 -0.098574
C38   C     C_R   0.964539 0.556721 0.395917 0.190703
C39   C     C_R   0.036957 0.444249 0.604042 0.214415
C40   C     C_R   0.555751 0.963043 0.395958 0.214415
C41   C     C_R   0.036855 0.445322 0.568746 -0.085154
C42   C     C_R   0.443279 0.035461 0.604083 0.190704
C43   C     C_R   0.035461 0.443279 0.395917 0.190704
C44   C     C_R   0.963043 0.555751 0.604042 0.214415
C45   C     C_R   0.444249 0.036957 0.395958 0.214415
C46   C     C_R   0.556721 0.964539 0.604083 0.190704
C47   C     C_R   0.464539 0.056721 0.895917 0.190703
C48   C     C_R   0.536957 0.944249 0.104042 0.214416
C49   C     C_R   0.055751 0.463043 0.895958 0.214416
C50   C     C_R   0.943279 0.535461 0.104083 0.190704
C51   C     C_R   0.535461 0.943279 0.895917 0.190704
C52   C     C_R   0.554678 0.963145 0.431254 -0.085154
C53   C     C_R   0.463043 0.055751 0.104042 0.214415
C54   C     C_R   0.944249 0.536957 0.895958 0.214415
C55   C     C_R   0.056721 0.464539 0.104083 0.190704
C56   C     C_R   1.000000 0.500000 0.448691 -0.044053
C57   C     C_R   1.000000 0.500000 0.551269 -0.063212
C58   C     C_R   0.500000 1.000000 0.448731 -0.063212
C59   C     C_R   0.500000 1.000000 0.551309 -0.044053
C60   C     C_R   0.500000 1.000000 0.948691 -0.044053
C61   C     C_R   0.500000 1.000000 0.051269 -0.063212
C62   C     C_R   1.000000 0.500000 0.948731 -0.063212
C63   C     C_R   0.444268 0.035250 0.568783 -0.098574
C64   C     C_R   0.000000 0.500000 0.051309 -0.044053
C65   C     C_1   1.000000 0.500000 0.484826 0.020491
C66   C     C_1   1.000000 0.500000 0.515135 0.017824
C67   C     C_1   0.500000 1.000000 0.484865 0.017824
C68   C     C_1   0.500000 1.000000 0.515174 0.020491
C69   C     C_1   0.500000 0.000000 0.984826 0.020491
C70   C     C_1   0.500000 0.000000 0.015135 0.017824
C71   C     C_1   1.000000 0.500000 0.984865 0.017824
C72   C     C_1   1.000000 0.500000 0.015174 0.020491
C73   C     C_R   0.500000 0.000000 0.340925 0.602972
C74   C     C_R   0.035250 0.444268 0.431217 -0.098574
C75   C     C_R   0.500000 1.000000 0.659083 0.600970
C76   C     C_R   1.000000 0.500000 0.340917 0.600970
C77   C     C_R   1.000000 0.500000 0.659075 0.602972
C78   C     C_R   1.000000 0.500000 0.840925 0.602972
C79   C     C_R   0.000000 0.500000 0.159083 0.600970
C80   C     C_R   0.500000 0.000000 0.840917 0.600970
C81   C     C_R   0.500000 0.000000 0.159075 0.602972
C82   C     C_R   0.359800 0.140200 0.250000 0.541059
C83   C     C_R   0.640200 0.859800 0.750000 0.543402
C84   C     C_R   0.859789 0.359789 0.250000 0.520959
C85   C     C_R   0.963145 0.554678 0.568746 -0.085154
C86   C     C_R   0.140211 0.640211 0.750000 0.519936
C87   C     C_R   0.640200 0.859800 0.250000 0.541059
C88   C     C_R   0.359800 0.140200 0.750000 0.543402
C89   C     C_R   0.140211 0.640211 0.250000 0.520959
C90   C     C_R   0.859789 0.359789 0.750000 0.519936
C91   C     C_R   0.359789 0.859789 0.750000 0.520959
C92   C     C_R   0.640211 0.140211 0.250000 0.519936
C93   C     C_R   0.859800 0.640200 0.750000 0.541059
C94   C     C_R   0.140200 0.359800 0.250000 0.543402
C95   C     C_R   0.640211 0.140211 0.750000 0.520959
C96   C     C_R   0.445322 0.036854 0.431254 -0.085154
C97   C     C_R   0.359789 0.859789 0.250000 0.519936
C98   C     C_R   0.140200 0.359800 0.750000 0.541059
C99   C     C_R   0.859800 0.640200 0.250000 0.543402
C100  C     C_R   0.243577 0.809833 0.228352 -0.114609
C101  C     C_R   0.756423 0.190167 0.771648 -0.114261
C102  C     C_R   0.193316 0.246756 0.226461 -0.102376
C103  C     C_R   0.806684 0.753241 0.773540 -0.105061
C104  C     C_R   0.756423 0.190167 0.228352 -0.114609
C105  C     C_R   0.243577 0.809833 0.771648 -0.114261
C106  C     C_R   0.806684 0.753244 0.226461 -0.102376
C107  C     C_R   0.555732 0.964750 0.568783 -0.098574
C108  C     C_R   0.193316 0.246759 0.773540 -0.105061
C109  C     C_R   0.246756 0.193316 0.773539 -0.102376
C110  C     C_R   0.753241 0.806684 0.226460 -0.105061
C111  C     C_R   0.190167 0.756423 0.771648 -0.114609
C112  C     C_R   0.809833 0.243577 0.228352 -0.114261
C113  C     C_R   0.753244 0.806684 0.773539 -0.102376
C114  C     C_R   0.246759 0.193316 0.226460 -0.105061
C115  C     C_R   0.809833 0.243577 0.771648 -0.114609
C116  C     C_R   0.190167 0.756423 0.228352 -0.114261
C117  C     C_R   0.743577 0.309833 0.728352 -0.114609
C118  C     C_R   0.464750 0.055732 0.931217 -0.098574
C119  C     C_R   0.256423 0.690167 0.271648 -0.114261
C120  C     C_R   0.693316 0.746756 0.726461 -0.102376
C121  C     C_R   0.306684 0.253241 0.273540 -0.105061
C122  C     C_R   0.256423 0.690167 0.728352 -0.114609
C123  C     C_R   0.743577 0.309833 0.271648 -0.114261
C124  C     C_R   0.306684 0.253244 0.726461 -0.102376
C125  C     C_R   0.693315 0.746759 0.273540 -0.105061
C126  C     C_R   0.746756 0.693316 0.273539 -0.102376
C127  C     C_R   0.253241 0.306684 0.726460 -0.105061
C128  C     C_R   0.690167 0.256423 0.271648 -0.114609
H1    H     H_    0.937783 0.598599 0.445264 0.160880
H2    H     H_    0.565176 0.903281 0.054720 0.189919
H3    H     H_    0.096719 0.434824 0.945280 0.189918
H4    H     H_    0.901401 0.562217 0.054736 0.160880
H5    H     H_    0.562217 0.901401 0.945264 0.160880
H6    H     H_    0.434824 0.096719 0.054720 0.189918
H7    H     H_    0.903281 0.565176 0.945280 0.189918
H8    H     H_    0.098599 0.437783 0.054736 0.160880
H9    H     H_    0.237748 0.855811 0.211421 0.154441
H10   H     H_    0.762251 0.144189 0.788579 0.154198
H11   H     H_    0.149912 0.243568 0.207991 0.172756
H12   H     H_    0.065176 0.403281 0.554720 0.189918
H13   H     H_    0.850086 0.756427 0.792011 0.172339
H14   H     H_    0.762252 0.144189 0.211421 0.154441
H15   H     H_    0.237749 0.855811 0.788579 0.154199
H16   H     H_    0.850088 0.756432 0.207991 0.172756
H17   H     H_    0.149914 0.243573 0.792011 0.172339
H18   H     H_    0.243568 0.149911 0.792009 0.172756
H19   H     H_    0.756427 0.850086 0.207989 0.172339
H20   H     H_    0.144189 0.762252 0.788579 0.154440
H21   H     H_    0.855811 0.237749 0.211421 0.154199
H22   H     H_    0.756432 0.850088 0.792009 0.172756
H23   H     H_    0.596719 0.934824 0.445280 0.189918
H24   H     H_    0.243573 0.149914 0.207989 0.172339
H25   H     H_    0.855811 0.237748 0.788579 0.154440
H26   H     H_    0.144189 0.762251 0.211421 0.154199
H27   H     H_    0.737748 0.355811 0.711421 0.154441
H28   H     H_    0.262251 0.644189 0.288579 0.154198
H29   H     H_    0.649911 0.743568 0.707991 0.172756
H30   H     H_    0.350086 0.256427 0.292011 0.172339
H31   H     H_    0.262252 0.644189 0.711421 0.154441
H32   H     H_    0.737749 0.355811 0.288579 0.154199
H33   H     H_    0.350088 0.256432 0.707991 0.172756
H34   H     H_    0.401401 0.062217 0.554736 0.160880
H35   H     H_    0.649913 0.743573 0.292011 0.172339
H36   H     H_    0.743568 0.649911 0.292009 0.172756
H37   H     H_    0.256427 0.350086 0.707989 0.172339
H38   H     H_    0.644189 0.262252 0.288579 0.154440
H39   H     H_    0.355811 0.737749 0.711421 0.154199
H40   H     H_    0.256432 0.350088 0.292009 0.172756
H41   H     H_    0.743573 0.649914 0.707989 0.172339
H42   H     H_    0.355811 0.737748 0.288579 0.154440
H43   H     H_    0.644189 0.262251 0.711421 0.154199
H44   H     H_    0.856453 0.686052 0.412987 0.352557
H45   H     H_    0.062217 0.401401 0.445264 0.160880
H46   H     H_    0.127014 0.266818 0.610410 0.388311
H47   H     H_    0.733182 0.872987 0.389590 0.388311
H48   H     H_    0.313948 0.143547 0.587013 0.352557
H49   H     H_    0.143547 0.313948 0.412987 0.352557
H50   H     H_    0.872985 0.733182 0.610409 0.388311
H51   H     H_    0.266818 0.127014 0.389590 0.388311
H52   H     H_    0.686052 0.856453 0.587013 0.352557
H53   H     H_    0.356453 0.186052 0.912987 0.352557
H54   H     H_    0.627012 0.766817 0.110410 0.388311
H55   H     H_    0.233182 0.372987 0.889590 0.388311
H56   H     H_    0.934823 0.596719 0.554720 0.189918
H57   H     H_    0.813948 0.643547 0.087013 0.352558
H58   H     H_    0.643547 0.813948 0.912987 0.352557
H59   H     H_    0.372987 0.233182 0.110410 0.388311
H60   H     H_    0.766818 0.627013 0.889590 0.388311
H61   H     H_    0.186052 0.356453 0.087013 0.352557
H62   H     H_    0.403281 0.065176 0.445280 0.189918
H63   H     H_    0.598599 0.937783 0.554736 0.160880
H64   H     H_    0.437783 0.098599 0.945264 0.160880
O1    O     O_3   0.500000 0.000000 0.250000 -0.482317
O2    O     O_R   0.500000 0.939240 0.675070 -0.489247
O3    O     O_3   0.198787 0.403743 0.097516 -0.479881
O4    O     O_R   0.939240 0.500000 0.324930 -0.489247
O5    O     O_R   0.060760 0.500000 0.675070 -0.487345
O6    O     O_R   1.000000 0.439240 0.824930 -0.487345
O7    O     O_R   1.000000 0.560760 0.175070 -0.489248
O8    O     O_R   0.560760 1.000000 0.824930 -0.489248
O9    O     O_R   0.439240 0.000000 0.175070 -0.487345
O10   O     O_R   1.000000 0.560760 0.824930 -0.487345
O11   O     O_R   0.000000 0.439240 0.175070 -0.489247
O12   O     O_R   0.439240 1.000000 0.824930 -0.489247
O13   O     O_3   0.500000 0.000000 0.750000 -0.482610
O14   O     O_R   0.560760 0.000000 0.175070 -0.487345
O15   O     O_R   0.414510 0.146130 0.269710 -0.523950
O16   O     O_R   0.585490 0.853870 0.730290 -0.523725
O17   O     O_R   0.853870 0.414510 0.269710 -0.543974
O18   O     O_R   0.146130 0.585490 0.730290 -0.543970
O19   O     O_R   0.585490 0.853870 0.269710 -0.523950
O20   O     O_R   0.414510 0.146130 0.730290 -0.523725
O21   O     O_R   0.146130 0.585490 0.269710 -0.543975
O22   O     O_R   0.853870 0.414510 0.730290 -0.543970
O23   O     O_R   0.414510 0.853870 0.730290 -0.543975
O24   O     O_3   1.000000 0.500000 0.250000 -0.482610
O25   O     O_R   0.585490 0.146130 0.269710 -0.543970
O26   O     O_R   0.853870 0.585490 0.730290 -0.523950
O27   O     O_R   0.146130 0.414510 0.269710 -0.523724
O28   O     O_R   0.585490 0.146130 0.730290 -0.543974
O29   O     O_R   0.414510 0.853870 0.269710 -0.543970
O30   O     O_R   0.146130 0.414510 0.730290 -0.523950
O31   O     O_R   0.853870 0.585490 0.269710 -0.523724
O32   O     O_R   0.914510 0.646130 0.769710 -0.523950
O33   O     O_R   0.085490 0.353870 0.230290 -0.523725
O34   O     O_R   0.353870 0.914510 0.769710 -0.543974
O35   O     O_3   1.000000 0.500000 0.750000 -0.482317
O36   O     O_R   0.646130 0.085490 0.230290 -0.543970
O37   O     O_R   0.085490 0.353870 0.769710 -0.523950
O38   O     O_R   0.914510 0.646130 0.230290 -0.523725
O39   O     O_R   0.646130 0.085490 0.769710 -0.543975
O40   O     O_R   0.353870 0.914510 0.230290 -0.543970
O41   O     O_R   0.914510 0.353870 0.230290 -0.543975
O42   O     O_R   0.085490 0.646130 0.769710 -0.543970
O43   O     O_R   0.353870 0.085490 0.230290 -0.523950
O44   O     O_R   0.646130 0.914510 0.769710 -0.523724
O45   O     O_R   0.085490 0.646130 0.230290 -0.543974
O46   O     O_R   0.500000 0.939240 0.324930 -0.487345
O47   O     O_R   0.914510 0.353870 0.769710 -0.543970
O48   O     O_R   0.646130 0.914510 0.230290 -0.523950
O49   O     O_R   0.353870 0.085490 0.769710 -0.523724
O50   O     O_2   0.969894 0.659430 0.347639 -0.250511
O51   O     O_2   0.851120 0.605222 0.359693 -0.271964
O52   O     O_3   0.903743 0.698787 0.402484 -0.479880
O53   O     O_2   0.152598 0.398624 0.639234 -0.258797
O54   O     O_2   0.035127 0.342104 0.652667 -0.286293
O55   O     O_3   0.100023 0.303804 0.597154 -0.506161
O56   O     O_2   0.601376 0.847402 0.360766 -0.258797
O57   O     O_R   0.500000 0.060760 0.675070 -0.489248
O58   O     O_2   0.657896 0.964874 0.347333 -0.286293
O59   O     O_3   0.696196 0.899977 0.402846 -0.506161
O60   O     O_2   0.340570 0.030106 0.652361 -0.250511
O61   O     O_2   0.394778 0.148880 0.640307 -0.271964
O62   O     O_3   0.301213 0.096257 0.597516 -0.479881
O63   O     O_2   0.030106 0.340570 0.347639 -0.250511
O64   O     O_2   0.148880 0.394778 0.359693 -0.271964
O65   O     O_3   0.096257 0.301213 0.402484 -0.479881
O66   O     O_2   0.847402 0.601375 0.639234 -0.258798
O67   O     O_2   0.964873 0.657896 0.652667 -0.286292
O68   O     O_R   0.060760 0.500000 0.324930 -0.489248
O69   O     O_3   0.899976 0.696196 0.597154 -0.506160
O70   O     O_2   0.398624 0.152597 0.360766 -0.258797
O71   O     O_2   0.342104 0.035126 0.347333 -0.286293
O72   O     O_3   0.303804 0.100023 0.402846 -0.506161
O73   O     O_2   0.659430 0.969894 0.652361 -0.250511
O74   O     O_2   0.605222 0.851120 0.640307 -0.271964
O75   O     O_3   0.698787 0.903743 0.597516 -0.479880
O76   O     O_2   0.469894 0.159430 0.847639 -0.250511
O77   O     O_2   0.351120 0.105222 0.859693 -0.271964
O78   O     O_3   0.403743 0.198787 0.902484 -0.479880
O79   O     O_R   0.939240 0.500000 0.675070 -0.487345
O80   O     O_2   0.652597 0.898624 0.139234 -0.258796
O81   O     O_2   0.535126 0.842104 0.152667 -0.286294
O82   O     O_3   0.600023 0.803804 0.097154 -0.506161
O83   O     O_2   0.101376 0.347402 0.860766 -0.258797
O84   O     O_2   0.157896 0.464874 0.847333 -0.286293
O85   O     O_3   0.196196 0.399977 0.902845 -0.506161
O86   O     O_2   0.840570 0.530106 0.152361 -0.250511
O87   O     O_2   0.894778 0.648880 0.140307 -0.271964
O88   O     O_3   0.801213 0.596257 0.097516 -0.479881
O89   O     O_2   0.530106 0.840570 0.847639 -0.250511
O90   O     O_R   0.500000 0.060760 0.324930 -0.487345
O91   O     O_2   0.648880 0.894778 0.859693 -0.271964
O92   O     O_3   0.596257 0.801213 0.902484 -0.479881
O93   O     O_2   0.347403 0.101376 0.139234 -0.258797
O94   O     O_2   0.464874 0.157896 0.152667 -0.286293
O95   O     O_3   0.399977 0.196196 0.097154 -0.506161
O96   O     O_2   0.898624 0.652598 0.860766 -0.258797
O97   O     O_2   0.842104 0.535126 0.847333 -0.286293
O98   O     O_3   0.803804 0.600023 0.902845 -0.506161
O99   O     O_2   0.159430 0.469894 0.152361 -0.250511
O100  O     O_2   0.105222 0.351120 0.140307 -0.271964
S1    S     S_3+6 0.921392 0.630783 0.375171 0.040545
S2    S     S_3+6 0.582110 0.871283 0.124677 0.032347
S3    S     S_3+6 0.128717 0.417890 0.875323 0.032347
S4    S     S_3+6 0.869217 0.578608 0.124829 0.040545
S5    S     S_3+6 0.578608 0.869217 0.875171 0.040545
S6    S     S_3+6 0.417890 0.128717 0.124677 0.032347
S7    S     S_3+6 0.871283 0.582110 0.875323 0.032347
S8    S     S_3+6 0.130783 0.421392 0.124829 0.040545
S9    S     S_3+6 0.082110 0.371283 0.624677 0.032348
S10   S     S_3+6 0.628717 0.917890 0.375323 0.032347
S11   S     S_3+6 0.369217 0.078608 0.624829 0.040545
S12   S     S_3+6 0.078608 0.369217 0.375171 0.040545
S13   S     S_3+6 0.917889 0.628717 0.624677 0.032348
S14   S     S_3+6 0.371283 0.082110 0.375323 0.032347
S15   S     S_3+6 0.630783 0.921392 0.624829 0.040545
S16   S     S_3+6 0.421392 0.130783 0.875171 0.040545
Zn1   Zn    Zn3+2 0.413200 0.000000 0.222070 1.035863
Zn2   Zn    Zn3+2 0.086800 0.500000 0.277930 1.036095
Zn3   Zn    Zn3+2 0.500000 0.913200 0.722070 1.036095
Zn4   Zn    Zn3+2 0.500000 0.086800 0.277930 1.035863
Zn5   Zn    Zn3+2 0.086800 0.500000 0.722070 1.035863
Zn6   Zn    Zn3+2 0.913200 0.500000 0.277930 1.036095
Zn7   Zn    Zn3+2 0.500000 0.086800 0.722070 1.036095
Zn8   Zn    Zn3+2 0.500000 0.913200 0.277930 1.035862
Zn9   Zn    Zn3+2 0.586800 0.000000 0.777930 1.036095
Zn10  Zn    Zn3+2 1.000000 0.413200 0.222070 1.036095
Zn11  Zn    Zn3+2 1.000000 0.586800 0.777930 1.035863
Zn12  Zn    Zn3+2 0.586800 0.000000 0.222070 1.035862
Zn13  Zn    Zn3+2 0.413200 0.000000 0.777930 1.036095
Zn14  Zn    Zn3+2 1.000000 0.586800 0.222070 1.036095
Zn15  Zn    Zn3+2 1.000000 0.413200 0.777930 1.035863
Zn16  Zn    Zn3+2 0.913200 0.500000 0.722070 1.035863

loop_
_geom_bond_atom_site_label_1
_geom_bond_atom_site_label_2
_ccdc_geom_bond_type
C73   O90   A    
C33   C55   A    
C30   C51   A    
C29   C42   A    
C35   C53   A    
O9    Zn1   S    
O73   S15   D    
C114  H24   S    
C39   C41   A    
C76   O68   A    
O32   Zn11  S    
O56   S10   D    
C1    C56   A    
C1    H1    S    
C6    C25   A    
C28   C40   A    
O92   S5    S    
O35   Zn5   S    
O59   S10   S    
C108  C109  A    
C12   C84   S    
O16   Zn3   S    
C91   O23   A    
O13   Zn3   S    
C38   S1    S    
C3    C19   A    
C17   C98   S    
C116  H26   S    
O13   Zn9   S    
O40   Zn1   S    
C82   O43   A    
C115  H25   S    
C34   C60   A    
C36   C62   A    
C28   C73   S    
C35   H6    S    
C16   C109  A    
O27   Zn2   S    
C88   O49   A    
C84   O17   A    
C17   C127  A    
O7    Zn14  S    
C33   C50   A    
C10   C82   S    
C4    H40   S    
O47   Zn15  S    
C44   S13   S    
C102  C114  A    
O57   Zn7   S    
C20   C92   S    
C25   C100  A    
O24   Zn2   S    
O85   S3    S    
C127  H37   S    
O86   S4    D    
O45   Zn14  S    
C52   C58   A    
C124  C127  A    
C85   H56   S    
C31   C48   A    
C101  C115  A    
O61   S11   D    
C36   H7    S    
C90   O22   A    
C48   S2    S    
C124  H33   S    
O68   Zn2   S    
C9    C90   S    
O39   Zn9   S    
C43   S12   S    
C59   C63   A    
C16   C124  A    
C111  H20   S    
C23   C101  A    
C21   C93   S    
C52   H23   S    
O79   Zn16  S    
C94   O27   A    
C57   C85   A    
C49   S3    S    
C102  H11   S    
C92   O25   A    
C11   C113  A    
O64   S12   D    
C100  H9    S    
C8    C116  A    
C58   C67   S    
C5    C21   A    
C88   O20   A    
C78   O6    A    
O95   S6    S    
O93   S6    D    
C7    C117  A    
C57   C66   S    
O67   S13   D    
O28   Zn7   S    
C3    H39   S    
O15   Zn4   S    
C34   C51   A    
C31   C81   S    
O23   Zn3   S    
O19   Zn8   S    
C98   O37   A    
C96   H62   S    
C41   H12   S    
C94   O33   A    
C27   C44   A    
O78   S16   S    
O54   S9    D    
C23   C95   S    
C117  H27   S    
C98   O30   A    
O55   S9    S    
C22   C94   S    
O69   S13   S    
C69   C70   T    
C53   S6    S    
C11   C120  A    
C103  H13   S    
H55   O85   S    
C42   S11   S    
C24   C50   A    
C99   O31   A    
O10   Zn11  S    
O97   S7    D    
O11   Zn10  S    
O26   Zn16  S    
C14   C86   S    
O12   Zn13  S    
C104  C112  A    
O58   S10   D    
C59   C107  A    
O1    Zn4   S    
O2    Zn3   S    
C18   C106  A    
O66   S13   D    
C4    C22   A    
O91   S5    D    
H47   O59   S    
O14   Zn12  S    
C35   C61   A    
O99   S8    D    
O83   S3    D    
C25   C97   S    
C121  H30   S    
C91   O34   A    
C15   C125  A    
C18   C99   S    
C44   C85   A    
O17   Zn6   S    
C12   C112  A    
O50   S1    D    
C6    H42   S    
O53   S9    D    
C87   O19   A    
C113  H22   S    
O1    Zn8   S    
C71   C72   T    
C18   C126  A    
C24   H4    S    
C12   C123  A    
C77   O5    A    
C60   C69   S    
C7    C23   A    
C42   C63   A    
O88   S4    S    
C62   C71   S    
C32   C49   A    
C36   C54   A    
C37   C55   A    
C75   O2    A    
H44   O52   S    
C107  H63   S    
O20   Zn7   S    
C8    C89   S    
O35   Zn16  S    
C8    C119  A    
O80   S2    D    
C81   O14   A    
C61   C70   S    
C119  H28   S    
C14   C122  A    
C7    H43   S    
C6    C119  A    
C100  C116  A    
H52   O75   S    
O24   Zn10  S    
O46   Zn8   S    
C86   O42   A    
C90   O47   A    
C95   O39   A    
O13   Zn7   S    
O52   S1    S    
C97   O40   A    
C76   O4    A    
C118  H64   S    
C47   C118  A    
C13   C62   A    
C122  H31   S    
C77   O79   A    
C60   C118  A    
C10   C114  A    
C2    C61   A    
H54   O82   S    
C105  C111  A    
O4    Zn6   S    
C24   C64   A    
O35   Zn11  S    
C15   C110  A    
O36   Zn12  S    
C45   S14   S    
O74   S15   D    
C32   C54   A    
H46   O55   S    
C56   C74   A    
C5    C120  A    
C67   C68   T    
C9    C115  A    
C89   O45   A    
C79   O7    A    
C17   C108  A    
O89   S5    D    
C33   C79   S    
C81   O9    A    
C2    C48   A    
O21   Zn2   S    
O48   Zn12  S    
H51   O72   S    
H61   O3    S    
O30   Zn5   S    
C95   O28   A    
C13   H3    S    
C37   H8    S    
O1    Zn1   S    
O70   S14   D    
C40   S10   S    
H58   O92   S    
C1    C38   A    
C29   C75   S    
C19   C105  A    
C125  C126  A    
C104  H14   S    
O100  S8    D    
O72   S14   S    
C51   S5    S    
C37   C64   A    
C89   O21   A    
C108  H17   S    
O13   Zn13  S    
O49   Zn13  S    
O41   Zn10  S    
C26   C38   A    
C86   O18   A    
O71   S14   D    
O6    Zn15  S    
O90   Zn4   S    
C101  H10   S    
O65   S12   S    
O3    S8    S    
C29   C46   A    
C11   C83   S    
O82   S2    S    
C41   C57   A    
C80   O12   A    
O38   Zn14  S    
C2    H2    S    
O96   S7    D    
C4    C121  A    
C93   O32   A    
C19   C91   S    
H48   O62   S    
O29   Zn8   S    
C73   O46   A    
C83   O44   A    
C92   O36   A    
C16   C88   S    
C5    H41   S    
C75   O57   A    
H49   O65   S    
C54   S7    S    
O62   S11   S    
O87   S4    D    
C63   H34   S    
C9    C117  A    
C109  H18   S    
O1    Zn12  S    
C10   C121  A    
C103  C113  A    
C20   C128  A    
O44   Zn9   S    
C123  H32   S    
C56   C65   S    
C80   O8    A    
O5    Zn5   S    
O63   S12   D    
C58   C96   A    
H59   O95   S    
C27   C39   A    
C26   C76   S    
C47   S16   S    
C3    C122  A    
C30   C80   S    
C43   C74   A    
O24   Zn6   S    
C128  H38   S    
C125  H35   S    
O42   Zn11  S    
C126  H36   S    
C82   O15   A    
O76   S16   D    
C26   C43   A    
C14   C111  A    
C28   C45   A    
O25   Zn4   S    
O24   Zn14  S    
C30   C47   A    
O75   S15   S    
C74   H45   S    
O84   S3    D    
C34   H5    S    
C40   C52   A    
O31   Zn6   S    
C93   O26   A    
C83   O16   A    
C59   C68   S    
O77   S16   D    
C46   C107  A    
O60   S11   D    
C31   C53   A    
O43   Zn1   S    
C13   C49   A    
O33   Zn10  S    
C79   O11   A    
C110  H19   S    
H57   O88   S    
O35   Zn15  S    
O8    Zn9   S    
C99   O38   A    
C15   C87   S    
H53   O78   S    
C106  C110  A    
C87   O48   A    
O22   Zn16  S    
O98   S7    S    
C78   O10   A    
C27   C77   S    
H50   O69   S    
C105  H15   S    
H60   O98   S    
C106  H16   S    
C20   C104  A    
O51   S1    D    
C22   C102  A    
C39   S9    S    
C84   O41   A    
C123  C128  A    
C120  H29   S    
C97   O29   A    
O81   S2    D    
C64   C72   S    
C50   S4    S    
O18   Zn5   S    
C32   C78   S    
C21   C103  A    
C55   S8    S    
C65   C66   T    
C112  H21   S    
O94   S6    D    
C45   C96   A    
C46   S15   S    
O37   Zn15  S    
O34   Zn13  S    
