data_mof_unit_43635.cif
_audit_creation_date              2012-12-10T20:36:41-0500
_audit_creation_method            fapswitch 2.2
_symmetry_space_group_name_H-M    P1
_symmetry_Int_Tables_number       1
_space_group_crystal_system       triclinic
_cell_length_a                    10.52787
_cell_length_b                    10.704268
_cell_length_c                    9.934444
_cell_angle_alpha                 89.294025
_cell_angle_beta                  89.989293
_cell_angle_gamma                 91.839973
_cell_volume                      1118.88134402

loop_
_atom_site_label
_atom_site_type_symbol
_atom_type_description
_atom_site_fract_x
_atom_site_fract_y
_atom_site_fract_z
_atom_type_partial_charge
Br1   Br    Br    0.287397 0.094250 0.717399 -0.508821
Br2   Br    Br    0.551251 0.148851 0.890318 -0.466512
Br3   Br    Br    0.731145 0.651297 0.154709 -0.406462
C1    C     C_R   0.506005 0.259698 0.500104 0.957793
C2    C     C_R   0.551567 0.933890 0.618889 -0.075739
C3    C     C_3   0.481301 0.916342 0.749291 0.242815
C4    C     C_R   0.257800 0.500543 0.499733 0.969984
C5    C     C_3   0.465270 0.057245 0.746457 0.380391
C6    C     C_R   0.391224 0.474193 0.071359 0.075732
C7    C     C_R   0.599245 0.552372 0.070472 0.321217
C8    C     C_R   0.599865 0.551306 0.927268 0.478797
C9    C     C_R   0.390026 0.477603 0.930048 0.145282
C10   C     C_3   0.300069 0.367810 0.926343 0.272292
C11   C     C_3   0.304810 0.362090 0.079908 -0.493300
C12   C     C_3   0.961087 0.611749 0.448167 -0.220903
C13   C     C_R   0.509151 0.739538 0.499319 0.881187
C14   C     C_R   0.742211 0.500429 0.500245 0.945117
C15   C     C_3   0.038190 0.394429 0.550433 0.358292
C16   C     C_3   0.955943 0.408544 0.425751 0.334260
C17   C     C_3   0.876779 0.501617 0.501018 -0.120319
C18   C     C_3   0.960402 0.488223 0.625645 0.406003
C19   C     C_3   0.046113 0.598407 0.575419 -0.300276
C20   C     C_3   0.041408 0.516589 0.370762 -0.214242
C21   C     C_3   0.123292 0.502350 0.498616 -0.148395
C22   C     C_R   0.541609 0.060939 0.618947 -0.047749
C23   C     C_R   0.531923 0.128218 0.498235 -0.126979
C24   C     C_R   0.556339 0.066385 0.375580 0.464923
C25   C     C_R   0.557503 0.935748 0.376868 -0.273987
C26   C     C_R   0.539507 0.870317 0.498446 -0.134724
H1    H     H_    0.339703 0.288075 0.874817 0.200021
H2    H     H_    0.647130 0.901080 0.839943 0.379735
H3    H     H_    0.665063 0.651201 0.780736 0.378630
H4    H     H_    0.126381 0.324804 0.882524 0.386871
H5    H     H_    0.004560 0.232575 0.628957 0.369343
H6    H     H_    0.965931 0.525438 0.814567 0.385958
H7    H     H_    0.589339 0.074120 0.182559 0.372977
H8    H     H_    0.213129 0.382268 0.129329 0.216268
H9    H     H_    0.353185 0.278634 0.119948 0.233534
H10   H     H_    0.087133 0.675473 0.637153 0.190479
H11   H     H_    0.924950 0.700613 0.406772 0.207435
H12   H     H_    0.077389 0.527633 0.266124 0.195179
H13   H     H_    0.562816 0.886261 0.282637 0.203312
H14   H     H_    0.391164 0.860063 0.740036 0.163435
H15   H     H_    0.978387 0.268145 0.311488 0.352105
N1    N     N_R   0.499140 0.499140 0.142800 -0.154916
N2    N     N_R   0.499140 0.499180 0.857150 -0.203932
O1    O     O_R   0.500020 0.316790 0.614690 -0.591619
O2    O     O_3   0.557439 0.873055 0.855792 -0.713873
O3    O     O_3   0.699921 0.610697 0.861722 -0.678527
O4    O     O_3   0.181140 0.401905 0.877837 -0.705961
O5    O     O_3   0.081975 0.281955 0.602348 -0.699156
O6    O     O_3   0.913952 0.469224 0.756528 -0.666681
O7    O     O_3   0.570637 0.132688 0.255966 -0.697887
O8    O     O_R   0.500000 0.316760 0.385350 -0.553938
O9    O     O_R   0.313960 0.499990 0.614650 -0.572708
O10   O     O_R   0.313940 0.499950 0.385310 -0.641128
O11   O     O_R   0.500000 0.683240 0.614650 -0.655823
O12   O     O_R   0.499980 0.683210 0.385310 -0.605340
O13   O     O_R   0.686060 0.500050 0.614690 -0.594813
O14   O     O_R   0.686040 0.500010 0.385350 -0.559189
O15   O     O_3   0.904355 0.309975 0.350199 -0.704743
Zn1   Zn    Zn3+2 0.500010 0.500020 0.653130 1.028978
Zn2   Zn    Zn3+2 0.499990 0.499980 0.346870 1.040297

loop_
_geom_bond_atom_site_label_1
_geom_bond_atom_site_label_2
_ccdc_geom_bond_type
C16   C20   S    
C6    C11   S    
C24   O7    S    
C6    N1    A    
C8    O3    S    
H15   O15   S    
C11   H9    S    
C15   C18   S    
C1    C23   S    
C16   C17   S    
C20   H12   S    
C4    O9    A    
C20   C21   S    
C22   C23   A    
C12   H11   S    
C7    N1    A    
C12   C20   S    
C13   C26   S    
O10   Zn2   S    
O11   Zn1   S    
Br3   C7    S    
C13   O12   A    
C10   C11   S    
C9    C10   S    
C11   H8    S    
O12   Zn2   S    
C2    C3    S    
H5    O5    S    
C23   C24   A    
C12   C17   S    
C3    O2    S    
C4    O10   A    
O1    Zn1   S    
O14   Zn2   S    
C2    C22   A    
C19   H10   S    
C25   H13   S    
C25   C26   A    
N2    Zn1   S    
C14   O13   A    
C15   O5    S    
C2    C26   A    
C13   O11   A    
C12   C19   S    
H2    O2    S    
C16   O15   S    
C6    C9    A    
C19   C21   S    
H3    O3    S    
O8    Zn2   S    
C14   O14   A    
C5    C22   S    
C4    C21   S    
Br1   C5    S    
O9    Zn1   S    
C10   H1    S    
C24   C25   A    
C14   C17   S    
C17   C18   S    
C15   C21   S    
C9    N2    A    
C15   C16   S    
C7    C8    A    
H6    O6    S    
C3    H14   S    
O13   Zn1   S    
C3    C5    S    
H7    O7    S    
C1    O8    A    
H4    O4    S    
C18   C19   S    
N1    Zn2   S    
C18   O6    S    
Br2   C5    S    
C10   O4    S    
C8    N2    A    
C1    O1    A    
