data_mof_unit_42636.cif
_audit_creation_date              2012-12-10T17:31:24-0500
_audit_creation_method            fapswitch 2.2
_symmetry_space_group_name_H-M    P1
_symmetry_Int_Tables_number       1
_space_group_crystal_system       triclinic
_cell_length_a                    18.839069
_cell_length_b                    18.441465
_cell_length_c                    12.365646
_cell_angle_alpha                 90.098237
_cell_angle_beta                  129.058402
_cell_angle_gamma                 89.849128
_cell_volume                      3335.90676528

loop_
_atom_site_label
_atom_site_type_symbol
_atom_type_description
_atom_site_fract_x
_atom_site_fract_y
_atom_site_fract_z
_atom_type_partial_charge
C1    C     C_R   0.614401 0.898788 0.654927 0.805720
C2    C     C_R   0.607888 0.105361 0.646822 0.812279
C3    C     C_R   0.114402 0.398789 0.654928 0.805720
C4    C     C_R   0.107888 0.605361 0.646822 0.812280
C5    C     C_R   0.238219 0.777847 0.035482 0.088716
C6    C     C_R   0.242976 0.223126 0.038267 0.100579
C7    C     C_R   0.738219 0.277848 0.035482 0.088717
C8    C     C_R   0.742976 0.723126 0.038267 0.100576
C9    C     C_R   0.665481 0.263751 0.038425 0.153253
C10   C     C_R   0.658590 0.721691 0.013634 0.158985
C11   C     C_R   0.165481 0.763751 0.038426 0.153253
C12   C     C_R   0.158588 0.221687 0.013628 0.158985
C13   C     C_R   0.589239 0.225567 0.929925 -0.221107
C14   C     C_R   0.581594 0.754114 0.894379 -0.220433
C15   C     C_R   0.089239 0.725567 0.929926 -0.221107
C16   C     C_R   0.081593 0.254110 0.894371 -0.220433
C17   C     C_R   0.585847 0.198730 0.821928 -0.163833
C18   C     C_R   0.588065 0.790453 0.802619 -0.169095
C19   C     C_R   0.085847 0.698730 0.821929 -0.163833
C20   C     C_R   0.088065 0.290451 0.802615 -0.169096
C21   C     C_R   0.313430 0.817080 0.145831 -0.232507
C22   C     C_R   0.318748 0.189270 0.158561 -0.211309
C23   C     C_R   0.813430 0.317080 0.145831 -0.232506
C24   C     C_R   0.818748 0.689269 0.158559 -0.211309
C25   C     C_R   0.241430 0.833285 0.251217 -0.169850
C26   C     C_R   0.226715 0.148259 0.220326 -0.174606
C27   C     C_R   0.741430 0.333286 0.251216 -0.169849
C28   C     C_R   0.726719 0.648264 0.220334 -0.174604
C29   C     C_R   0.662638 0.172077 0.720139 -0.163543
C30   C     C_R   0.682519 0.841210 0.744587 -0.163360
C31   C     C_R   0.162637 0.672078 0.720138 -0.163543
C32   C     C_R   0.182521 0.341212 0.744591 -0.163360
C33   C     C_R   0.683174 0.015515 0.283104 -0.257683
C34   C     C_R   0.183173 0.515518 0.283103 -0.257685
C35   C     C_R   0.342769 0.999537 0.624913 0.031303
C36   C     C_R   0.842769 0.499537 0.624913 0.031303
C37   C     C_R   0.305834 0.005772 0.692404 -0.251558
C38   C     C_R   0.805834 0.505770 0.692404 -0.251558
C39   C     C_R   0.383763 0.098806 0.342605 0.802439
C40   C     C_R   0.384791 0.900292 0.343784 0.802985
C41   C     C_R   0.883763 0.598807 0.342606 0.802441
C42   C     C_R   0.884791 0.400292 0.343784 0.802987
C43   C     C_R   0.362085 0.011258 0.837435 0.136571
C44   C     C_R   0.862084 0.511257 0.837435 0.136570
C45   C     C_R   0.458976 0.004723 0.918873 -0.060081
C46   C     C_R   0.958976 0.504723 0.918873 -0.060081
C47   C     C_R   0.493308 0.002052 0.842317 0.250603
C48   C     C_R   0.993308 0.502052 0.842317 0.250604
C49   C     C_R   0.524029 0.003944 0.070345 -0.028014
C50   C     C_R   0.024029 0.503944 0.070345 -0.028014
C51   C     C_R   0.618580 0.010609 0.137741 0.153686
C52   C     C_R   0.118580 0.510610 0.137740 0.153686
C53   C     C_R   0.649075 0.010535 0.060701 -0.259565
C54   C     C_R   0.149074 0.510537 0.060701 -0.259565
C55   C     C_R   0.588295 0.003619 0.917362 -0.157916
C56   C     C_R   0.088295 0.503620 0.917362 -0.157917
C57   C     C_R   0.501714 0.993782 0.160099 0.040074
C58   C     C_R   0.001714 0.493781 0.160100 0.040073
C59   C     C_R   0.655064 0.011838 0.363117 0.142187
C60   C     C_R   0.155064 0.511841 0.363117 0.142184
C61   C     C_R   0.668342 0.290524 0.147401 -0.160372
C62   C     C_R   0.651634 0.685590 0.106514 -0.170620
C63   C     C_R   0.168342 0.790524 0.147402 -0.160373
C64   C     C_R   0.151631 0.185583 0.106504 -0.170622
C65   C     C_R   0.313318 0.847859 0.248688 -0.055338
C66   C     C_R   0.309748 0.148577 0.243798 -0.044074
C67   C     C_R   0.813317 0.347859 0.248688 -0.055339
C68   C     C_R   0.809750 0.648578 0.243800 -0.044076
C69   C     C_R   0.721781 0.201057 0.696735 0.169777
C70   C     C_R   0.763068 0.833550 0.758396 0.166591
C71   C     C_R   0.221780 0.701058 0.696733 0.169779
C72   C     C_R   0.263073 0.333555 0.758406 0.166590
C73   C     C_R   0.287380 0.751939 0.788174 -0.159479
C74   C     C_R   0.332738 0.287728 0.858755 -0.153759
C75   C     C_R   0.787382 0.251939 0.788175 -0.159480
C76   C     C_R   0.832733 0.787723 0.858744 -0.153758
C77   C     C_R   0.295739 0.775442 0.901990 -0.215395
C78   C     C_R   0.327284 0.251686 0.950957 -0.200821
C79   C     C_R   0.795740 0.275442 0.901991 -0.215395
C80   C     C_R   0.827281 0.751683 0.950950 -0.200820
C81   C     C_R   0.733260 0.252786 0.922201 0.088765
C82   C     C_R   0.748848 0.757599 0.941618 0.099024
C83   C     C_R   0.233260 0.752786 0.922202 0.088764
C84   C     C_R   0.248850 0.257599 0.941621 0.099025
C85   C     C_R   0.660549 0.206351 0.821747 0.047623
C86   C     C_R   0.672598 0.797298 0.829165 0.048100
C87   C     C_R   0.160549 0.706351 0.821748 0.047623
C88   C     C_R   0.172599 0.297298 0.829166 0.048101
Cu1   Cu    Cu3+1 0.526340 0.000000 0.421010 0.984436
Cu2   Cu    Cu3+1 0.026340 0.500000 0.421010 0.984436
Cu3   Cu    Cu3+1 0.473640 0.000000 0.578990 0.922191
Cu4   Cu    Cu3+1 0.973640 0.500000 0.578990 0.922192
H1    H     H_    0.240500 0.856380 0.330912 0.161536
H2    H     H_    0.218814 0.116758 0.285988 0.148694
H3    H     H_    0.740500 0.356380 0.330911 0.161535
H4    H     H_    0.718819 0.616765 0.285999 0.148696
H5    H     H_    0.721533 0.013826 0.112365 0.156854
H6    H     H_    0.221533 0.513829 0.112365 0.156854
H7    H     H_    0.755204 0.022630 0.334743 0.160125
H8    H     H_    0.255203 0.522635 0.334742 0.160126
H9    H     H_    0.434589 0.977764 0.119832 0.164156
H10   H     H_    0.934590 0.477761 0.119833 0.164155
H11   H     H_    0.297599 0.997538 0.512365 0.137702
H12   H     H_    0.797599 0.497538 0.512365 0.137703
H13   H     H_    0.232307 0.009910 0.629981 0.176827
H14   H     H_    0.732307 0.509908 0.629981 0.176827
H15   H     H_    0.619023 0.000724 0.868794 0.208654
H16   H     H_    0.119023 0.500724 0.868794 0.208654
H17   H     H_    0.531290 0.217163 0.927390 0.144776
H18   H     H_    0.515779 0.750930 0.871216 0.147470
H19   H     H_    0.031291 0.717163 0.927391 0.144776
H20   H     H_    0.015776 0.250923 0.871204 0.147472
H21   H     H_    0.612715 0.280292 0.149817 0.147526
H22   H     H_    0.587269 0.683919 0.088051 0.139934
H23   H     H_    0.112716 0.780292 0.149818 0.147528
H24   H     H_    0.087264 0.183910 0.088036 0.139935
H25   H     H_    0.373269 0.824881 0.154004 0.149866
H26   H     H_    0.385930 0.192091 0.187720 0.152705
H27   H     H_    0.873270 0.324880 0.154005 0.149865
H28   H     H_    0.885929 0.692088 0.187714 0.152708
H29   H     H_    0.347958 0.815465 0.966323 0.144191
H30   H     H_    0.384713 0.217361 0.025011 0.157204
H31   H     H_    0.847958 0.315465 0.966323 0.144192
H32   H     H_    0.884710 0.717357 0.025003 0.157203
H33   H     H_    0.332647 0.774086 0.770767 0.159526
H34   H     H_    0.393652 0.281281 0.868388 0.157372
H35   H     H_    0.832648 0.274084 0.770770 0.159526
H36   H     H_    0.893645 0.781274 0.868373 0.157373
H37   H     H_    0.521412 0.175687 0.735343 0.185790
H38   H     H_    0.524917 0.810655 0.708176 0.176805
H39   H     H_    0.021412 0.675687 0.735344 0.185790
H40   H     H_    0.024917 0.310652 0.708171 0.176804
H41   H     H_    0.704263 0.018643 0.474470 0.174982
H42   H     H_    0.204262 0.518647 0.474469 0.174983
N1    N     N_R   0.566260 0.000000 0.302220 -0.186665
N2    N     N_R   0.066260 0.500000 0.302220 -0.186665
N3    N     N_R   0.434410 0.000000 0.697680 -0.205351
N4    N     N_R   0.934410 0.500000 0.697680 -0.205351
O1    O     O_R   0.608610 0.924520 0.551740 -0.540319
O2    O     O_R   0.608610 0.075480 0.551740 -0.544866
O3    O     O_R   0.108610 0.424520 0.551740 -0.540318
O4    O     O_R   0.108610 0.575480 0.551740 -0.544867
O5    O     O_R   0.564110 0.924510 0.685150 -0.605675
O6    O     O_R   0.564110 0.075490 0.685150 -0.611517
O7    O     O_R   0.064110 0.424510 0.685150 -0.605673
O8    O     O_R   0.064110 0.575490 0.685150 -0.611518
O9    O     O_R   0.435880 0.075470 0.314850 -0.560543
O10   O     O_R   0.435880 0.924530 0.314850 -0.585177
O11   O     O_R   0.935880 0.575470 0.314850 -0.560544
O12   O     O_R   0.935880 0.424530 0.314850 -0.585177
O13   O     O_R   0.391380 0.075460 0.448260 -0.597612
O14   O     O_R   0.391380 0.924540 0.448260 -0.595975
O15   O     O_R   0.891380 0.575460 0.448260 -0.597613
O16   O     O_R   0.891380 0.424540 0.448260 -0.595974
I1    I     I_    0.287354 0.046793 0.904382 -0.427852
I2    I     I_    0.787354 0.546790 0.904382 -0.427852
I3    I     I_    0.713107 0.182661 0.518972 -0.432435
I4    I     I_    0.793721 0.887320 0.640770 -0.400281
I5    I     I_    0.213102 0.682665 0.518967 -0.432435
I6    I     I_    0.293729 0.387330 0.640790 -0.400278

loop_
_geom_bond_atom_site_label_1
_geom_bond_atom_site_label_2
_ccdc_geom_bond_type
C26   H2    S    
Cu1   O10   S    
C83   C87   A    
C48   N4    A    
C25   H1    S    
C64   H24   S    
C2    O6    A    
C14   C18   A    
C27   H3    S    
C3    O3    A    
C48   C56   A    
Cu2   O12   S    
Cu4   N4    S    
C49   C51   A    
C32   C72   A    
C15   C19   A    
C18   C86   A    
C2    C29   S    
C9    C61   A    
C28   C68   A    
C5    C11   A    
C35   H11   S    
C4    O4    A    
Cu3   O14   S    
C12   C64   A    
C73   H33   S    
C41   O11   A    
C77   C83   A    
C21   H25   S    
C6    C22   A    
C39   O13   A    
C49   C57   A    
C40   O14   A    
C14   H18   S    
C25   C63   A    
C45   C47   A    
C23   C67   A    
C29   C69   A    
C9    C13   A    
C56   H16   S    
C13   H17   S    
C27   C61   A    
C6    C84   A    
Cu3   N3    S    
C11   C15   A    
Cu3   O5    S    
C22   C66   A    
C12   C16   A    
C44   C46   A    
Cu1   O1    S    
C69   I3    S    
C76   C80   A    
Cu4   O15   S    
C58   H10   S    
C30   C86   A    
C60   N2    A    
C29   C85   A    
C1    O1    A    
C63   H23   S    
C31   C71   A    
C33   C59   A    
C34   C60   A    
C10   C62   A    
C20   H40   S    
Cu2   O11   S    
C43   I1    S    
C6    C12   A    
C21   C65   A    
C30   C70   A    
C52   C54   A    
C38   C44   A    
C41   C68   S    
C46   C48   A    
C53   C55   A    
C19   H39   S    
Cu2   Cu4   S    
C54   C56   A    
C24   H28   S    
C31   C87   A    
C40   O10   A    
Cu4   O8    S    
C44   I2    S    
C15   H19   S    
C25   C65   A    
C72   C74   A    
C10   C14   A    
C71   C73   A    
C77   H29   S    
C53   H5    S    
C82   C86   A    
C79   H31   S    
C59   H41   S    
C55   H15   S    
C70   I4    S    
C26   C66   A    
C38   H14   S    
C33   H7    S    
C34   H8    S    
C37   H13   S    
C1    O5    A    
C78   C84   A    
Cu2   N2    S    
C78   H30   S    
C50   C52   A    
C45   C49   A    
C16   C20   A    
Cu1   O2    S    
C4    O8    A    
C47   N3    A    
C50   C58   A    
C43   C45   A    
Cu2   O4    S    
Cu1   N1    S    
C80   C82   A    
C7    C81   A    
C3    O7    A    
C40   C65   S    
C61   H21   S    
C42   C67   S    
C76   H36   S    
C39   C66   S    
C17   C85   A    
C37   C43   A    
C18   H38   S    
Cu1   Cu3   S    
C60   H42   S    
C57   H9    S    
C16   H20   S    
C47   C55   A    
Cu3   O6    S    
C80   H32   S    
C35   C37   A    
Cu1   O9    S    
C22   H26   S    
C41   O15   A    
C42   O16   A    
Cu4   O7    S    
C34   C52   A    
C57   N1    A    
C84   C88   A    
C5    C83   A    
C62   H22   S    
C26   C64   A    
C33   C51   A    
C71   I5    S    
C46   C50   A    
C79   C81   A    
C72   I6    S    
C13   C17   A    
C28   H4    S    
C58   N2    A    
Cu3   O13   S    
C36   C38   A    
C19   C87   A    
C2    O2    A    
C35   N3    A    
C70   C76   A    
C36   H12   S    
C74   H34   S    
C75   C79   A    
C7    C23   A    
Cu2   O3    S    
C20   C88   A    
C59   N1    A    
C1    C30   S    
C8    C24   A    
C69   C75   A    
C75   H35   S    
C3    C32   S    
C42   O12   A    
C4    C31   S    
C27   C67   A    
C24   C68   A    
C7    C9    A    
C8    C82   A    
C5    C21   A    
C8    C10   A    
C74   C78   A    
C39   O9    A    
C73   C77   A    
C54   H6    S    
C23   H27   S    
Cu4   O16   S    
C51   C53   A    
C11   C63   A    
C36   N4    A    
C17   H37   S    
C81   C85   A    
C28   C62   A    
C32   C88   A    
