data_mof_unit_62037.cif
_audit_creation_date              2012-12-10T19:01:17-0500
_audit_creation_method            fapswitch 2.2
_symmetry_space_group_name_H-M    P1
_symmetry_Int_Tables_number       1
_space_group_crystal_system       triclinic
_cell_length_a                    15.784346
_cell_length_b                    14.259263
_cell_length_c                    13.370845
_cell_angle_alpha                 90.001692
_cell_angle_beta                  89.699469
_cell_angle_gamma                 89.980243
_cell_volume                      3009.37650168

loop_
_atom_site_label
_atom_site_type_symbol
_atom_type_description
_atom_site_fract_x
_atom_site_fract_y
_atom_site_fract_z
_atom_type_partial_charge
C1    C     C_R   0.499954 0.326554 0.499999 0.927130
C2    C     C_1   0.499927 0.499960 0.950476 -0.055389
C3    C     C_R   0.335700 0.503106 0.500324 0.932218
C4    C     C_R   0.664280 0.502610 0.499653 0.932153
C5    C     C_R   0.500011 0.673479 0.500000 0.920872
C6    C     C_3   0.047134 0.404851 0.592452 0.717537
C7    C     C_3   0.054830 0.425637 0.394833 0.747960
C8    C     C_3   0.946246 0.418371 0.593277 0.725343
C9    C     C_3   0.953233 0.432617 0.386896 0.712653
C10   C     C_1   0.752384 0.492466 0.498185 -0.238255
C11   C     C_1   0.247916 0.490290 0.501384 -0.260462
C12   C     C_1   0.499965 0.141361 0.499993 -0.012652
C13   C     C_3   0.082455 0.466144 0.501337 -0.066770
C14   C     C_3   0.917928 0.472120 0.492101 -0.087988
C15   C     C_3   0.953739 0.573724 0.499197 -0.469071
C16   C     C_3   0.049506 0.568905 0.511886 -0.495550
C17   C     C_1   0.826954 0.482559 0.494594 0.055319
C18   C     C_1   0.173602 0.477536 0.502974 0.037349
C19   C     C_1   0.499957 0.225919 0.499995 -0.236877
C20   C     C_3   0.871198 0.272471 0.546016 0.090672
C21   C     C_3   0.823297 0.192543 0.596452 -0.901954
C22   C     C_3   0.924335 0.304445 0.271436 0.161948
C23   C     C_1   0.499981 0.042311 0.499993 0.004403
C24   C     C_3   0.938362 0.199075 0.279351 -0.839168
C25   C     C_3   0.057886 0.246260 0.657631 0.149278
C26   C     C_3   0.134321 0.181677 0.668305 -0.922622
C27   C     C_3   0.167028 0.309505 0.381203 0.140585
C28   C     C_3   0.182291 0.217120 0.327151 -0.893722
C29   C     C_3   0.097880 0.454217 0.221632 0.128373
C30   C     C_3   0.171027 0.502830 0.168282 -0.859746
C31   C     C_3   0.161316 0.415187 0.715049 0.121689
C32   C     C_3   0.208816 0.500880 0.753183 -0.835327
C33   C     C_3   0.850775 0.496750 0.269211 0.101755
C34   C     C_1   0.499994 0.957753 0.499994 0.004854
C35   C     C_3   0.814408 0.595664 0.267040 -0.844771
C36   C     C_3   0.906175 0.447878 0.765920 0.261060
C37   C     C_3   0.912980 0.524799 0.844188 -0.886679
C38   C     C_1   0.500006 0.858695 0.499996 -0.009730
C39   C     C_1   0.500011 0.774129 0.499999 -0.227710
C40   C     C_1   0.499971 0.499970 0.169426 0.055874
C41   C     C_1   0.499954 0.499967 0.830574 0.057086
C42   C     C_1   0.499936 0.499961 0.049525 -0.055696
H1    H     H_    0.066502 0.597805 0.586536 0.242999
H2    H     H_    0.975600 0.335346 0.226766 0.131856
H3    H     H_    0.864164 0.314117 0.230267 0.117579
H4    H     H_    0.883413 0.165814 0.317575 0.240948
H5    H     H_    0.945156 0.168376 0.203406 0.200772
H6    H     H_    0.996364 0.183602 0.322634 0.292713
H7    H     H_    0.004333 0.199539 0.640268 0.183670
H8    H     H_    0.043209 0.280384 0.730045 0.140322
H9    H     H_    0.191989 0.221422 0.688537 0.237503
H10   H     H_    0.121708 0.129024 0.727735 0.220162
H11   H     H_    0.146247 0.144295 0.596694 0.271997
H12   H     H_    0.079561 0.615908 0.455290 0.236891
H13   H     H_    0.191150 0.300483 0.458338 0.190784
H14   H     H_    0.205119 0.364437 0.343169 0.161626
H15   H     H_    0.157793 0.220794 0.249578 0.248074
H16   H     H_    0.251275 0.201912 0.324338 0.220635
H17   H     H_    0.149836 0.159231 0.367590 0.264259
H18   H     H_    0.039166 0.474183 0.181818 0.178057
H19   H     H_    0.108232 0.377901 0.213650 0.146451
H20   H     H_    0.231902 0.484579 0.204780 0.257081
H21   H     H_    0.173649 0.480136 0.088854 0.206162
H22   H     H_    0.162212 0.580080 0.170967 0.269423
H23   H     H_    0.925370 0.614628 0.561936 0.239255
H24   H     H_    0.199088 0.379965 0.655999 0.164089
H25   H     H_    0.156074 0.365937 0.779024 0.142114
H26   H     H_    0.176103 0.529717 0.820213 0.248098
H27   H     H_    0.274435 0.480889 0.773889 0.219513
H28   H     H_    0.211445 0.556236 0.694980 0.258780
H29   H     H_    0.806058 0.449618 0.308966 0.165910
H30   H     H_    0.854714 0.472334 0.190460 0.129666
H31   H     H_    0.857279 0.642818 0.224259 0.260490
H32   H     H_    0.751440 0.594808 0.230384 0.218457
H33   H     H_    0.806554 0.623462 0.343963 0.244057
H34   H     H_    0.938667 0.616510 0.432234 0.240260
H35   H     H_    0.949312 0.390052 0.787908 0.148823
H36   H     H_    0.839750 0.421887 0.765302 0.161230
H37   H     H_    0.869430 0.583378 0.825567 0.258879
H38   H     H_    0.895648 0.496484 0.918916 0.197887
H39   H     H_    0.978970 0.551720 0.846747 0.275733
H40   H     H_    0.924616 0.241064 0.503529 0.235413
H41   H     H_    0.823580 0.306841 0.498207 0.207414
H42   H     H_    0.768163 0.220755 0.638816 0.267510
H43   H     H_    0.799887 0.142845 0.538911 0.225654
H44   H     H_    0.864799 0.153873 0.648937 0.248285
N1    N     N_1   0.500000 0.499980 0.261870 -0.065918
N2    N     N_1   0.500000 0.499980 0.738130 -0.065535
O1    O     O_R   0.500000 0.373720 0.576470 -0.594897
O2    O     O_3   0.916037 0.342812 0.368738 -0.704287
O3    O     O_3   0.071233 0.308931 0.576432 -0.658533
O4    O     O_3   0.078679 0.328885 0.382906 -0.626986
O5    O     O_3   0.095214 0.485868 0.322188 -0.619694
O6    O     O_3   0.078784 0.442407 0.685212 -0.629578
O7    O     O_3   0.934100 0.498548 0.308627 -0.644764
O8    O     O_3   0.927399 0.485594 0.670910 -0.608970
O9    O     O_R   0.500000 0.373720 0.423530 -0.596288
O10   O     O_R   0.377150 0.500010 0.576490 -0.610619
O11   O     O_R   0.377150 0.500010 0.423510 -0.604227
O12   O     O_R   0.622850 0.500010 0.576490 -0.598034
O13   O     O_R   0.622850 0.500010 0.423510 -0.612540
O14   O     O_R   0.500000 0.626290 0.576440 -0.596523
O15   O     O_R   0.500000 0.626290 0.423560 -0.595886
O16   O     O_3   0.901649 0.333363 0.620237 -0.692665
Zn1   Zn    Zn3+2 0.500000 0.500010 0.602090 0.962766
Zn2   Zn    Zn3+2 0.500000 0.500010 0.397910 0.959725

loop_
_geom_bond_atom_site_label_1
_geom_bond_atom_site_label_2
_ccdc_geom_bond_type
C31   H24   S    
C5    O15   A    
C35   H32   S    
C20   H40   S    
C8    O8    S    
C11   C18   T    
C28   H15   S    
C31   H25   S    
C37   H37   S    
C12   C23   S    
C35   H33   S    
O12   Zn1   S    
O10   Zn1   S    
C13   C18   S    
C40   N1    T    
C36   C37   S    
C30   H22   S    
C36   H35   S    
C30   H20   S    
C38   C39   T    
C27   H13   S    
C2    C41   S    
C6    O3    S    
C15   H23   S    
O14   Zn1   S    
O11   Zn2   S    
C25   H8    S    
C33   H30   S    
C21   H44   S    
C22   H2    S    
C6    O6    S    
C8    C14   S    
C29   H18   S    
C9    O7    S    
C32   H26   S    
C40   C42   S    
C15   H34   S    
C30   H21   S    
C14   C17   S    
C37   H39   S    
C33   O7    S    
C21   H43   S    
C7    O5    S    
C37   H38   S    
C29   H19   S    
C1    C19   S    
C25   O3    S    
C24   H6    S    
C1    O9    A    
C27   H14   S    
C6    C8    S    
C25   C26   S    
C9    C14   S    
C29   C30   S    
C26   H10   S    
C36   O8    S    
C31   C32   S    
C21   H42   S    
C23   C34   T    
C4    O13   A    
C22   O2    S    
C27   O4    S    
C8    O16   S    
C16   H1    S    
O9    Zn2   S    
C4    O12   A    
C22   C24   S    
C20   H41   S    
C4    C10   S    
C26   H11   S    
C28   H17   S    
O13   Zn2   S    
C7    C9    S    
C41   N2    T    
C5    O14   A    
C35   H31   S    
C1    O1    A    
C34   C38   S    
C24   H5    S    
C9    O2    S    
C32   H28   S    
C32   H27   S    
C20   O16   S    
C28   H16   S    
C31   O6    S    
C24   H4    S    
C16   H12   S    
C5    C39   S    
C36   H36   S    
C26   H9    S    
C6    C13   S    
C29   O5    S    
N2    Zn1   S    
C3    O10   A    
N1    Zn2   S    
C2    C42   T    
C7    O4    S    
C12   C19   T    
C33   C35   S    
O15   Zn2   S    
C25   H7    S    
C3    C11   S    
C33   H29   S    
C3    O11   A    
C7    C13   S    
C22   H3    S    
C20   C21   S    
C13   C16   S    
O1    Zn1   S    
C27   C28   S    
C14   C15   S    
C10   C17   T    
C15   C16   S    
