data_mof_unit_24448.cif
_audit_creation_date              2012-12-10T17:36:18-0500
_audit_creation_method            fapswitch 2.2
_symmetry_space_group_name_H-M    P1
_symmetry_Int_Tables_number       1
_space_group_crystal_system       triclinic
_cell_length_a                    12.429394
_cell_length_b                    13.107474
_cell_length_c                    15.909578
_cell_angle_alpha                 75.658457
_cell_angle_beta                  101.358199
_cell_angle_gamma                 117.124474
_cell_volume                      2224.36445432

loop_
_atom_site_label
_atom_site_type_symbol
_atom_type_description
_atom_site_fract_x
_atom_site_fract_y
_atom_site_fract_z
_atom_type_partial_charge
C1    C     C_R   0.855233 0.286098 0.505951 0.857190
C2    C     C_3   0.973636 0.374038 0.072440 0.235160
C3    C     C_3   0.009155 0.503845 0.084316 0.008115
C4    C     C_3   0.140878 0.591655 0.053728 0.367972
C5    C     C_3   0.144444 0.583210 0.955609 0.286489
C6    C     C_1   0.005593 0.503723 0.176281 0.037743
C7    C     C_1   0.006856 0.502501 0.824805 0.147322
C8    C     C_1   0.003374 0.501825 0.749017 -0.040192
C9    C     C_R   0.281144 0.034404 0.380842 0.112815
C10   C     C_R   0.228490 0.840730 0.470296 -0.133753
C11   C     C_R   0.814382 0.076497 0.546064 -0.211607
C12   C     C_R   0.000877 0.500594 0.659415 0.872677
C13   C     C_R   0.737628 0.958578 0.548233 0.271574
C14   C     C_R   0.613999 0.923188 0.517303 0.143125
C15   C     C_R   0.567571 0.008153 0.485455 0.100190
C16   C     C_R   0.652201 0.126078 0.465193 0.051031
C17   C     C_R   0.441261 0.979947 0.465008 -0.004272
C18   C     C_R   0.405026 0.061810 0.405457 0.080416
C19   C     C_R   0.493483 0.171137 0.372436 -0.134191
C20   C     C_R   0.614579 0.203402 0.402762 -0.155466
C21   C     C_R   0.350087 0.876606 0.505656 0.217007
C22   C     C_R   0.192650 0.922471 0.411471 0.063865
C23   C     C_R   0.145204 0.714987 0.487930 0.854826
C24   C     C_R   0.773381 0.161683 0.504348 -0.146127
C25   C     C_R   0.363823 0.362503 0.660913 0.196887
C26   C     C_R   0.744103 0.629481 0.370664 0.375700
C27   C     C_R   0.641618 0.649525 0.341437 -0.183046
C28   C     C_R   0.546147 0.602382 0.391139 -0.206553
C29   C     C_R   0.551902 0.536382 0.474202 -0.015237
C30   C     C_R   0.658568 0.514783 0.504529 0.151890
C31   C     C_R   0.452348 0.487469 0.526881 -0.108592
C32   C     C_R   0.466387 0.431171 0.613400 -0.058867
C33   C     C_R   0.582221 0.441522 0.647948 0.286008
C34   C     C_R   0.000547 0.501093 0.340581 0.784201
C35   C     C_R   0.663227 0.454787 0.592817 0.221527
C36   C     C_R   0.339901 0.494547 0.498363 0.037052
C37   C     C_R   0.253096 0.367038 0.626323 0.286454
C38   C     C_3   0.966237 0.372606 0.970992 0.376527
C39   C     C_3   0.917512 0.548331 0.928006 -0.069296
C40   C     C_3   0.909855 0.541278 0.026451 -0.148922
C41   C     C_1   0.002306 0.502808 0.251252 -0.135433
C42   C     C_3   0.010697 0.502664 0.917944 -0.062668
Cu1   Cu    Cu3+1 0.098280 0.475420 0.519630 1.002451
Cu2   Cu    Cu3+1 0.901720 0.524580 0.480370 0.993493
H1    H     H_    0.469579 0.234148 0.324587 0.192870
H2    H     H_    0.907449 0.101443 0.574620 0.197465
H3    H     H_    0.678527 0.287976 0.373236 0.172871
H4    H     H_    0.324694 0.545972 0.437210 0.145164
H5    H     H_    0.470194 0.622179 0.363021 0.168633
H6    H     H_    0.635587 0.702256 0.277934 0.189047
H7    H     H_    0.826458 0.487121 0.904242 0.231706
H8    H     H_    0.818967 0.471034 0.042559 0.218361
N1    N     N_R   0.246300 0.438200 0.549400 -0.192999
N2    N     N_R   0.754300 0.561180 0.451130 -0.200747
O1    O     O_R   0.972520 0.318130 0.524690 -0.561923
O2    O     O_R   0.806530 0.359650 0.491530 -0.556746
O3    O     O_R   0.083030 0.479240 0.637150 -0.551061
O4    O     O_R   0.917040 0.520750 0.603990 -0.542667
O5    O     O_R   0.193470 0.640350 0.508470 -0.557962
O6    O     O_R   0.027480 0.681870 0.475310 -0.560337
O7    O     O_R   0.082960 0.479250 0.396010 -0.575922
O8    O     O_R   0.916970 0.520760 0.362850 -0.622600
Br1   Br    Br    0.819335 0.264811 0.125022 -0.467796
Br2   Br    Br    0.054742 0.291215 0.947748 -0.396166
N3    N     N_3   0.063711 0.333010 0.122472 -0.480736
H9    H     H_    0.069644 0.336521 0.188247 0.251970
H10   H     H_    0.031549 0.244262 0.121805 0.279360
N4    N     N_3   0.173044 0.712352 0.061171 -0.489643
H11   H     H_    0.121146 0.749112 0.017363 0.270865
H12   H     H_    0.163397 0.716334 0.123923 0.239985
N5    N     N_3   0.066648 0.893072 0.384649 -0.559941
H13   H     H_    0.042494 0.948754 0.405519 0.251771
H14   H     H_    0.053367 0.905355 0.316620 0.221099
N6    N     N_3   0.246102 0.120049 0.323374 -0.582878
H15   H     H_    0.198737 0.088118 0.266565 0.241431
H16   H     H_    0.189291 0.135179 0.354264 0.233657
Br3   Br    Br    0.379715 0.806693 0.625166 -0.393475
N7    N     N_3   0.540734 0.804781 0.505784 -0.566558
H17   H     H_    0.544580 0.749099 0.564864 0.287388
H18   H     H_    0.579073 0.788340 0.460804 0.235495
Br4   Br    Br    0.805086 0.847704 0.593281 -0.483594
Br5   Br    Br    0.802075 0.273317 0.922145 -0.288333
N8    N     N_3   0.146482 0.298679 0.671515 -0.500073
H19   H     H_    0.124872 0.210521 0.676731 0.236440
H20   H     H_    0.165236 0.318079 0.734200 0.258923
Br6   Br    Br    0.639321 0.450087 0.768495 -0.375607
Br7   Br    Br    0.363606 0.245950 0.763006 -0.323587
N9    N     N_3   0.834940 0.682437 0.310935 -0.596090
H21   H     H_    0.814405 0.627457 0.266707 0.223820
H22   H     H_    0.921213 0.703019 0.342259 0.284338
Br8   Br    Br    0.691536 0.317510 0.633347 -0.375544
N10   N     N_3   0.936512 0.661590 0.871414 -0.484372
H23   H     H_    0.853514 0.667544 0.855881 0.266149
H24   H     H_    0.994861 0.731520 0.902074 0.285223
N11   N     N_3   0.912773 0.647383 0.044455 -0.594798
H25   H     H_    0.894430 0.632757 0.108809 0.237579
H26   H     H_    0.840085 0.661457 0.006743 0.255484
N12   N     N_3   0.228495 0.533521 0.953449 -0.480451
H27   H     H_    0.227662 0.525967 0.889381 0.255121
H28   H     H_    0.317541 0.592915 0.968939 0.293505
Br9   Br    Br    0.211796 0.738302 0.878691 -0.392839
Br10  Br    Br    0.269585 0.560025 0.135350 -0.475763

loop_
_geom_bond_atom_site_label_1
_geom_bond_atom_site_label_2
_ccdc_geom_bond_type
C39   H7    S    
C5    C42   S    
C22   N5    S    
N11   H25   S    
C25   Br7   S    
C33   Br6   S    
C3    C6    S    
C7    C8    T    
C10   C22   A    
C23   O5    A    
C30   N2    A    
C26   C27   A    
N6    H16   S    
C30   C35   A    
C28   C29   A    
C1    O2    A    
C38   C42   S    
N7    H18   S    
C9    C22   A    
C15   C16   A    
C13   Br4   S    
C11   C24   A    
C34   O8    A    
C18   C19   A    
C7    C42   S    
C2    C38   S    
C36   N1    A    
C25   C37   A    
Cu1   N1    S    
C31   C32   A    
Cu2   O4    S    
N4    H11   S    
N3    H10   S    
C6    C41   T    
C4    Br10  S    
C27   H6    S    
C16   C20   A    
C12   O4    A    
C2    N3    S    
C25   C32   A    
C16   C24   A    
C13   C14   A    
C38   Br5   S    
C34   C41   S    
C26   N2    A    
C39   C42   S    
C38   Br2   S    
C10   C21   A    
C23   O6    A    
C5    Br9   S    
N6    H15   S    
C39   C40   S    
C4    N4    S    
N7    H17   S    
Cu2   O8    S    
C40   H8    S    
C34   O7    A    
C17   C21   A    
Cu1   Cu2   S    
C29   C30   A    
C28   H5    S    
Cu2   O2    S    
N8    H19   S    
C8    C12   S    
N10   H24   S    
C17   C18   A    
C5    N12   S    
C12   O3    A    
Cu1   O1    S    
N8    H20   S    
N9    H22   S    
C3    C40   S    
N3    H9    S    
N12   H28   S    
C9    N6    S    
C40   N11   S    
C3    C4    S    
C39   N10   S    
C2    Br1   S    
Cu1   O7    S    
N5    H14   S    
C15   C17   A    
N11   H26   S    
C14   C15   A    
C4    C5    S    
C19   H1    S    
Cu1   O5    S    
C10   C23   S    
C32   C33   A    
C19   C20   A    
C2    C3    S    
C1    O1    A    
C37   N1    A    
N5    H13   S    
C29   C31   A    
C11   C13   A    
Cu2   O6    S    
N10   H23   S    
C33   C35   A    
C36   H4    S    
C14   N7    S    
C20   H3    S    
Cu1   O3    S    
Cu2   N2    S    
C9    C18   A    
N9    H21   S    
C1    C24   S    
C26   N9    S    
N12   H27   S    
C21   Br3   S    
C27   C28   A    
N4    H12   S    
C31   C36   A    
C37   N8    S    
C11   H2    S    
C35   Br8   S    
