data_mof_unit_30249.cif
_audit_creation_date              2012-12-11T17:20:15-0500
_audit_creation_method            fapswitch 2.2
_symmetry_space_group_name_H-M    P1
_symmetry_Int_Tables_number       1
_space_group_crystal_system       triclinic
_cell_length_a                    8.218826
_cell_length_b                    16.624823
_cell_length_c                    22.915124
_cell_angle_alpha                 96.274369
_cell_angle_beta                  89.774564
_cell_angle_gamma                 92.974093
_cell_volume                      3108.09115007

loop_
_atom_site_label
_atom_site_type_symbol
_atom_type_description
_atom_site_fract_x
_atom_site_fract_y
_atom_site_fract_z
_atom_type_partial_charge
Ba1   Ba    Ba6+2 0.848660 0.538140 0.472240 1.677133
Ba2   Ba    Ba6+2 0.341160 0.461930 0.527770 1.721512
C1    C     C_3   0.580510 0.833627 0.320824 -0.236998
C2    C     C_R   0.095602 0.569820 0.939463 -0.033869
C3    C     C_R   0.047412 0.563737 0.878911 0.627596
C4    C     C_3   0.087772 0.703999 0.312083 0.311004
C5    C     C_R   0.973133 0.422342 0.879565 0.573777
C6    C     C_R   0.015404 0.426056 0.939430 -0.013748
C7    C     C_R   0.077021 0.499661 0.969606 -0.060403
C8    C     C_R   0.161118 0.643061 0.971412 0.013110
C9    C     C_R   0.203243 0.644157 0.031049 -0.049179
C10   C     C_R   0.183360 0.574885 0.060948 -0.032770
C11   C     C_R   0.120229 0.502489 0.030230 -0.049854
C12   C     C_3   0.591495 0.750083 0.342356 0.377747
C13   C     C_R   0.997536 0.356745 0.969685 -0.050050
C14   C     C_R   0.039471 0.359931 0.028826 -0.070869
C15   C     C_R   0.101175 0.432504 0.059959 -0.027680
C16   C     C_3   0.060416 0.722516 0.249526 -0.313690
C17   C     C_R   0.145342 0.436132 0.120008 0.593732
C18   C     C_R   0.226155 0.576918 0.121073 0.575696
C19   C     C_2   0.799485 0.445169 0.768243 -0.014487
C20   C     C_3   0.774578 0.419960 0.703517 -0.089455
C21   C     C_1   0.001816 0.515542 0.685252 0.028818
C22   C     C_2   0.048806 0.520235 0.741509 -0.085974
C23   C     C_3   0.507025 0.342659 0.350386 0.312453
C24   C     C_2   0.940710 0.485193 0.787215 0.210217
C25   C     C_R   0.404226 0.546172 0.232417 -0.099107
C26   C     C_R   0.446744 0.552015 0.291946 -0.015859
C27   C     C_R   0.191454 0.483239 0.314525 0.026097
C28   C     C_3   0.146112 0.710884 0.591680 0.362423
C29   C     C_R   0.145514 0.478667 0.254709 -0.102433
C30   C     C_R   0.251019 0.511256 0.212738 0.201812
C31   C     C_2   0.868847 0.473459 0.664945 -0.143049
C32   C     C_R   0.387011 0.736560 0.476625 -0.282325
C33   C     C_R   0.525031 0.763069 0.509581 0.009532
C34   C     C_3   0.501704 0.321712 0.283738 -0.237268
C35   C     C_R   0.573602 0.846389 0.517250 -0.069774
C36   C     C_R   0.484261 0.902712 0.488802 0.253279
C37   C     C_R   0.336878 0.874056 0.459989 -0.137731
C38   C     C_R   0.286452 0.791281 0.455460 -0.021848
C39   C     C_R   0.626356 0.148201 0.486431 -0.181592
C40   C     C_3   0.095746 0.798053 0.602428 -0.249724
C41   C     C_R   0.673006 0.230373 0.493101 0.009301
C42   C     C_R   0.723942 0.091608 0.509046 0.194490
C43   C     C_R   0.812126 0.258023 0.524954 -0.373213
C44   C     C_R   0.917593 0.203965 0.545238 -0.065381
C45   C     C_3   0.103692 0.290948 0.688350 0.342084
C46   C     C_R   0.875900 0.119192 0.536942 0.352107
C47   C     C_3   0.007149 0.289884 0.403240 0.295346
C48   C     C_3   0.996191 0.198529 0.386985 -0.362955
C49   C     C_3   0.544912 0.714069 0.659577 0.566063
C50   C     C_3   0.524306 0.806523 0.669119 0.295379
C51   C     C_3   0.736738 0.886522 0.332713 -0.361004
C52   C     C_3   0.672420 0.316354 0.257505 -0.351569
C53   C     C_3   0.189994 0.721209 0.943952 -0.238337
C54   C     C_3   0.711615 0.875442 0.558169 -0.213068
C55   C     C_3   0.138971 0.272184 0.750504 -0.230962
C56   C     C_3   0.561123 0.243115 0.653806 0.272929
C57   C     C_3   0.531144 0.157584 0.671434 0.285944
C58   C     C_R   0.339619 0.521954 0.332466 -0.302144
H1    H     H_    0.653111 0.756469 0.385862 0.064535
H2    H     H_    0.433077 0.680768 0.643390 0.013797
H3    H     H_    0.474327 0.825329 0.628405 -0.233089
H4    H     H_    0.645300 0.838266 0.677914 0.061766
H5    H     H_    0.464687 0.725757 0.347898 -0.084774
H6    H     H_    0.478901 0.865122 0.344000 0.079993
H7    H     H_    0.381598 0.354435 0.365753 0.005604
H8    H     H_    0.586653 0.398425 0.361068 0.049695
H9    H     H_    0.431726 0.263009 0.272775 0.141425
H10   H     H_    0.437786 0.369022 0.263582 0.074025
H11   H     H_    0.552392 0.826724 0.273073 0.140617
H12   H     H_    0.983975 0.801117 0.629610 0.141152
H13   H     H_    0.054658 0.665116 0.219920 0.119440
H14   H     H_    0.173199 0.348249 0.681439 0.050253
H15   H     H_    0.971208 0.298654 0.684209 -0.064566
H16   H     H_    0.256930 0.243286 0.752791 0.169447
H17   H     H_    0.146028 0.329339 0.780388 0.089351
H18   H     H_    0.041721 0.230749 0.765748 0.186352
H19   H     H_    0.694751 0.255497 0.649356 -0.068903
H20   H     H_    0.503253 0.244843 0.610342 0.052501
H21   H     H_    0.554761 0.112751 0.633116 -0.016343
H22   H     H_    0.402533 0.147756 0.684931 0.105641
H23   H     H_    0.192771 0.837220 0.625551 0.161867
H24   H     H_    0.998886 0.654780 0.321038 0.116152
H25   H     H_    0.023335 0.305015 0.050120 0.133440
H26   H     H_    0.950570 0.299314 0.947637 0.151035
H27   H     H_    0.252492 0.700217 0.054516 0.125690
H28   H     H_    0.490575 0.568766 0.201552 0.115639
H29   H     H_    0.167584 0.547826 0.754443 0.156777
H30   H     H_    0.714061 0.421290 0.799060 0.113623
H31   H     H_    0.028829 0.449782 0.241029 0.119450
H32   H     H_    0.374897 0.525773 0.378162 0.080144
H33   H     H_    0.212765 0.683008 0.315719 -0.034241
H34   H     H_    0.073409 0.822236 0.560200 0.089424
H35   H     H_    0.841396 0.465208 0.618334 0.063577
H36   H     H_    0.517203 0.128227 0.461520 0.131882
H37   H     H_    0.262055 0.916137 0.440990 0.140110
H38   H     H_    0.350717 0.672654 0.471179 0.068742
H39   H     H_    0.844986 0.322296 0.529932 0.082160
H40   H     H_    0.943134 0.751600 0.245770 0.140797
H41   H     H_    0.161244 0.763397 0.235832 0.134694
H42   H     H_    0.272917 0.710670 0.576797 -0.149519
H43   H     H_    0.071115 0.679791 0.555622 0.089976
H44   H     H_    0.837859 0.732752 0.738635 0.353520
H45   H     H_    0.886463 0.310594 0.417219 0.007320
H46   H     H_    0.839608 0.859355 0.307746 0.173020
H47   H     H_    0.720194 0.947374 0.318596 0.121667
H48   H     H_    0.766180 0.893951 0.380354 0.163510
H49   H     H_    0.404656 0.955565 0.687593 0.324828
H50   H     H_    0.740705 0.375904 0.265443 0.141382
H51   H     H_    0.740461 0.269857 0.277062 0.157701
H52   H     H_    0.663150 0.299310 0.209376 0.132953
H53   H     H_    0.735870 0.260229 0.769356 0.334389
H54   H     H_    0.245125 0.770640 0.975383 0.094477
H55   H     H_    0.275518 0.712121 0.906453 0.194286
H56   H     H_    0.095464 0.304576 0.439743 0.069609
H57   H     H_    0.072624 0.742283 0.929126 0.176594
H58   H     H_    0.751926 0.830724 0.585759 0.067891
H59   H     H_    0.818365 0.890854 0.531980 0.220735
H60   H     H_    0.673166 0.927197 0.588949 0.154818
H61   H     H_    0.253328 0.031549 0.588764 0.350430
H62   H     H_    0.901901 0.182041 0.352558 0.123300
H63   H     H_    0.963651 0.166946 0.425746 0.058178
H64   H     H_    0.115659 0.177796 0.370201 0.130984
N1    N     N_R   0.988264 0.490632 0.849533 -0.429864
N2    N     N_R   0.205236 0.508205 0.150607 -0.422785
N3    N     N_2   0.528901 0.988295 0.492386 -0.223164
N4    N     N_2   0.677351 0.006773 0.501523 -0.193981
O1    O     O_2   0.899090 0.455560 0.360740 -0.466644
O2    O     O_2   0.256088 0.216316 0.540265 -0.429390
O3    O     O_3   0.152143 0.227135 0.647929 -0.534351
O4    O     O_3   0.139470 0.456390 0.431790 -0.494546
O5    O     O_3   0.555510 0.597400 0.529070 -0.461739
O6    O     O_2   0.384010 0.302440 0.472310 -0.462397
O7    O     O_3   0.565013 0.277165 0.376573 -0.643700
O8    O     O_2   0.435793 0.455545 0.710260 -0.435951
O9    O     O_3   0.491137 0.300085 0.695354 -0.615913
O10   O     O_2   0.055104 0.623706 0.852566 -0.543362
O11   O     O_2   0.923445 0.357446 0.854018 -0.606728
O12   O     O_3   0.675811 0.696227 0.621051 -0.655682
O13   O     O_2   0.133150 0.374517 0.144644 -0.596579
O14   O     O_2   0.281702 0.640388 0.147084 -0.615392
O15   O     O_3   0.652060 0.602710 0.395680 -0.485128
O16   O     O_2   0.786432 0.551314 0.292775 -0.513208
O17   O     O_3   0.057144 0.326221 0.353639 -0.634069
O18   O     O_3   0.677174 0.698437 0.301621 -0.602371
O19   O     O_2   0.805680 0.697590 0.527730 -0.465018
O20   O     O_3   0.061950 0.644310 0.424380 -0.503084
O21   O     O_2   0.944252 0.788757 0.456276 -0.476556
O22   O     O_2   0.447493 0.669691 0.765588 -0.209035
O23   O     O_3   0.065082 0.773689 0.351024 -0.604207
O24   O     O_2   0.659933 0.594109 0.714292 -0.335697
O25   O     O_3   0.739204 0.738174 0.763465 -0.433977
O26   O     O_2   0.247477 0.785220 0.732896 -0.221813
O27   O     O_2   0.483855 0.854230 0.784914 -0.148495
O28   O     O_3   0.324042 0.933261 0.714622 -0.434504
O29   O     O_2   0.605132 0.063277 0.754590 -0.181896
O30   O     O_2   0.832798 0.129884 0.706602 -0.263777
O31   O     O_3   0.663168 0.217215 0.783601 -0.453593
O32   O     O_2   0.931184 0.007178 0.608671 -0.270607
O33   O     O_2   0.028324 0.983219 0.507075 -0.354371
O34   O     O_2   0.290610 0.544470 0.639300 -0.447155
O35   O     O_3   0.196536 0.080328 0.580739 -0.475507
O36   O     O_3   0.050220 0.543670 0.568220 -0.509340
O37   O     O_3   0.537630 0.397360 0.604330 -0.473389
O38   O     O_3   0.131268 0.674490 0.644186 -0.585474
O39   O     O_3   0.634180 0.402670 0.470930 -0.477202
O40   O     O_3   0.127750 0.355750 0.575620 -0.524602
P1    P     P_3+3 0.070660 0.431690 0.369620 0.981339
P2    P     P_3+3 0.630590 0.685720 0.544880 0.985885
P3    P     P_3+3 0.089465 0.749946 0.422951 0.951996
P4    P     P_3+3 0.119040 0.568370 0.630390 1.053814
P5    P     P_3+3 0.112089 0.250400 0.576801 1.052410
P6    P     P_3+3 0.642203 0.599078 0.319326 0.944154
P7    P     P_3+3 0.566876 0.301354 0.452857 0.954826
P8    P     P_3+3 0.558373 0.396939 0.679796 1.026212
S1    S     S_3+6 0.595339 0.676561 0.727354 0.014139
S2    S     S_3+6 0.391819 0.843142 0.727840 0.046289
S3    S     S_3+6 0.663019 0.139727 0.729869 -0.012768
S4    S     S_3+6 0.008889 0.045932 0.558635 -0.064199

loop_
_geom_bond_atom_site_label_1
_geom_bond_atom_site_label_2
_ccdc_geom_bond_type
C19   C24   D    
O8    P8    D    
O38   P4    S    
C54   H60   S    
C48   H62   S    
C57   H22   S    
O30   S3    D    
Ba1   O4    S    
C22   H29   S    
Ba2   O34   S    
C36   N3    S    
C5    C6    A    
C43   C44   A    
O37   P8    S    
C49   H2    S    
Ba2   O6    S    
C32   C38   A    
C55   H16   S    
O1    P1    D    
C33   C35   A    
C22   C24   S    
C32   C33   A    
Ba1   O1    S    
C36   C37   A    
C37   H37   S    
C39   H36   S    
Ba1   O39   S    
C13   C14   A    
H61   O35   S    
Ba1   P2    S    
O20   P3    S    
O23   P3    S    
C52   H50   S    
Ba1   Ba2   S    
O29   S3    D    
C30   N2    S    
O24   S1    D    
H49   O28   S    
C7    C11   A    
O32   S4    D    
C15   C17   A    
C35   C54   S    
C41   P7    S    
C51   H46   S    
C21   P4    S    
Ba1   O36   S    
C9    H27   S    
C6    C7    A    
C21   C31   D    
C23   H7    S    
C28   H43   S    
Ba2   O4    S    
C21   C22   D    
H44   O25   S    
O19   P2    D    
C56   H20   S    
C49   O12   S    
C58   H32   S    
C17   O13   D    
O21   P3    D    
C19   C20   S    
C39   C41   A    
C10   C18   A    
C23   H8    S    
C16   H40   S    
Ba1   O5    S    
C31   H35   S    
C34   H10   S    
O17   P1    S    
C19   H30   S    
C26   C58   A    
O2    P5    D    
O40   P5    S    
C4    C16   S    
O25   S1    S    
Ba2   O5    S    
C4    H24   S    
O6    P7    D    
C40   H23   S    
C47   O17   S    
C49   C50   S    
C55   H17   S    
C3    O10   D    
C48   H64   S    
C28   O38   S    
O9    P8    S    
C50   H4    S    
Ba2   O36   S    
C37   C38   A    
C14   C15   A    
C47   H45   S    
Ba1   P1    S    
C56   C57   S    
C12   H1    S    
O3    P5    S    
H53   O31   S    
C45   O3    S    
C24   N1    S    
O7    P7    S    
C1    H11   S    
O5    P2    S    
C18   N2    Am   
C35   C36   A    
Ba1   O15   S    
C18   O14   D    
C45   C55   S    
C51   H47   S    
C29   C30   A    
C27   C58   A    
C4    H33   S    
C28   H42   S    
C40   H12   S    
C44   P5    S    
C52   H52   S    
C5    N1    Am   
O33   S4    D    
C8    C53   S    
C41   C43   A    
Ba2   O37   S    
C1    C12   S    
C56   H19   S    
O22   S1    D    
C4    O23   S    
C56   O9    S    
O36   P4    S    
C16   H13   S    
C29   H31   S    
C13   H26   S    
C43   H39   S    
C14   H25   S    
C39   C42   A    
C54   H59   S    
Ba1   O19   S    
C1    H6    S    
O4    P1    S    
O16   P6    D    
N3    N4    D    
Ba2   O40   S    
C46   S4    S    
C34   H9    S    
O39   P7    S    
C53   H57   S    
C20   C31   S    
C42   N4    S    
O12   P2    S    
O28   S2    S    
C25   C30   A    
C40   H34   S    
C54   H58   S    
C55   H18   S    
C48   H63   S    
C57   H21   S    
C45   H14   S    
O31   S3    S    
C2    C3    A    
C50   H3    S    
C20   P8    S    
C9    C10   A    
O27   S2    D    
C53   H54   S    
C6    C13   A    
C12   O18   S    
C17   N2    Am   
C11   C15   A    
C27   P1    S    
O26   S2    D    
C45   H15   S    
C27   C29   A    
C5    O11   D    
C1    C51   S    
C51   H48   S    
C26   P6    S    
C53   H55   S    
O18   P6    S    
C57   S3    S    
C32   H38   S    
C12   H5    S    
C52   H51   S    
C25   H28   S    
C23   O7    S    
C50   S2    S    
C34   C52   S    
C8    C9    A    
C23   C34   S    
C44   C46   A    
C47   H56   S    
O34   P4    D    
C10   C11   A    
C47   C48   S    
C3    N1    Am   
C25   C26   A    
C33   P2    S    
C28   C40   S    
Ba1   O20   S    
O15   P6    S    
O35   S4    S    
C2    C7    A    
C49   S1    S    
C2    C8    A    
Ba2   O39   S    
C16   H41   S    
C38   P3    S    
C42   C46   A    
Ba2   P4    S    
