data_mof_unit_32805.cif
_audit_creation_date              2012-12-11T15:41:11-0500
_audit_creation_method            fapswitch 2.2
_symmetry_space_group_name_H-M    P1
_symmetry_Int_Tables_number       1
_space_group_crystal_system       triclinic
_cell_length_a                    19.024853
_cell_length_b                    10.958473
_cell_length_c                    18.87492
_cell_angle_alpha                 90.238022
_cell_angle_beta                  89.874485
_cell_angle_gamma                 90.182155
_cell_volume                      3935.04315355

loop_
_atom_site_label
_atom_site_type_symbol
_atom_type_description
_atom_site_fract_x
_atom_site_fract_y
_atom_site_fract_z
_atom_type_partial_charge
C1    C     C_R   0.725636 0.958989 0.854907 0.563911
C2    C     C_R   0.274996 0.959843 0.144729 0.562176
C3    C     C_R   0.225634 0.458994 0.854909 0.563923
C4    C     C_R   0.774995 0.459839 0.144730 0.562176
C5    C     C_R   0.695888 0.432409 0.040246 -0.069204
C6    C     C_R   0.304049 0.451645 0.961663 0.001916
C7    C     C_R   0.195891 0.932460 0.040238 -0.069285
C8    C     C_R   0.804049 0.951677 0.961666 0.001864
C9    C     C_R   0.688425 0.421970 0.967244 -0.059541
C10   C     C_R   0.309800 0.441544 0.034902 0.050888
C11   C     C_R   0.188431 0.922027 0.967235 -0.059515
C12   C     C_R   0.809794 0.941582 0.034906 0.050963
C13   C     C_R   0.814543 0.408530 0.954096 0.358295
C14   C     C_R   0.187821 0.381133 0.041490 0.377618
C15   C     C_R   0.314548 0.908519 0.954096 0.358348
C16   C     C_R   0.687831 0.881075 0.041478 0.377704
C17   C     C_R   0.821518 0.412892 0.027116 -0.038107
C18   C     C_R   0.184199 0.381727 0.968438 -0.035870
C19   C     C_R   0.321519 0.912875 0.027117 -0.038006
C20   C     C_R   0.684221 0.881642 0.968425 -0.035804
C21   C     C_3   0.640061 0.527015 0.046561 0.371999
C22   C     C_3   0.347821 0.564801 0.959320 0.385848
C23   C     C_3   0.140088 0.027114 0.046547 0.372040
C24   C     C_3   0.847794 0.064863 0.959328 0.385863
C25   C     C_3   0.631945 0.516478 0.966924 0.781658
C26   C     C_3   0.354588 0.553499 0.039059 0.743961
C27   C     C_3   0.131979 0.016589 0.966909 0.781674
C28   C     C_3   0.854553 0.053569 0.039068 0.743984
C29   C     C_R   0.747567 0.413857 0.923094 0.004469
C30   C     C_R   0.251179 0.410812 0.076212 0.007373
C31   C     C_R   0.247574 0.913873 0.923090 0.004522
C32   C     C_R   0.751176 0.910806 0.076209 0.007441
C33   C     C_R   0.502399 0.173763 0.423517 0.063084
C34   C     C_R   0.514978 0.165749 0.570027 -0.006475
C35   C     C_R   0.002398 0.673763 0.423517 0.063082
C36   C     C_R   0.014978 0.665748 0.570027 -0.006477
C37   C     C_R   0.492975 0.278020 0.465245 -0.017780
C38   C     C_R   0.500314 0.274384 0.536710 0.004170
C39   C     C_R   0.992974 0.778020 0.465246 -0.017779
C40   C     C_R   0.000313 0.774384 0.536710 0.004171
C41   C     C_R   0.532923 0.062266 0.528948 -0.118566
C42   C     C_R   0.526729 0.066346 0.455078 -0.113299
C43   C     C_R   0.032923 0.562266 0.528948 -0.118565
C44   C     C_R   0.026729 0.566346 0.455078 -0.113298
C45   C     C_R   0.528096 0.178310 0.849324 0.577764
C46   C     C_R   0.434051 0.181873 0.144252 0.600440
C47   C     C_R   0.028099 0.678312 0.849327 0.577707
C48   C     C_R   0.934054 0.681871 0.144250 0.600388
C49   C     C_3   0.428942 0.356369 0.472635 0.289513
C50   C     C_3   0.440558 0.357612 0.551368 0.296115
C51   C     C_3   0.928941 0.856367 0.472635 0.289514
C52   C     C_3   0.940556 0.857610 0.551368 0.296113
C53   C     C_R   0.750702 0.396990 0.419106 0.074570
C54   C     C_R   0.236814 0.441799 0.569855 -0.021854
C55   C     C_R   0.250702 0.896991 0.419106 0.074567
C56   C     C_R   0.736815 0.941798 0.569855 -0.021852
C57   C     C_R   0.804093 0.343143 0.459041 -0.023169
C58   C     C_R   0.186881 0.372650 0.534143 -0.003472
C59   C     C_R   0.304094 0.843146 0.459042 -0.023168
C60   C     C_R   0.686881 0.872650 0.534143 -0.003469
C61   C     C_R   0.794653 0.312622 0.528887 -0.022643
C62   C     C_R   0.190869 0.357452 0.462184 -0.018917
C63   C     C_R   0.294653 0.812625 0.528888 -0.022640
C64   C     C_R   0.690869 0.857452 0.462184 -0.018917
C65   C     C_R   0.674253 0.378642 0.522310 -0.135904
C66   C     C_R   0.285426 0.503690 0.455522 -0.124525
C67   C     C_R   0.174253 0.878641 0.522310 -0.135904
C68   C     C_R   0.785426 0.003690 0.455522 -0.124524
C69   C     C_R   0.683632 0.407793 0.450069 -0.109944
C70   C     C_R   0.283494 0.514345 0.529806 -0.132617
C71   C     C_R   0.183632 0.907792 0.450069 -0.109950
C72   C     C_R   0.783494 0.014345 0.529807 -0.132617
C73   C     C_3   0.876917 0.389556 0.472710 0.285269
C74   C     C_3   0.166466 0.243548 0.547542 0.300964
C75   C     C_3   0.376917 0.889561 0.472711 0.285272
C76   C     C_3   0.666465 0.743549 0.547542 0.300962
C77   C     C_3   0.867196 0.352700 0.548907 0.306095
C78   C     C_3   0.174424 0.223985 0.468868 0.288544
C79   C     C_3   0.367196 0.852706 0.548907 0.306094
C80   C     C_3   0.674423 0.723986 0.468868 0.288542
C81   C     C_R   0.731496 0.337130 0.563226 -0.024785
C82   C     C_R   0.242732 0.416248 0.421891 0.065678
C83   C     C_R   0.231496 0.837132 0.563226 -0.024785
C84   C     C_R   0.742732 0.916248 0.421891 0.065680
C85   C     C_R   0.738280 0.365246 0.852186 0.585967
C86   C     C_R   0.261582 0.364791 0.147597 0.585807
C87   C     C_R   0.238282 0.865249 0.852185 0.585953
C88   C     C_R   0.761581 0.864792 0.147596 0.585814
C89   C     C_R   0.725693 0.961511 0.645026 0.526157
C90   C     C_R   0.271506 0.952937 0.351763 0.635052
C91   C     C_R   0.225692 0.461512 0.645025 0.526168
C92   C     C_R   0.771505 0.452937 0.351763 0.635062
C93   C     C_R   0.532698 0.175389 0.643338 0.518560
C94   C     C_R   0.471386 0.176775 0.354173 0.623866
C95   C     C_R   0.032698 0.675389 0.643338 0.518561
C96   C     C_R   0.971386 0.676775 0.354173 0.623844
C97   C     C_R   0.726003 0.312401 0.639128 0.521579
C98   C     C_R   0.259381 0.364528 0.352643 0.626999
C99   C     C_R   0.226004 0.812402 0.639128 0.521583
C100  C     C_R   0.759381 0.864528 0.352643 0.627008
C101  C     C_2   0.491044 0.176386 0.916893 0.403872
C102  C     C_2   0.439554 0.169949 0.067735 0.385949
C103  C     C_2   0.991063 0.676400 0.916905 0.403694
C104  C     C_2   0.939549 0.669952 0.067731 0.385864
C105  C     C_2   0.489130 0.098901 0.038008 0.421563
C106  C     C_2   0.495794 0.081252 0.961125 0.416617
C107  C     C_2   0.989061 0.598774 0.037989 0.421307
C108  C     C_2   0.995727 0.581196 0.961099 0.416583
C109  C     C_R   0.762383 0.428545 0.071165 -0.030892
C110  C     C_R   0.240919 0.423172 0.927312 -0.082939
C111  C     C_R   0.262384 0.928551 0.071163 -0.030924
C112  C     C_R   0.740931 0.923149 0.927306 -0.082989
Cr1   Cr    Cr6+3 0.769260 0.163750 0.750730 1.156521
Cr2   Cr    Cr6+3 0.230740 0.163750 0.249270 1.118531
Cr3   Cr    Cr6+3 0.269260 0.663750 0.750730 1.156495
Cr4   Cr    Cr6+3 0.730740 0.663750 0.249270 1.118508
Cr5   Cr    Cr6+3 0.612640 0.009910 0.748780 1.159578
Cr6   Cr    Cr6+3 0.387360 0.009910 0.251220 1.124800
Cr7   Cr    Cr6+3 0.112640 0.509910 0.748780 1.159594
Cr8   Cr    Cr6+3 0.887360 0.509910 0.251220 1.124841
Cr9   Cr    Cr6+3 0.614190 0.322400 0.747710 1.177811
Cr10  Cr    Cr6+3 0.385810 0.322400 0.252290 1.138373
Cr11  Cr    Cr6+3 0.114190 0.822400 0.747710 1.177808
Cr12  Cr    Cr6+3 0.885810 0.822400 0.252290 1.138373
O1    O     O_R   0.784290 0.290360 0.830540 -0.447659
O2    O     O_R   0.215710 0.290360 0.169460 -0.458349
O3    O     O_R   0.284290 0.790360 0.830540 -0.447688
O4    O     O_R   0.715710 0.790360 0.169460 -0.458362
O5    O     O_R   0.554690 0.080440 0.673480 -0.503167
O6    O     O_R   0.445310 0.080440 0.326520 -0.461023
O7    O     O_R   0.054690 0.580440 0.673480 -0.503156
O8    O     O_R   0.945310 0.580440 0.326520 -0.461023
O9    O     O_R   0.543980 0.282110 0.666770 -0.478284
O10   O     O_R   0.456020 0.282110 0.333230 -0.513331
O11   O     O_R   0.043980 0.782110 0.666770 -0.478285
O12   O     O_R   0.956020 0.782110 0.333230 -0.513339
O13   O     O_R   0.679070 0.374030 0.674430 -0.481430
O14   O     O_R   0.320930 0.374030 0.325570 -0.471322
O15   O     O_R   0.179070 0.874030 0.674430 -0.481422
O16   O     O_R   0.820930 0.874030 0.325570 -0.471318
O17   O     O_3   0.665360 0.165350 0.749070 -0.348615
O18   O     O_3   0.334640 0.165350 0.250930 -0.315786
O19   O     O_3   0.165360 0.665350 0.749070 -0.348623
O20   O     O_3   0.834640 0.665350 0.250930 -0.315793
O21   O     O_R   0.762610 0.041070 0.825230 -0.491107
O22   O     O_R   0.237390 0.041070 0.174770 -0.512782
O23   O     O_R   0.262610 0.541070 0.825230 -0.491119
O24   O     O_R   0.737390 0.541070 0.174770 -0.512810
O25   O     O_R   0.667390 0.924160 0.829970 -0.460757
O26   O     O_R   0.332610 0.924160 0.170030 -0.493449
O27   O     O_R   0.167390 0.424160 0.829970 -0.460758
O28   O     O_R   0.832610 0.424160 0.170030 -0.493402
O29   O     O_R   0.553980 0.081420 0.821780 -0.472274
O30   O     O_R   0.446020 0.081420 0.178220 -0.483181
O31   O     O_R   0.053980 0.581420 0.821780 -0.472296
O32   O     O_R   0.946020 0.581420 0.178220 -0.483140
O33   O     O_R   0.543210 0.283170 0.826740 -0.412804
O34   O     O_R   0.456790 0.283170 0.173260 -0.426441
O35   O     O_R   0.043210 0.783170 0.826740 -0.412808
O36   O     O_R   0.956790 0.783170 0.173260 -0.426465
O37   O     O_R   0.678350 0.375000 0.822720 -0.468013
O38   O     O_R   0.321650 0.375000 0.177280 -0.496864
O39   O     O_R   0.178350 0.875000 0.822720 -0.468012
O40   O     O_R   0.821650 0.875000 0.177280 -0.496834
O41   O     O_R   0.785060 0.289300 0.670580 -0.469218
O42   O     O_R   0.214940 0.289300 0.329420 -0.500326
O43   O     O_R   0.285060 0.789300 0.670580 -0.469218
O44   O     O_R   0.714940 0.789300 0.329420 -0.500325
O45   O     O_R   0.763330 0.040090 0.676940 -0.498047
O46   O     O_R   0.236670 0.040090 0.323060 -0.454498
O47   O     O_R   0.263330 0.540090 0.676940 -0.498041
O48   O     O_R   0.736670 0.540090 0.323060 -0.454495
O49   O     O_R   0.668160 0.923110 0.670000 -0.468795
O50   O     O_R   0.331840 0.923110 0.330000 -0.508372
O51   O     O_R   0.168160 0.423110 0.670000 -0.468784
O52   O     O_R   0.831840 0.423110 0.330000 -0.508364
F1    F     F_    0.537837 0.042960 0.079236 -0.551081
F2    F     F_    0.522660 0.973212 0.938364 -0.563394
F3    F     F_    0.037706 0.542640 0.079205 -0.550977
F4    F     F_    0.022500 0.473105 0.938299 -0.563155
F5    F     F_    0.869267 0.790142 0.455721 -0.579120
F6    F     F_    0.963575 0.970089 0.575782 -0.572176
F7    F     F_    0.369268 0.290143 0.455721 -0.579119
F8    F     F_    0.463577 0.470090 0.575782 -0.572179
H1    H     H_    0.433972 0.446444 0.446275 0.139652
H2    H     H_    0.397531 0.316381 0.583419 0.155971
H3    H     H_    0.933970 0.946442 0.446275 0.139653
H4    H     H_    0.897530 0.816378 0.583419 0.155967
H5    H     H_    0.623922 0.395497 0.547021 0.184555
H6    H     H_    0.324580 0.553992 0.425787 0.121919
H7    H     H_    0.123922 0.895495 0.547020 0.184554
H8    H     H_    0.824580 0.053992 0.425787 0.121922
H9    H     H_    0.640598 0.447261 0.420636 0.130911
H10   H     H_    0.319943 0.575229 0.555962 0.222699
H11   H     H_    0.140598 0.947259 0.420636 0.130908
H12   H     H_    0.819943 0.075228 0.555962 0.222704
F9    F     F_    0.880041 0.515109 0.465913 -0.586978
F10   F     F_    0.097206 0.234243 0.569544 -0.582850
F11   F     F_    0.380040 0.015114 0.465913 -0.586975
F12   F     F_    0.597206 0.734243 0.569544 -0.582853
H13   H     H_    0.918567 0.338993 0.443575 0.143059
H14   H     H_    0.204295 0.192325 0.580940 0.168522
H15   H     H_    0.418568 0.839000 0.443577 0.143057
H16   H     H_    0.704295 0.692325 0.580939 0.168518
F13   F     F_    0.909297 0.254964 0.567041 -0.577689
F14   F     F_    0.233110 0.154362 0.454237 -0.584425
F15   F     F_    0.409299 0.754973 0.567043 -0.577691
F16   F     F_    0.733109 0.654362 0.454237 -0.584428
H17   H     H_    0.868892 0.429708 0.587471 0.176102
H18   H     H_    0.125761 0.194796 0.440968 0.138096
H19   H     H_    0.368891 0.929715 0.587471 0.176100
H20   H     H_    0.625761 0.694797 0.440968 0.138095
F17   F     F_    0.384892 0.212514 0.028948 -0.655098
F18   F     F_    0.468562 0.286940 0.940908 -0.498319
F19   F     F_    0.884930 0.712708 0.028949 -0.654992
F20   F     F_    0.968680 0.786993 0.940965 -0.498260
F21   F     F_    0.873380 0.396523 0.913806 -0.548578
F22   F     F_    0.128934 0.349218 0.077914 -0.513327
F23   F     F_    0.373387 0.896495 0.913810 -0.548689
F24   F     F_    0.628940 0.849146 0.077894 -0.513397
H21   H     H_    0.874189 0.410561 0.048737 0.207117
H22   H     H_    0.134306 0.357962 0.944734 0.285403
H23   H     H_    0.374189 0.910526 0.048740 0.207103
H24   H     H_    0.634341 0.857822 0.944714 0.285466
H25   H     H_    0.159627 0.117065 0.065376 0.158972
H26   H     H_    0.818647 0.146768 0.941636 0.107867
H27   H     H_    0.659576 0.616983 0.065386 0.158983
H28   H     H_    0.318692 0.646728 0.941632 0.107884
F25   F     F_    0.582236 0.483364 0.083322 -0.501018
F26   F     F_    0.410631 0.545386 0.923952 -0.441126
F27   F     F_    0.082247 0.983509 0.083301 -0.500961
F28   F     F_    0.910613 0.045493 0.923967 -0.441112
F29   F     F_    0.567634 0.470138 0.945754 -0.418216
F30   F     F_    0.422150 0.528564 0.061786 -0.426523
F31   F     F_    0.067656 0.970310 0.945730 -0.418104
F32   F     F_    0.922119 0.028683 0.061803 -0.426472
F33   F     F_    0.651196 0.620857 0.930710 -0.620232
F34   F     F_    0.323031 0.647668 0.076295 -0.651481
F35   F     F_    0.151267 0.120954 0.930700 -0.620221
F36   F     F_    0.822969 0.147714 0.076300 -0.651462
H29   H     H_    0.550098 0.978655 0.553691 0.202016
H30   H     H_    0.535313 0.984505 0.423925 0.125028
H31   H     H_    0.050098 0.478655 0.553691 0.202015
H32   H     H_    0.035313 0.484506 0.423925 0.125029

loop_
_geom_bond_atom_site_label_1
_geom_bond_atom_site_label_2
_ccdc_geom_bond_type
C58   C62   A    
C87   O39   A    
C4    C109  S    
C3    O23   A    
Cr11  O15   S    
C86   O2    A    
C49   H1    S    
Cr7   O19   S    
C41   C42   A    
C14   C18   A    
C85   O1    A    
Cr8   O20   S    
C34   C93   S    
C89   O49   A    
Cr5   O25   S    
C53   C69   A    
C33   C94   S    
C87   O3    A    
C9    C25   S    
C96   O12   A    
C47   O35   A    
C35   C96   S    
C92   O52   A    
C67   C83   A    
C48   O36   A    
C108  F4    S    
C94   O6    A    
C81   C97   S    
C2    O26   A    
C98   O14   A    
C33   C42   A    
Cr2   O18   S    
C13   C29   A    
C52   F6    S    
C55   C90   S    
C93   O9    A    
C8    C112  A    
C1    C112  S    
Cr1   O41   S    
C35   C39   A    
Cr2   O2    S    
C67   H7    S    
C79   F15   S    
C5    C21   S    
C22   H28   S    
Cr11  O39   S    
C68   H8    S    
C3    C110  S    
Cr9   O13   S    
C48   C104  S    
Cr3   O23   S    
C65   C69   A    
Cr8   O32   S    
C85   O37   A    
Cr4   O48   S    
C102  C105  D    
Cr2   O46   S    
C57   C73   S    
Cr6   O26   S    
C10   C30   A    
C16   C32   A    
Cr10  O10   S    
C75   F11   S    
C100  O16   A    
Cr7   O51   S    
C39   C51   S    
C15   C19   A    
C71   H11   S    
Cr8   O52   S    
C69   H9    S    
C64   C84   A    
C74   F10   S    
C61   C77   S    
C56   C72   A    
C73   F9    S    
C25   F33   S    
Cr7   O7    S    
C107  C108  S    
C58   C74   S    
C1    O25   A    
C103  C108  D    
C86   O38   A    
C23   C27   S    
C8    C12   A    
C30   C86   S    
Cr5   O5    S    
C78   H18   S    
C29   C85   S    
C77   H17   S    
C80   H20   S    
C15   F23   S    
C70   H10   S    
C10   C26   S    
C48   O32   A    
Cr3   O3    S    
C11   C31   A    
Cr9   O33   S    
C12   C32   A    
C95   O7    A    
C64   C80   S    
C99   O15   A    
C19   H23   S    
C34   C41   A    
C49   F7    S    
C14   C30   A    
C17   C109  A    
C93   O5    A    
C97   O13   A    
C23   H25   S    
Cr12  O16   S    
Cr2   O42   S    
C16   F24   S    
C99   O43   A    
Cr7   O27   S    
Cr5   O17   S    
C21   H27   S    
Cr3   O19   S    
C2    C111  S    
Cr8   O28   S    
C47   C103  S    
Cr12  O12   S    
C27   F35   S    
C51   C52   S    
C68   C84   A    
C76   C80   S    
C36   C40   A    
C100  O44   A    
C31   C87   S    
Cr2   O22   S    
Cr4   O20   S    
Cr3   O47   S    
C76   F12   S    
Cr4   O44   S    
C39   C40   A    
Cr4   O24   S    
C75   H15   S    
C34   C38   A    
C63   C79   S    
C74   H14   S    
C43   H31   S    
C40   C52   S    
C73   H13   S    
C42   H30   S    
C33   C37   A    
C56   C60   A    
C63   C83   A    
C68   C72   A    
C4    O24   A    
C84   C100  S    
C61   C81   A    
C6    C110  A    
C7    C11   A    
C43   C44   A    
C78   F14   S    
C5    C9    A    
C37   C38   A    
Cr6   O6    S    
Cr6   O50   S    
C77   F13   S    
C66   C82   A    
C46   O34   A    
C46   C102  S    
C26   F34   S    
C102  F17   S    
C65   C81   A    
C60   C76   S    
C22   F26   S    
C11   C27   S    
C101  F18   S    
C16   C20   A    
Cr9   O37   S    
C90   O46   A    
Cr9   O17   S    
C95   O11   A    
C20   H24   S    
C45   O33   A    
C94   O10   A    
C4    O28   A    
C57   C61   A    
C35   C44   A    
Cr10  O14   S    
C37   C49   S    
C98   O42   A    
C45   C101  S    
C28   F32   S    
C46   O30   A    
C56   C89   S    
C80   F16   S    
C65   H5    S    
C54   C70   A    
Cr1   O21   S    
C91   O47   A    
Cr4   O4    S    
C82   C98   S    
C32   C88   S    
C45   O29   A    
C1    O21   A    
Cr10  O18   S    
Cr3   O43   S    
C50   H2    S    
C59   C75   S    
C55   C59   A    
C44   H32   S    
C21   F25   S    
C54   C58   A    
Cr5   O49   S    
C101  C106  D    
C91   O51   A    
C21   C25   S    
Cr7   O31   S    
Cr10  O34   S    
Cr11  O11   S    
C107  F3    S    
Cr8   O8    S    
C3    O27   A    
C62   C78   S    
C50   F8    S    
C24   C28   S    
C104  F19   S    
C105  F1    S    
C19   C111  A    
Cr6   O18   S    
C53   C57   A    
C72   H12   S    
C14   F22   S    
Cr1   O45   S    
C76   H16   S    
C15   C31   A    
C38   C50   S    
C27   F31   S    
C2    O22   A    
C52   H4    S    
C105  C106  S    
C90   O50   A    
C59   C63   A    
Cr10  O38   S    
C96   O8    A    
C60   C64   A    
C13   F21   S    
Cr5   O29   S    
C89   O45   A    
C54   C91   S    
C88   O4    A    
C88   O40   A    
C28   F36   S    
C51   F5    S    
C24   H26   S    
C9    C29   A    
C36   C95   S    
C26   F30   S    
C66   C70   A    
C47   O31   A    
C92   O48   A    
C7    C23   S    
Cr12  O36   S    
C74   C78   S    
C8    C24   S    
C7    C111  A    
Cr6   O30   S    
C53   C92   S    
C67   C71   A    
Cr1   O17   S    
C62   C82   A    
C18   H22   S    
C41   H29   S    
C23   F27   S    
Cr11  O35   S    
C51   H3    S    
C6    C10   A    
C66   H6    S    
C25   F29   S    
C13   C17   A    
C17   H21   S    
Cr1   O1    S    
C12   C28   S    
C18   C110  A    
C49   C50   S    
C22   C26   S    
C20   C112  A    
Cr11  O19   S    
C97   O41   A    
C73   C77   S    
Cr12  O20   S    
C36   C43   A    
C83   C99   S    
C5    C109  A    
Cr9   O9    S    
C79   H19   S    
C75   C79   S    
C103  F20   S    
C106  F2    S    
C104  C107  D    
C55   C71   A    
C24   F28   S    
Cr12  O40   S    
C6    C22   S    
