data_mof_unit_63881.cif
_audit_creation_date              2012-12-10T19:40:01-0500
_audit_creation_method            fapswitch 2.2
_symmetry_space_group_name_H-M    P1
_symmetry_Int_Tables_number       1
_space_group_crystal_system       triclinic
_cell_length_a                    30.490136
_cell_length_b                    21.635456
_cell_length_c                    21.606585
_cell_angle_alpha                 89.234785
_cell_angle_beta                  134.773653
_cell_angle_gamma                 90.075658
_cell_volume                      10116.6926621

loop_
_atom_site_label
_atom_site_type_symbol
_atom_type_description
_atom_site_fract_x
_atom_site_fract_y
_atom_site_fract_z
_atom_type_partial_charge
C1    C     C_R   0.120134 0.499497 0.119846 0.880580
C2    C     C_3   0.580016 0.783178 0.171426 -0.488898
C3    C     C_R   0.001583 0.314516 0.002002 -0.094985
C4    C     C_R   0.501298 0.186094 0.998770 -0.091943
C5    C     C_R   0.497454 0.814483 0.998180 -0.099518
C6    C     C_3   0.929084 0.909938 0.145269 -0.498385
C7    C     C_3   0.413231 0.578156 0.128143 -0.483495
C8    C     C_R   0.962673 0.718957 0.918983 -0.215918
C9    C     C_R   0.041040 0.282444 0.000654 -0.217937
C10   C     C_R   0.464065 0.219031 0.919283 -0.214946
C11   C     C_R   0.459988 0.783316 0.918445 -0.215247
C12   C     C_R   0.962447 0.783295 0.919030 -0.218414
C13   C     C_R   0.217291 0.546783 0.246014 0.109738
C14   C     C_R   0.040841 0.217723 0.000234 -0.217699
C15   C     C_R   0.463768 0.283365 0.919305 -0.218454
C16   C     C_R   0.459710 0.718554 0.918315 -0.221127
C17   C     C_R   0.002131 0.814038 0.998691 -0.091489
C18   C     C_R   0.999748 0.185482 0.998275 -0.095636
C19   C     C_R   0.502168 0.314090 0.998910 -0.088147
C20   C     C_R   0.498366 0.685392 0.998031 -0.095795
C21   C     C_R   0.046175 0.780689 0.076478 0.146848
C22   C     C_R   0.961078 0.218991 0.998048 0.128661
C23   C     C_R   0.545158 0.280784 0.076999 0.147845
C24   C     C_R   0.717258 0.046959 0.245603 0.111759
C25   C     C_R   0.534424 0.717946 0.074583 0.127648
C26   C     C_3   0.686165 0.454731 0.573259 -0.398892
C27   C     C_3   0.686440 0.384329 0.570523 -0.840106
C28   C     C_3   0.185377 0.966051 0.569009 -0.403272
C29   C     C_3   0.183743 0.896301 0.558405 -0.826961
C30   C     C_R   0.185945 0.500738 0.183851 -0.084339
C31   C     C_R   0.685934 0.000648 0.183849 -0.086934
C32   C     C_R   0.218495 0.460084 0.177711 -0.215966
C33   C     C_R   0.718493 0.959707 0.178030 -0.219122
C34   C     C_R   0.282805 0.460070 0.242017 -0.220305
C35   C     C_R   0.782806 0.959730 0.242314 -0.217831
C36   C     C_R   0.313913 0.502066 0.310328 -0.096889
C37   C     C_R   0.620130 0.999446 0.119844 0.881188
C38   C     C_R   0.813902 0.002024 0.310298 -0.095381
C39   C     C_R   0.280749 0.547882 0.308144 0.147479
C40   C     C_R   0.780711 0.048066 0.307731 0.148773
C41   C     C_3   0.284366 0.566681 0.377893 -0.500900
C42   C     C_3   0.784290 0.067434 0.377277 -0.501033
C43   C     C_3   0.214250 0.565264 0.309249 -0.476810
C44   C     C_3   0.714167 0.066027 0.308610 -0.478756
C45   C     C_R   0.999507 0.620170 0.999042 0.882132
C46   C     C_R   0.000128 0.380027 0.000431 0.882028
C47   C     C_R   0.499548 0.120189 0.999088 0.882651
C48   C     C_3   0.061073 0.783748 0.158663 -0.509135
C49   C     C_R   0.499678 0.879999 0.000008 0.882543
C50   C     C_R   0.779311 0.517064 0.828477 0.138422
C51   C     C_R   0.279287 0.012590 0.830087 0.142137
C52   C     C_R   0.814097 0.497056 0.813478 -0.155156
C53   C     C_R   0.313958 0.997362 0.813172 -0.154409
C54   C     C_R   0.782875 0.475916 0.729595 -0.244988
C55   C     C_R   0.282492 0.981189 0.727288 -0.246138
C56   C     C_R   0.717909 0.476250 0.662968 0.142073
C57   C     C_R   0.217528 0.981722 0.660860 0.139460
C58   C     C_R   0.684936 0.498663 0.682117 -0.126098
C59   C     C_3   0.912263 0.214248 0.997850 -0.486075
C60   C     C_R   0.184799 0.998808 0.682345 -0.121147
C61   C     C_R   0.717536 0.518573 0.765219 0.088670
C62   C     C_R   0.217501 0.013838 0.767202 0.085289
C63   C     C_3   0.711081 0.545324 0.821609 -0.510537
C64   C     C_3   0.211149 0.034592 0.825988 -0.515621
C65   C     C_3   0.782249 0.544201 0.894336 -0.451948
C66   C     C_3   0.282323 0.033658 0.898415 -0.447230
C67   C     C_R   0.000306 0.000578 0.880162 0.877832
C68   C     C_R   0.500305 0.500575 0.880164 0.877212
C69   C     C_R   0.000396 0.879846 0.000359 0.877108
C70   C     C_3   0.557930 0.283898 0.157509 -0.521277
C71   C     C_R   0.999742 0.119957 0.999585 0.880670
C72   C     C_R   0.500400 0.379867 0.000389 0.876139
C73   C     C_R   0.499615 0.619924 0.999679 0.881698
C74   C     C_R   0.879863 0.499294 0.879942 0.897815
C75   C     C_R   0.379817 0.999333 0.879865 0.898137
C76   C     C_R   0.999711 0.000075 0.119880 0.874896
C77   C     C_R   0.499924 0.499437 0.119915 0.875563
C78   C     C_R   0.500099 0.500411 0.379830 0.863599
C79   C     C_R   0.000438 0.000460 0.380354 0.868129
C80   C     C_R   0.379802 0.500402 0.379755 0.875256
C81   C     C_3   0.581062 0.711946 0.171352 -0.490988
C82   C     C_R   0.879798 0.000396 0.379754 0.877307
C83   C     C_R   0.500168 0.499540 0.620350 0.876389
C84   C     C_R   0.000171 0.999539 0.620351 0.875580
C85   C     C_R   0.619731 0.499658 0.619609 0.886792
C86   C     C_R   0.119684 0.999672 0.620014 0.887050
C87   C     C_R   0.971279 0.953225 0.754108 0.107953
C88   C     C_R   0.471537 0.453060 0.754381 0.108471
C89   C     C_R   0.002191 0.999267 0.816234 -0.082827
C90   C     C_R   0.502189 0.499279 0.816239 -0.084209
C91   C     C_R   0.041260 0.039612 0.822681 -0.215129
C92   C     C_3   0.059694 0.713597 0.158503 -0.472025
C93   C     C_R   0.541041 0.539829 0.822470 -0.215914
C94   C     C_R   0.541192 0.539713 0.758240 -0.224917
C95   C     C_R   0.041409 0.039497 0.758448 -0.223709
C96   C     C_R   0.503901 0.497740 0.689958 -0.094483
C97   C     C_R   0.003888 0.997730 0.689938 -0.094025
C98   C     C_R   0.045143 0.717205 0.076531 0.111987
C99   C     C_R   0.962929 0.280857 0.001786 0.129003
C100  C     C_R   0.544149 0.217297 0.077012 0.113224
C101  C     C_R   0.533024 0.779846 0.074576 0.131046
C102  C     C_R   0.472947 0.451871 0.692276 0.148225
C103  C     C_3   0.913788 0.285434 0.000927 -0.489383
C104  C     C_R   0.972685 0.952032 0.691999 0.148104
C105  C     C_3   0.406976 0.432797 0.622656 -0.500045
C106  C     C_3   0.906606 0.933325 0.622257 -0.500853
C107  C     C_3   0.905057 0.934840 0.690949 -0.477193
C108  C     C_3   0.405424 0.434305 0.691345 -0.477968
C109  C     C_R   0.951024 0.975037 0.170268 0.148757
C110  C     C_R   0.476602 0.550312 0.193659 0.092140
C111  C     C_R   0.998327 0.003751 0.184414 -0.099417
C112  C     C_R   0.500989 0.499863 0.186683 -0.073232
C113  C     C_R   0.042004 0.039045 0.259191 -0.217226
C114  C     C_3   0.556567 0.213733 0.157306 -0.466336
C115  C     C_R   0.534692 0.454146 0.252478 -0.219926
C116  C     C_R   0.535383 0.454528 0.317511 -0.224069
C117  C     C_R   0.041887 0.039185 0.323474 -0.225288
C118  C     C_R   0.503963 0.501767 0.317622 -0.098869
C119  C     C_R   0.999350 0.002540 0.313488 -0.078223
C120  C     C_R   0.478451 0.551472 0.259029 0.148580
C121  C     C_R   0.951936 0.973861 0.234707 0.110409
C122  C     C_3   0.415258 0.579599 0.200379 -0.484625
C123  C     C_3   0.930281 0.908652 0.216733 -0.481485
C124  C     C_R   0.001145 0.686043 0.998577 -0.090024
H1    H     H_    0.930712 0.695099 0.857504 0.156342
H2    H     H_    0.308063 0.968618 0.711526 0.174087
H3    H     H_    0.689348 0.512641 0.833407 0.203978
H4    H     H_    0.690723 0.592720 0.799934 0.208776
H5    H     H_    0.189707 0.998887 0.834993 0.206348
H6    H     H_    0.190554 0.081755 0.808524 0.207093
H7    H     H_    0.801727 0.511171 0.948586 0.206244
H8    H     H_    0.802981 0.590979 0.914333 0.198822
H9    H     H_    0.302100 0.997635 0.949687 0.206134
H10   H     H_    0.302816 0.080338 0.922555 0.198910
H11   H     H_    0.068802 0.073081 0.874312 0.151920
H12   H     H_    0.072096 0.307162 0.000908 0.154785
H13   H     H_    0.568406 0.573441 0.873924 0.155563
H14   H     H_    0.568718 0.573158 0.760401 0.158844
H15   H     H_    0.069114 0.072789 0.760785 0.158030
H16   H     H_    0.402271 0.385495 0.599217 0.209499
H17   H     H_    0.376978 0.468669 0.570477 0.190993
H18   H     H_    0.901641 0.886053 0.598558 0.209202
H19   H     H_    0.876805 0.969359 0.570269 0.191092
H20   H     H_    0.899150 0.888446 0.706867 0.196887
H21   H     H_    0.874380 0.971854 0.678872 0.217040
H22   H     H_    0.399779 0.387877 0.707527 0.196905
H23   H     H_    0.433032 0.195196 0.857739 0.156974
H24   H     H_    0.374546 0.471152 0.679074 0.216599
H25   H     H_    0.076830 0.064833 0.268762 0.162181
H26   H     H_    0.557624 0.416872 0.250957 0.146649
H27   H     H_    0.930527 0.808820 0.857666 0.154483
H28   H     H_    0.071842 0.193140 0.000358 0.155074
H29   H     H_    0.432766 0.308907 0.857902 0.153392
H30   H     H_    0.430671 0.694657 0.856910 0.157045
H31   H     H_    0.558573 0.417303 0.365617 0.166668
H32   H     H_    0.076710 0.064944 0.382496 0.148604
H33   H     H_    0.416216 0.627225 0.219949 0.207449
H34   H     H_    0.431045 0.808759 0.857062 0.158938
H35   H     H_    0.381393 0.548261 0.189304 0.199267
H36   H     H_    0.883581 0.905157 0.191402 0.197236
H37   H     H_    0.965673 0.876273 0.271519 0.217223
H38   H     H_    0.881687 0.907216 0.078659 0.209111
H39   H     H_    0.963678 0.878284 0.158458 0.190856
H40   H     H_    0.412990 0.624943 0.105999 0.201593
H41   H     H_    0.378226 0.545898 0.075052 0.218424
H42   H     H_    0.023381 0.805455 0.148630 0.191538
H43   H     H_    0.868392 0.195755 0.935694 0.212182
H44   H     H_    0.519397 0.305665 0.145473 0.197519
H45   H     H_    0.192686 0.611698 0.293445 0.193492
H46   H     H_    0.561711 0.690004 0.194599 0.200087
H47   H     H_    0.107871 0.802599 0.213436 0.209004
H48   H     H_    0.929587 0.191558 0.058256 0.202317
H49   H     H_    0.604438 0.302764 0.213444 0.206480
H50   H     H_    0.625550 0.692018 0.199033 0.212703
H51   H     H_    0.021096 0.694583 0.148238 0.215766
H52   H     H_    0.871006 0.308071 0.940240 0.201851
H53   H     H_    0.517116 0.194715 0.144952 0.215492
H54   H     H_    0.560530 0.802469 0.195398 0.211072
H55   H     H_    0.105677 0.692001 0.213301 0.193523
H56   H     H_    0.195510 0.528336 0.321351 0.216980
H57   H     H_    0.931476 0.303889 0.062795 0.211895
H58   H     H_    0.602258 0.192136 0.213261 0.193610
H59   H     H_    0.623760 0.804330 0.198574 0.200117
H60   H     H_    0.194386 0.426489 0.126230 0.151584
H61   H     H_    0.694390 0.925900 0.126814 0.154200
H62   H     H_    0.308027 0.426547 0.239805 0.160385
H63   H     H_    0.808040 0.926022 0.240340 0.156535
H64   H     H_    0.303213 0.613936 0.401581 0.208567
H65   H     H_    0.306353 0.530665 0.429890 0.191424
H66   H     H_    0.803131 0.114735 0.400563 0.209617
H67   H     H_    0.692574 0.112515 0.292343 0.194521
H68   H     H_    0.806263 0.031672 0.429573 0.191047
H69   H     H_    0.734580 0.365988 0.618236 0.253090
H70   H     H_    0.661288 0.364493 0.585814 0.272213
H71   H     H_    0.663212 0.369688 0.504322 0.237061
H72   H     H_    0.637753 0.471934 0.522383 0.198197
H73   H     H_    0.710276 0.473887 0.555915 0.201124
H74   H     H_    0.231410 0.876899 0.603458 0.248732
H75   H     H_    0.158565 0.873755 0.572203 0.271431
H76   H     H_    0.159515 0.886063 0.490397 0.244414
H77   H     H_    0.137410 0.984648 0.520075 0.194373
H78   H     H_    0.695411 0.029362 0.321003 0.216088
H79   H     H_    0.209999 0.987974 0.553884 0.198460
H80   H     H_    0.808696 0.459521 0.715624 0.174624
O1    O     O_R   0.091640 0.500000 0.143360 -0.624363
O2    O     O_R   0.551700 0.500000 0.143310 -0.623930
O3    O     O_R   0.499940 0.551750 0.408310 -0.620719
O4    O     O_R   0.499940 0.448250 0.408310 -0.624295
O5    O     O_R   0.999940 0.051750 0.408310 -0.621768
O6    O     O_R   0.999940 0.948250 0.408310 -0.624562
O7    O     O_R   0.408380 0.551720 0.408370 -0.620076
O8    O     O_R   0.408380 0.448280 0.408370 -0.622595
O9    O     O_R   0.908380 0.051720 0.408370 -0.617406
O10   O     O_R   0.908380 0.948280 0.408370 -0.625107
O11   O     O_R   0.500050 0.551670 0.591650 -0.624519
O12   O     O_R   0.591640 1.000000 0.143360 -0.626447
O13   O     O_R   0.500050 0.448330 0.591650 -0.619456
O14   O     O_R   0.000050 0.051670 0.591650 -0.624330
O15   O     O_R   0.000050 0.948330 0.591650 -0.619924
O16   O     O_R   0.591610 0.551710 0.591590 -0.625856
O17   O     O_R   0.591610 0.448290 0.591590 -0.618793
O18   O     O_R   0.091610 0.051710 0.591590 -0.629275
O19   O     O_R   0.091610 0.948290 0.591590 -0.617771
O20   O     O_R   0.091570 0.500000 0.039860 -0.622809
O21   O     O_R   0.591570 1.000000 0.039860 -0.619487
O22   O     O_R   0.000030 0.591610 0.051750 -0.626716
O23   O     O_R   0.051710 0.908380 0.051700 -0.617823
O24   O     O_R   0.000030 0.408390 0.051750 -0.622194
O25   O     O_R   0.500030 0.091610 0.051750 -0.626642
O26   O     O_R   0.500030 0.908390 0.051750 -0.622311
O27   O     O_R   0.999970 0.591600 0.948260 -0.620565
O28   O     O_R   0.999970 0.408400 0.948260 -0.626938
O29   O     O_R   0.499970 0.091600 0.948260 -0.620852
O30   O     O_R   0.499970 0.908400 0.948260 -0.627618
O31   O     O_R   0.908410 0.500000 0.960140 -0.623802
O32   O     O_R   0.408410 0.000000 0.960140 -0.622399
O33   O     O_R   0.908350 0.500000 0.856640 -0.630047
O34   O     O_R   0.051710 0.091620 0.051700 -0.627049
O35   O     O_R   0.408350 1.000000 0.856640 -0.633570
O36   O     O_R   0.948280 1.000000 0.856590 -0.625445
O37   O     O_R   0.448280 0.500000 0.856590 -0.627517
O38   O     O_R   0.051720 1.000000 0.960100 -0.623477
O39   O     O_R   0.551720 0.500000 0.960100 -0.621170
O40   O     O_R   0.948270 0.908380 0.948190 -0.624666
O41   O     O_R   0.948270 0.091620 0.948190 -0.621196
O42   O     O_R   0.448270 0.408380 0.948190 -0.623117
O43   O     O_R   0.448270 0.591620 0.948190 -0.623959
O44   O     O_R   0.551710 0.408380 0.051700 -0.620002
O45   O     O_R   0.551710 0.591620 0.051700 -0.623252
O46   O     O_R   0.948260 1.000000 0.039800 -0.620515
O47   O     O_R   0.448260 0.500000 0.039800 -0.622723
O48   O     O_R   0.051700 0.000000 0.143310 -0.624118
Zn1   Zn    Zn3+2 0.000030 0.500000 0.069110 0.937800
Zn2   Zn    Zn3+2 0.500000 0.430940 0.499990 0.946063
Zn3   Zn    Zn3+2 1.000000 0.069060 0.499990 0.948689
Zn4   Zn    Zn3+2 1.000000 0.930940 0.499990 0.943376
Zn5   Zn    Zn3+2 0.500030 0.000000 0.069110 0.936382
Zn6   Zn    Zn3+2 0.999950 0.500000 0.930890 0.947650
Zn7   Zn    Zn3+2 0.499950 1.000000 0.930890 0.946456
Zn8   Zn    Zn3+2 0.930930 1.000000 0.930840 0.943798
Zn9   Zn    Zn3+2 0.430930 0.500000 0.930840 0.943354
Zn10  Zn    Zn3+2 0.069060 1.000000 0.069060 0.948581
Zn11  Zn    Zn3+2 0.569060 0.500000 0.069060 0.949824
Zn12  Zn    Zn3+2 0.500000 0.569060 0.499990 0.945306

loop_
_geom_bond_atom_site_label_1
_geom_bond_atom_site_label_2
_ccdc_geom_bond_type
C79   O6    A    
C44   H78   S    
C63   C65   S    
C69   O40   A    
C17   C69   S    
C93   C94   A    
C96   C102  A    
O13   Zn2   S    
O34   Zn10  S    
C50   C65   S    
C14   C18   A    
C75   O35   A    
C23   C70   S    
C76   O46   A    
C104  C106  S    
C43   H45   S    
C59   H43   S    
C106  H19   S    
O29   Zn7   S    
O16   Zn12  S    
C28   C57   S    
C70   C114  S    
C98   C124  A    
O3    Zn12  S    
O32   Zn5   S    
C42   C44   S    
C48   H47   S    
C1    O20   A    
C84   C97   S    
C6    C123  S    
C94   H14   S    
O35   Zn7   S    
C28   C29   S    
C78   C118  S    
C85   O16   A    
C5    C11   A    
C52   C74   S    
C10   C15   A    
C117  C119  A    
C44   H67   S    
C105  H17   S    
C123  H37   S    
C54   H80   S    
C20   C25   A    
C68   O39   A    
C115  C116  A    
C82   O9    A    
C3    C99   A    
C67   O36   A    
C67   C89   S    
C121  C123  S    
C102  C105  S    
C60   C62   A    
C73   O43   A    
C72   O42   A    
C49   O26   A    
C34   H62   S    
O41   Zn8   S    
C103  H57   S    
C78   O3    A    
C1    C30   S    
C116  H31   S    
C62   C64   S    
C110  C112  A    
C33   C35   A    
C82   O10   A    
C87   C89   A    
O19   Zn4   S    
O22   Zn1   S    
C6    H38   S    
C120  C122  S    
C29   H75   S    
C79   C119  S    
C12   C17   A    
C68   C90   S    
C122  H35   S    
O26   Zn5   S    
C77   O47   A    
C89   C91   A    
C1    O1    A    
O8    Zn2   S    
C37   O12   A    
C73   O45   A    
C63   H4    S    
O48   Zn10  S    
C10   H23   S    
C80   O8    A    
C21   C48   S    
C119  C121  A    
C29   H76   S    
C58   C61   A    
C40   C42   S    
C23   C100  A    
C7    H41   S    
C26   H72   S    
C92   H51   S    
C66   H10   S    
C38   C82   S    
C25   C81   S    
C41   C43   S    
C12   H27   S    
C5    C49   S    
C19   C72   S    
C53   C75   S    
C51   C62   A    
O4    Zn2   S    
O12   Zn5   S    
C69   O23   A    
O46   Zn8   S    
C65   H7    S    
C67   O38   A    
C52   C54   A    
C106  H18   S    
C108  H22   S    
C53   C55   A    
C45   C124  S    
O30   Zn7   S    
C105  C108  S    
C5    C101  A    
C43   H56   S    
C15   H29   S    
O15   Zn4   S    
O10   Zn4   S    
C30   C32   A    
C71   O34   A    
C113  H25   S    
C13   C30   A    
C35   C38   A    
C100  C114  S    
C26   H73   S    
O21   Zn7   S    
C48   H42   S    
C39   C41   S    
C99   C103  S    
C36   C80   S    
C110  C120  A    
C22   C59   S    
C60   C86   S    
C19   C23   A    
C8    C124  A    
C57   C60   A    
C88   C102  A    
C2    C101  S    
C24   C31   A    
O18   Zn3   S    
O14   Zn3   S    
C83   O13   A    
C17   C21   A    
C31   C37   S    
C41   H64   S    
C51   C53   A    
C51   C66   S    
C64   C66   S    
C26   C27   S    
C77   C112  S    
C15   C19   A    
C9    C14   A    
O44   Zn11  S    
C55   C57   A    
C49   O30   A    
C3    C9    A    
C92   H55   S    
C70   H44   S    
C66   H9    S    
C11   C16   A    
C42   H66   S    
C50   C52   A    
C55   H2    S    
C116  C118  A    
C68   O37   A    
C8    C12   A    
C114  H53   S    
O37   Zn9   S    
C117  H32   S    
C31   C33   A    
O38   Zn10  S    
C91   H11   S    
C75   O32   A    
C111  C113  A    
C27   H70   S    
C16   C20   A    
O27   Zn6   S    
O36   Zn8   S    
C84   O15   A    
C94   C96   A    
O6    Zn4   S    
O43   Zn9   S    
O42   Zn9   S    
C84   O14   A    
O47   Zn9   S    
C80   O7    A    
C27   H69   S    
C88   C90   A    
C4    C100  A    
C16   H30   S    
C24   C44   S    
C6    C109  S    
C113  C117  A    
O9    Zn3   S    
C27   H71   S    
C86   O19   A    
C28   H77   S    
C7    C122  S    
C4    C10   A    
C59   H48   S    
C76   O48   A    
C58   C85   S    
C13   C43   S    
C65   H8    S    
O1    Zn1   S    
C90   C93   A    
O20   Zn6   S    
O2    Zn11  S    
C86   O18   A    
C18   C71   S    
C79   O5    A    
O17   Zn2   S    
C33   H61   S    
C46   O24   A    
C22   C99   A    
C18   C22   A    
C28   H79   S    
C46   O28   A    
O11   Zn12  S    
C32   H60   S    
C36   C39   A    
C64   H6    S    
O24   Zn1   S    
C26   C56   S    
C83   O11   A    
C95   C97   A    
C54   C56   A    
C47   O25   A    
C64   H5    S    
C45   O27   A    
C7    H40   S    
C3    C46   S    
C95   H15   S    
C108  H24   S    
C7    C110  S    
C41   H65   S    
C59   C103  S    
C81   H50   S    
C72   O44   A    
C74   O33   A    
C109  C111  A    
C107  H20   S    
O45   Zn11  S    
C45   O22   A    
C114  H58   S    
C77   O2    A    
O5    Zn3   S    
C105  H16   S    
C38   C40   A    
C21   C98   A    
C78   O4    A    
C25   C101  A    
O7    Zn12  S    
C76   C111  S    
C107  H21   S    
C83   C96   S    
C115  H26   S    
C37   O21   A    
C103  H52   S    
C24   C40   A    
C122  H33   S    
C56   C58   A    
C20   C73   S    
C34   C36   A    
C2    H59   S    
C81   H46   S    
C70   H49   S    
C118  C120  A    
O40   Zn8   S    
C13   C39   A    
C97   C104  A    
C93   H13   S    
C48   C92   S    
C92   C98   S    
O31   Zn1   S    
C91   C95   A    
C87   C104  A    
O39   Zn11  S    
C9    H12   S    
C42   H68   S    
C8    H1    S    
C88   C108  S    
C87   C107  S    
C6    H39   S    
C11   H34   S    
C35   H63   S    
C29   H74   S    
C106  C107  S    
C14   H28   S    
O33   Zn6   S    
C123  H36   S    
C50   C61   A    
C71   O41   A    
C2    C81   S    
O28   Zn6   S    
C109  C121  A    
C2    H54   S    
C47   O29   A    
C74   O31   A    
C85   O17   A    
C112  C115  A    
C63   H3    S    
O23   Zn10  S    
C32   C34   A    
C61   C63   S    
C4    C47   S    
O25   Zn5   S    
