data_mof_unit_14411.cif
_audit_creation_date              2012-12-11T14:56:42-0500
_audit_creation_method            fapswitch 2.2
_symmetry_space_group_name_H-M    P1
_symmetry_Int_Tables_number       1
_space_group_crystal_system       triclinic
_cell_length_a                    10.574991
_cell_length_b                    10.677703
_cell_length_c                    17.078694
_cell_angle_alpha                 80.140866
_cell_angle_beta                  89.944673
_cell_angle_gamma                 119.341747
_cell_volume                      1648.13668853

loop_
_atom_site_label
_atom_site_type_symbol
_atom_type_description
_atom_site_fract_x
_atom_site_fract_y
_atom_site_fract_z
_atom_type_partial_charge
C1    C     C_R   0.221925 0.853617 0.128600 0.547295
C2    C     C_1   0.684644 0.400653 0.709850 -0.062592
C3    C     C_R   0.621433 0.708336 0.809401 -0.114199
C4    C     C_R   0.636370 0.280038 0.086158 0.543265
C5    C     C_R   0.589641 0.691038 0.732231 0.002489
C6    C     C_R   0.666756 0.815285 0.668927 0.040827
C7    C     C_R   0.759910 0.953578 0.686401 -0.155345
C8    C     C_R   0.772435 0.970843 0.764997 -0.146580
C9    C     C_R   0.696972 0.848192 0.826395 0.011475
C10   C     C_R   0.086316 0.902215 0.789915 -0.124000
C11   C     C_R   0.048018 0.885913 0.713593 -0.126539
C12   C     C_R   0.798550 0.421720 0.263133 -0.128891
C13   C     C_R   0.048534 0.774363 0.681442 0.016417
C14   C     C_R   0.070444 0.668009 0.730441 -0.140859
C15   C     C_R   0.112908 0.686541 0.807030 -0.133699
C16   C     C_R   0.640837 0.857973 0.125204 0.549346
C17   C     C_R   0.130459 0.809669 0.834780 0.026452
C18   C     C_R   0.686451 0.810401 0.357306 0.557849
C19   C     C_R   0.689781 0.397151 0.394347 0.560931
C20   C     C_R   0.104156 0.810599 0.359278 0.561746
C21   C     C_R   0.678416 0.796032 0.587723 0.532236
C22   C     C_R   0.716952 0.445244 0.625959 0.536318
C23   C     C_R   0.788617 0.408335 0.184513 -0.137075
C24   C     C_R   0.028244 0.774126 0.596777 0.542594
C25   C     C_R   0.214441 0.858306 0.902378 0.548476
C26   C     C_R   0.640164 0.290276 0.861892 0.550006
C27   C     C_R   0.649203 0.865895 0.900764 0.547327
C28   C     C_R   0.525949 0.305300 0.205008 -0.125667
C29   C     C_R   0.536295 0.320588 0.284036 -0.133708
C30   C     C_R   0.671868 0.372189 0.313988 0.031407
C31   C     C_3   0.462154 0.543261 0.723786 -0.259267
C32   C     C_3   0.327848 0.555721 0.704159 -0.410530
C33   C     C_R   0.651658 0.342267 0.156452 0.026925
C34   C     C_1   0.669106 0.848300 0.205328 -0.025390
C35   C     C_1   0.680554 0.839376 0.274811 -0.028685
C36   C     C_1   0.180293 0.825150 0.211256 -0.045124
C37   C     C_1   0.151441 0.819967 0.279836 -0.046300
C38   C     C_1   0.661803 0.356920 0.780401 -0.048169
Cr1   Cr    Cr6+3 0.402240 0.783890 0.019450 1.025535
Cr2   Cr    Cr6+3 0.382360 0.097900 0.991800 1.017797
Cr3   Cr    Cr6+3 0.715380 0.118170 0.988700 1.023235
Cr4   Cr    Cr6+3 0.936650 0.882420 0.465510 1.019283
Cr5   Cr    Cr6+3 0.605770 0.565620 0.493360 1.015932
Cr6   Cr    Cr6+3 0.921340 0.550490 0.496380 1.014858
H1    H     H_    0.418773 0.254857 0.183910 0.145527
H2    H     H_    0.832546 0.080403 0.777390 0.140899
H3    H     H_    0.092680 0.995192 0.810821 0.136223
H4    H     H_    0.296964 0.594366 0.753024 0.150309
H5    H     H_    0.348671 0.633963 0.647310 0.190134
H6    H     H_    0.235866 0.446702 0.699136 0.126961
H7    H     H_    0.487954 0.493460 0.679899 0.198310
H8    H     H_    0.431280 0.461168 0.780368 0.126324
H9    H     H_    0.026047 0.965991 0.678047 0.136559
H10   H     H_    0.062665 0.575753 0.708150 0.132079
H11   H     H_    0.139805 0.610147 0.842488 0.123527
H12   H     H_    0.439007 0.288279 0.322090 0.135231
H13   H     H_    0.905974 0.470603 0.284082 0.143961
H14   H     H_    0.886813 0.440245 0.147359 0.135255
H15   H     H_    0.565640 0.614517 0.858105 0.127286
H16   H     H_    0.820746 0.048616 0.639105 0.135522
O1    O     O_R   0.521780 0.757110 0.108900 -0.509498
O2    O     O_R   0.805020 0.410040 0.421340 -0.517017
O3    O     O_R   0.049240 0.685450 0.403290 -0.497289
O4    O     O_R   0.275160 0.783810 0.101120 -0.498301
O5    O     O_R   0.077520 0.903010 0.551800 -0.504363
O6    O     O_R   0.802980 0.872780 0.546830 -0.524598
O7    O     O_R   0.578090 0.681300 0.569920 -0.533149
O8    O     O_R   0.608530 0.436370 0.586530 -0.504141
O9    O     O_R   0.798770 0.401880 0.597100 -0.505926
O10   O     O_R   0.043450 0.677890 0.566230 -0.513636
O11   O     O_3   0.821250 0.666180 0.485090 -0.297316
O12   O     O_R   0.513330 0.228330 0.898660 -0.500646
O13   O     O_R   0.237900 0.972600 0.090980 -0.513711
O14   O     O_R   0.511190 0.220540 0.061620 -0.511436
O15   O     O_R   0.736920 0.257720 0.063840 -0.517975
O16   O     O_R   0.710450 0.984050 0.081720 -0.496824
O17   O     O_R   0.524090 0.765520 0.933110 -0.520260
O18   O     O_R   0.277300 0.791600 0.938160 -0.499459
O19   O     O_R   0.240210 0.981010 0.915190 -0.522853
O20   O     O_R   0.739230 0.266130 0.888050 -0.513670
O21   O     O_R   0.712580 0.991850 0.918770 -0.504494
O22   O     O_3   0.499990 0.999980 0.999980 -0.246546
O23   O     O_R   0.083770 0.911170 0.376030 -0.501379
O24   O     O_R   0.808770 0.880340 0.383890 -0.491555
O25   O     O_R   0.584340 0.689460 0.394160 -0.503855
O26   O     O_R   0.614320 0.443940 0.423590 -0.491613

loop_
_geom_bond_atom_site_label_1
_geom_bond_atom_site_label_2
_ccdc_geom_bond_type
C23   H14   S    
C21   O6    A    
C26   O12   A    
C31   H8    S    
C19   O26   A    
Cr3   O20   S    
C24   O10   A    
C7    C8    A    
Cr1   O4    S    
C12   C23   A    
Cr1   O17   S    
C36   C37   T    
C5    C6    A    
C19   O2    A    
Cr2   O13   S    
Cr6   O11   S    
C34   C35   T    
C27   O17   A    
C4    O15   A    
C16   C34   S    
C8    C9    A    
C23   C33   A    
C2    C22   S    
Cr4   O5    S    
C18   O24   A    
Cr6   O10   S    
C18   C35   S    
C22   O9    A    
C4    O14   A    
C11   H9    S    
C16   O16   A    
C13   C14   A    
C21   O7    A    
C32   H4    S    
Cr6   O3    S    
Cr1   O1    S    
C28   H1    S    
C18   O25   A    
C25   O18   A    
Cr5   O25   S    
Cr1   O18   S    
Cr2   O22   S    
C27   O21   A    
Cr4   O24   S    
C26   C38   S    
Cr6   O2    S    
C6    C21   S    
C26   O20   A    
C13   C24   S    
C15   H11   S    
C29   C30   A    
C3    C9    A    
Cr3   O15   S    
C2    C38   T    
C31   C32   S    
Cr3   O21   S    
Cr2   O19   S    
Cr6   O9    S    
C22   O8    A    
C24   O5    A    
C12   H13   S    
C14   H10   S    
C28   C33   A    
C16   O1    A    
C1    O4    A    
C7    H16   S    
C9    C27   S    
C15   C17   A    
C4    C33   S    
C28   C29   A    
Cr5   O11   S    
Cr2   O12   S    
C12   C30   A    
C25   O19   A    
Cr5   O26   S    
Cr4   O23   S    
Cr1   O22   S    
C31   H7    S    
C3    C5    A    
C6    C7    A    
C29   H12   S    
Cr5   O8    S    
C1    O13   A    
C20   O3    A    
C17   C25   S    
Cr3   O16   S    
C20   C37   S    
C11   C13   A    
Cr3   O22   S    
Cr4   O11   S    
Cr2   O14   S    
C32   H6    S    
C8    H2    S    
C32   H5    S    
C10   C11   A    
Cr5   O7    S    
C20   O23   A    
C10   H3    S    
Cr4   O6    S    
C14   C15   A    
C10   C17   A    
C19   C30   S    
C1    C36   S    
C5    C31   S    
C3    H15   S    
