data_mof_unit_39705.cif
_audit_creation_date              2012-12-10T20:34:06-0500
_audit_creation_method            fapswitch 2.2
_symmetry_space_group_name_H-M    P1
_symmetry_Int_Tables_number       1
_space_group_crystal_system       triclinic
_cell_length_a                    9.935816
_cell_length_b                    10.703095
_cell_length_c                    13.577421
_cell_angle_alpha                 90.532108
_cell_angle_beta                  81.36711
_cell_angle_gamma                 88.944604
_cell_volume                      1427.17019018

loop_
_atom_site_label
_atom_site_type_symbol
_atom_type_description
_atom_site_fract_x
_atom_site_fract_y
_atom_site_fract_z
_atom_type_partial_charge
C1    C     C_R   0.500211 0.739422 0.495872 0.933001
C2    C     C_3   0.251759 0.935609 0.569563 -0.445430
C3    C     C_R   0.910806 0.525902 0.585227 0.144553
C4    C     C_R   0.473935 0.500108 0.685910 0.878422
C5    C     C_R   0.949591 0.459838 0.417927 0.444321
C6    C     C_R   0.091804 0.461585 0.419339 -0.202147
C7    C     C_R   0.052695 0.525930 0.585167 0.192653
C8    C     C_3   0.042794 0.643743 0.645174 -0.489625
C9    C     C_3   0.889714 0.642903 0.646149 -0.449848
C10   C     C_R   0.501116 0.260560 0.500825 0.912760
C11   C     C_R   0.525882 0.499702 0.314123 0.935482
C12   C     C_1   0.451653 0.499374 0.790505 -0.194657
C13   C     C_1   0.546770 0.499646 0.209587 -0.081505
C14   C     C_2   0.552258 0.499845 0.017625 -0.160735
C15   C     C_2   0.432762 0.497592 0.983664 0.155002
C16   C     C_1   0.437702 0.498538 0.878949 0.007163
C17   C     C_1   0.555927 0.499710 0.121385 0.061857
C18   C     C_3   0.296899 0.494187 0.050346 -0.744592
C19   C     C_R   0.403720 0.937257 0.559212 0.057811
C20   C     C_R   0.502140 0.871716 0.493696 -0.238121
C21   C     C_R   0.613433 0.935178 0.439926 0.423446
C22   C     C_R   0.615772 0.064097 0.448970 -0.277761
C23   C     C_R   0.505590 0.128766 0.503671 -0.169991
C24   C     C_R   0.404153 0.064850 0.562611 0.112755
C25   C     C_3   0.253024 0.077151 0.572313 -0.423868
H1    H     H_    0.162782 0.433507 0.354470 0.213722
H2    H     H_    0.206113 0.895850 0.641957 0.199274
H3    H     H_    0.214386 0.896806 0.502583 0.228462
H4    H     H_    0.211940 0.492498 0.005679 0.244254
H5    H     H_    0.291604 0.409097 0.096861 0.253090
H6    H     H_    0.283261 0.578329 0.099584 0.243148
H7    H     H_    0.920273 0.745463 0.361168 0.388931
H8    H     H_    0.763138 0.281103 0.251410 0.375128
H9    H     H_    0.073196 0.629784 0.719872 0.207621
H10   H     H_    0.092502 0.721871 0.601923 0.215845
H11   H     H_    0.831669 0.626482 0.721320 0.201591
H12   H     H_    0.850858 0.722145 0.605428 0.250088
H13   H     H_    0.648109 0.502227 0.967101 0.148159
H14   H     H_    0.698407 0.114287 0.407517 0.247174
H15   H     H_    0.207114 0.118021 0.645510 0.201236
H16   H     H_    0.217877 0.120356 0.506211 0.228498
N1    N     N_R   0.857130 0.500860 0.500650 -0.151623
N2    N     N_R   0.142770 0.500820 0.500650 -0.136519
O1    O     O_R   0.385310 0.683210 0.499990 -0.622921
O2    O     O_2   0.811651 0.955218 0.281850 -0.272285
O3    O     O_3   0.857939 0.791977 0.413186 -0.562563
O4    O     O_2   0.863836 0.518545 0.246208 -0.272368
O5    O     O_2   0.025850 0.344672 0.240511 -0.327471
O6    O     O_3   0.780152 0.303318 0.319396 -0.554034
O7    O     O_R   0.614650 0.683240 0.500000 -0.563172
O8    O     O_R   0.368820 0.499950 0.640340 -0.610755
O9    O     O_R   0.598170 0.499990 0.640350 -0.621367
O10   O     O_R   0.385350 0.316760 0.500000 -0.623411
O11   O     O_R   0.614690 0.316790 0.500010 -0.582379
O12   O     O_R   0.401830 0.500010 0.359650 -0.642504
O13   O     O_R   0.631180 0.500050 0.359660 -0.494511
O14   O     O_2   0.678830 0.764260 0.293487 -0.295788
S1    S     S_3+6 0.741723 0.860925 0.352322 0.050043
S2    S     S_3+6 0.905088 0.407657 0.302720 0.041322
Zn1   Zn    Zn3+2 0.346870 0.499980 0.499990 0.955197
Zn2   Zn    Zn3+2 0.653130 0.500020 0.500010 1.059942

loop_
_geom_bond_atom_site_label_1
_geom_bond_atom_site_label_2
_ccdc_geom_bond_type
C15   C18   S    
C5    N1    A    
C3    N1    A    
C2    H2    S    
C18   H5    S    
O11   Zn2   S    
C7    N2    A    
C10   C23   S    
C4    C12   S    
C1    O7    A    
C1    O1    A    
C19   C20   A    
O6    S2    S    
C13   C17   T    
C23   C24   A    
C9    H12   S    
C19   C24   A    
C24   C25   S    
C21   S1    S    
O13   Zn2   S    
C18   H4    S    
C8    H9    S    
O12   Zn1   S    
O3    S1    S    
C11   C13   S    
N1    Zn2   S    
O14   S1    D    
C6    H1    S    
N2    Zn1   S    
O1    Zn1   S    
C3    C9    S    
C22   H14   S    
O10   Zn1   S    
C4    O9    A    
C2    C25   S    
C3    C7    A    
O9    Zn2   S    
C22   C23   A    
C25   H15   S    
C5    C6    A    
C10   O11   A    
O2    S1    D    
O8    Zn1   S    
O4    S2    D    
C14   H13   S    
C5    S2    S    
C4    O8    A    
H8    O6    S    
C15   C16   S    
C9    H11   S    
C12   C16   T    
C7    C8    S    
C11   O12   A    
C20   C21   A    
O5    S2    D    
C25   H16   S    
C10   O10   A    
O7    Zn2   S    
C6    N2    A    
C1    C20   S    
C2    H3    S    
C18   H6    S    
C2    C19   S    
C21   C22   A    
H7    O3    S    
C11   O13   A    
C14   C15   D    
C8    C9    S    
C8    H10   S    
C14   C17   S    
