data_mof_unit_32017.cif
_audit_creation_date              2012-12-10T20:31:51-0500
_audit_creation_method            fapswitch 2.2
_symmetry_space_group_name_H-M    P1
_symmetry_Int_Tables_number       1
_space_group_crystal_system       triclinic
_cell_length_a                    9.867505
_cell_length_b                    10.663557
_cell_length_c                    15.531649
_cell_angle_alpha                 90.223162
_cell_angle_beta                  67.749263
_cell_angle_gamma                 90.016577
_cell_volume                      1512.57358085

loop_
_atom_site_label
_atom_site_type_symbol
_atom_type_description
_atom_site_fract_x
_atom_site_fract_y
_atom_site_fract_z
_atom_type_partial_charge
C1    C     C_R   0.497955 0.740091 0.503360 0.881359
C2    C     C_R   0.400151 0.540808 0.917088 0.104384
C3    C     C_R   0.256692 0.499546 0.971492 0.109761
C4    C     C_R   0.501542 0.567727 0.959538 0.083652
C5    C     C_R   0.463650 0.535925 0.054108 0.065193
C6    C     C_R   0.316789 0.502411 0.107866 -0.230111
C7    C     C_R   0.214788 0.486243 0.067100 -0.219673
C8    C     C_R   0.639907 0.623585 0.910619 -0.236789
C9    C     C_R   0.742370 0.637922 0.951338 -0.213717
C10   C     C_R   0.711353 0.595816 0.041423 0.169657
C11   C     C_R   0.573116 0.541467 0.092364 0.092223
C12   C     C_R   0.407848 0.501121 0.676113 0.888935
C13   C     C_R   0.815658 0.609344 0.082233 -0.218067
C14   C     C_R   0.782200 0.571885 0.173960 -0.213276
C15   C     C_R   0.548828 0.493256 0.180212 -0.255499
C16   C     C_R   0.364049 0.936114 0.521570 0.123210
C17   C     C_R   0.487677 0.871429 0.519701 -0.101224
C18   C     C_R   0.599193 0.935404 0.536893 -0.228808
C19   C     C_R   0.599103 0.065093 0.537021 -0.231186
C20   C     C_R   0.487568 0.128811 0.519857 -0.102718
C21   C     C_R   0.364053 0.064015 0.521618 0.130372
C22   C     C_3   0.282560 0.070881 0.457891 -0.496406
C23   C     C_R   0.497925 0.259954 0.503440 0.875006
C24   C     C_3   0.282907 0.928737 0.457587 -0.470154
C25   C     C_R   0.908809 0.600546 0.534264 0.231329
C26   C     C_R   0.952805 0.406061 0.458453 -0.141909
C27   C     C_R   0.096787 0.406134 0.458359 -0.157264
C28   C     C_R   0.051811 0.600946 0.533572 0.213228
C29   C     C_3   0.002558 0.651775 0.629861 -0.508852
C30   C     C_3   0.847871 0.648255 0.631875 -0.542661
C31   C     C_R   0.591490 0.500326 0.324063 0.870719
C32   C     C_R   0.347677 0.506472 0.777914 -0.163125
C33   C     C_R   0.646698 0.516054 0.223512 -0.060866
C34   C     C_R   0.157851 0.469261 0.929236 -0.323690
C35   C     C_R   0.203075 0.470796 0.832320 0.469104
C36   C     C_R   0.441577 0.544643 0.820837 -0.343203
H1    H     H_    0.104164 0.458437 0.110158 0.149415
H2    H     H_    0.920541 0.653031 0.044449 0.149082
H3    H     H_    0.691221 0.886483 0.543114 0.165804
H4    H     H_    0.691030 0.114172 0.543405 0.169907
H5    H     H_    0.171337 0.111658 0.492895 0.205211
H6    H     H_    0.348761 0.112234 0.389118 0.200488
H7    H     H_    0.171841 0.887825 0.491996 0.199365
H8    H     H_    0.349644 0.887279 0.388678 0.207589
H9    H     H_    0.917741 0.329102 0.426321 0.147795
H10   H     H_    0.170264 0.329477 0.425926 0.148314
H11   H     H_    0.020855 0.585279 0.679270 0.258622
H12   H     H_    0.451529 0.440075 0.217955 0.148304
H13   H     H_    0.043464 0.748448 0.631728 0.198981
H14   H     H_    0.780235 0.576476 0.680572 0.214724
H15   H     H_    0.797097 0.742520 0.637769 0.197089
H16   H     H_    0.859182 0.590646 0.206927 0.157828
H17   H     H_    0.846706 0.681483 0.911834 0.161323
H18   H     H_    0.047174 0.440187 0.970962 0.161640
H19   H     H_    0.550062 0.571513 0.776955 0.169925
H20   H     H_    0.276363 0.490681 0.182296 0.148120
H21   H     H_    0.670624 0.661553 0.841696 0.152426
N1    N     N_R   0.856900 0.500860 0.500610 -0.102690
N2    N     N_R   0.142540 0.500820 0.500610 -0.107617
O1    O     O_R   0.385310 0.683210 0.499990 -0.613495
O2    O     O_R   0.614650 0.683240 0.500000 -0.621013
O3    O     O_R   0.319830 0.499970 0.632240 -0.576886
O4    O     O_R   0.549170 0.500000 0.632250 -0.621146
O5    O     O_R   0.385350 0.316760 0.500000 -0.625043
O6    O     O_R   0.614690 0.316790 0.500010 -0.624457
O7    O     O_R   0.450830 0.500000 0.367750 -0.613714
O8    O     O_R   0.680170 0.500030 0.367760 -0.613416
Zn1   Zn    Zn3+2 0.346870 0.499980 0.499990 0.942408
Zn2   Zn    Zn3+2 0.653130 0.500020 0.500010 0.935445
O9    O     O_3   0.104473 0.442326 0.791392 -0.649984
C37   C     C_3   0.095002 0.310807 0.784728 0.087398
H22   H     H_    0.034131 0.270630 0.854909 0.141889
H23   H     H_    0.205835 0.266764 0.754080 0.124225
C38   C     C_3   0.012632 0.280457 0.721362 -0.297763
H24   H     H_    0.903451 0.326706 0.748799 0.224705
H25   H     H_    0.075171 0.317632 0.650619 0.241071
C39   C     C_3   0.992160 0.139404 0.714627 -0.990399
H26   H     H_    0.099878 0.091033 0.688024 0.269288
H27   H     H_    0.935839 0.120622 0.666090 0.261741
H28   H     H_    0.924400 0.101054 0.784030 0.268567

loop_
_geom_bond_atom_site_label_1
_geom_bond_atom_site_label_2
_ccdc_geom_bond_type
C8    C9    A    
C31   O7    A    
O7    Zn1   S    
C30   H15   S    
C16   C21   A    
C19   C20   A    
C4    C8    A    
C14   C33   A    
C29   H13   S    
C39   H26   S    
C25   C28   A    
C31   O8    A    
C26   C27   A    
C38   H25   S    
C29   H11   S    
O5    Zn1   S    
C28   C29   S    
C5    C11   A    
C3    C7    A    
C5    C6    A    
N2    Zn1   S    
C39   H28   S    
C22   H5    S    
O2    Zn2   S    
C34   C35   A    
C26   H9    S    
C11   C15   A    
C14   H16   S    
O4    Zn2   S    
C35   O9    S    
C16   C17   A    
C38   C39   S    
C31   C33   S    
O9    C37   S    
C9    C10   A    
C30   H14   S    
C16   C24   S    
C13   C14   A    
C12   C32   S    
C15   H12   S    
C39   H27   S    
C38   H24   S    
C32   C35   A    
C10   C11   A    
C1    O1    A    
C37   H23   S    
C12   O4    A    
C18   C19   A    
C3    C34   A    
O8    Zn2   S    
C2    C4    A    
C18   H3    S    
C29   C30   S    
C8    H21   S    
C12   O3    A    
C20   C23   S    
C17   C18   A    
C7    H1    S    
C26   N1    A    
C13   H2    S    
C27   H10   S    
C23   O5    A    
C34   H18   S    
C24   H8    S    
C22   C24   S    
C9    H17   S    
C25   N1    A    
C32   C36   A    
C28   N2    A    
C2    C36   A    
C25   C30   S    
C6    H20   S    
C4    C5    A    
C10   C13   A    
C1    O2    A    
C37   C38   S    
N1    Zn2   S    
C6    C7    A    
C1    C17   S    
O3    Zn1   S    
C23   O6    A    
C2    C3    A    
C37   H22   S    
C36   H19   S    
C27   N2    A    
C22   H6    S    
O6    Zn2   S    
C19   H4    S    
C20   C21   A    
O1    Zn1   S    
C24   H7    S    
C21   C22   S    
C15   C33   A    
