data_mof_unit_34397.cif
_audit_creation_date              2012-12-10T19:26:43-0500
_audit_creation_method            fapswitch 2.2
_symmetry_space_group_name_H-M    P1
_symmetry_Int_Tables_number       1
_space_group_crystal_system       triclinic
_cell_length_a                    19.210695
_cell_length_b                    10.487087
_cell_length_c                    9.744178
_cell_angle_alpha                 90.336898
_cell_angle_beta                  88.418057
_cell_angle_gamma                 89.490875
_cell_volume                      1962.24079338

loop_
_atom_site_label
_atom_site_type_symbol
_atom_type_description
_atom_site_fract_x
_atom_site_fract_y
_atom_site_fract_z
_atom_type_partial_charge
C1    C     C_R   0.502714 0.257803 0.499179 0.857880
C2    C     C_3   0.532711 0.036178 0.382376 0.120960
C3    C     C_3   0.455183 0.421799 0.049636 0.492281
C4    C     C_3   0.544972 0.578067 0.950306 0.517776
C5    C     C_3   0.515092 0.387615 0.949523 -0.238939
C6    C     C_3   0.485004 0.612395 0.050444 -0.201834
C7    C     C_3   0.439490 0.533261 0.954880 -0.162899
C8    C     C_3   0.560576 0.466551 0.045236 -0.138884
C9    C     C_R   0.365675 0.501843 0.502019 0.936305
C10   C     C_R   0.634455 0.504378 0.497697 0.919992
C11   C     C_R   0.250997 0.569480 0.607916 0.361187
C12   C     C_R   0.498028 0.742330 0.500849 0.880363
C13   C     C_R   0.748228 0.550033 0.373246 0.346643
C14   C     C_R   0.177854 0.564550 0.609326 -0.004662
C15   C     C_R   0.821427 0.541725 0.369297 -0.028413
C16   C     C_R   0.145273 0.492196 0.506469 -0.098255
C17   C     C_R   0.855580 0.499947 0.488076 -0.097573
C18   C     C_R   0.184688 0.424622 0.406442 0.390607
C19   C     C_R   0.817705 0.465857 0.607192 0.395139
C20   C     C_R   0.256517 0.429227 0.407413 -0.292588
C21   C     C_R   0.745855 0.469324 0.607870 -0.266291
C22   C     C_R   0.289958 0.501074 0.506531 -0.206943
C23   C     C_3   0.536828 0.042300 0.608886 -0.243003
C24   C     C_R   0.710505 0.509281 0.492065 -0.217401
C25   C     C_R   0.930810 0.496584 0.490969 0.356561
C26   C     C_R   0.070265 0.492454 0.498191 0.361263
C27   C     C_3   0.135380 0.632675 0.722599 -0.324717
C28   C     C_3   0.127050 0.775669 0.693000 -0.334387
C29   C     C_3   0.080080 0.840833 0.801596 -0.812689
C30   C     C_3   0.862190 0.568919 0.236172 -0.312348
C31   C     C_3   0.874248 0.712221 0.215323 -0.330368
C32   C     C_3   0.921336 0.736010 0.089458 -0.797064
C33   C     C_3   0.638090 0.890128 0.495817 -0.409226
C34   C     C_3   0.465068 0.958054 0.391412 -0.237595
C35   C     C_3   0.696784 0.987892 0.494799 -0.358745
C36   C     C_3   0.767542 0.921857 0.504722 -0.800324
C37   C     C_3   0.363117 0.107744 0.505641 -0.424608
C38   C     C_3   0.305410 0.007840 0.510347 -0.370514
C39   C     C_3   0.233848 0.070747 0.500336 -0.779115
C40   C     C_3   0.438579 0.915276 0.754368 -0.404197
C41   C     C_3   0.410566 0.022947 0.847900 -0.333609
C42   C     C_3   0.389344 0.971395 0.988977 -0.802831
C43   C     C_3   0.564711 0.085470 0.247191 -0.429392
C44   C     C_3   0.592446 0.977395 0.153739 -0.307938
C45   C     C_3   0.566224 0.954057 0.493452 0.092491
C46   C     C_3   0.613431 0.028168 0.012211 -0.828485
C47   C     C_3   0.435608 0.045977 0.507120 0.110665
C48   C     C_3   0.498970 0.877287 0.503102 -0.100058
C49   C     C_3   0.502776 0.122954 0.497220 -0.095827
C50   C     C_3   0.469295 0.964117 0.618100 0.110994
Cl1   Cl    Cl    0.293041 0.665571 0.729765 -0.734914
Cl2   Cl    Cl    0.705402 0.615815 0.230405 -0.656462
Cl3   Cl    Cl    0.145762 0.337324 0.274067 -0.591779
Cl4   Cl    Cl    0.858551 0.420797 0.759782 -0.607249
Cl5   Cl    Cl    0.393960 0.313278 0.121534 -0.668045
Cl6   Cl    Cl    0.607042 0.684808 0.877643 -0.624305
H1    H     H_    0.388438 0.559609 0.912793 0.222015
H2    H     H_    0.102431 0.830136 0.904879 0.272252
H3    H     H_    0.075494 0.944044 0.778307 0.263006
H4    H     H_    0.178542 0.822819 0.691739 0.262068
H5    H     H_    0.104169 0.789713 0.590751 0.237580
H6    H     H_    0.083136 0.589385 0.736467 0.206730
H7    H     H_    0.160557 0.619200 0.822864 0.248671
H8    H     H_    0.973256 0.690937 0.102710 0.268342
H9    H     H_    0.897587 0.696467 0.995820 0.288548
H10   H     H_    0.928446 0.840168 0.075746 0.252977
H11   H     H_    0.823945 0.762426 0.200846 0.262995
H12   H     H_    0.611226 0.437691 0.088034 0.198964
H13   H     H_    0.898665 0.754178 0.306914 0.235118
H14   H     H_    0.913114 0.517897 0.233686 0.208647
H15   H     H_    0.834217 0.529266 0.147406 0.258427
H16   H     H_    0.770506 0.868574 0.602631 0.276244
H17   H     H_    0.776042 0.854438 0.417557 0.262427
H18   H     H_    0.809414 0.994162 0.501336 0.256832
H19   H     H_    0.696145 0.043929 0.398576 0.224900
H20   H     H_    0.689499 0.054668 0.583147 0.230442
H21   H     H_    0.640713 0.831854 0.590502 0.242384
H22   H     H_    0.644286 0.824655 0.406449 0.229684
H23   H     H_    0.286418 0.375996 0.330284 0.242505
H24   H     H_    0.224558 0.138921 0.586755 0.264553
H25   H     H_    0.230106 0.122313 0.401589 0.296316
H26   H     H_    0.192910 0.996730 0.504789 0.247670
H27   H     H_    0.312969 0.939376 0.423581 0.235960
H28   H     H_    0.307065 0.953894 0.607814 0.249234
H29   H     H_    0.356826 0.174715 0.593863 0.198989
H30   H     H_    0.359305 0.164112 0.409844 0.238077
H31   H     H_    0.350419 0.894411 0.978892 0.278574
H32   H     H_    0.435645 0.933261 0.041169 0.239129
H33   H     H_    0.365831 0.048906 0.053300 0.295391
H34   H     H_    0.717565 0.439692 0.699863 0.222257
H35   H     H_    0.450884 0.097057 0.860356 0.231765
H36   H     H_    0.364260 0.067933 0.802215 0.240932
H37   H     H_    0.396284 0.847806 0.732781 0.248974
H38   H     H_    0.480195 0.862546 0.807878 0.249524
H39   H     H_    0.567116 0.066648 0.960335 0.242394
H40   H     H_    0.652657 0.104715 0.021496 0.259626
H41   H     H_    0.636471 0.950076 0.948033 0.300705
H42   H     H_    0.638812 0.932426 0.199252 0.252651
H43   H     H_    0.552049 0.903302 0.141878 0.236124
H44   H     H_    0.523696 0.139203 0.193037 0.253731
H45   H     H_    0.566036 0.081549 0.696091 0.150995
H46   H     H_    0.607476 0.152303 0.269920 0.194779
H47   H     H_    0.435847 0.918962 0.304149 0.151597
H48   H     H_    0.527440 0.293346 0.902136 0.151184
H49   H     H_    0.472720 0.706698 0.097806 0.149253
H50   H     H_    0.027223 0.798644 0.802107 0.267670
N1    N     N_R   0.035962 0.603225 0.475804 -0.178927
N2    N     N_R   0.965082 0.385352 0.512523 -0.109643
N3    N     N_R   0.967078 0.605339 0.472623 -0.180428
N4    N     N_R   0.034099 0.383320 0.516278 -0.111153
N5    N     N_3   0.499950 0.500030 0.863290 -0.116383
N6    N     N_3   0.500050 0.499970 0.136710 -0.109775
O1    O     O_R   0.500000 0.313960 0.616610 -0.632258
O2    O     O_R   0.500000 0.686040 0.383390 -0.621846
O3    O     O_R   0.500030 0.313950 0.383350 -0.601989
O4    O     O_R   0.499970 0.686050 0.616650 -0.593404
O5    O     O_R   0.398120 0.499990 0.616660 -0.574286
O6    O     O_R   0.601880 0.500010 0.383340 -0.573376
O7    O     O_R   0.398150 0.499980 0.383410 -0.584777
O8    O     O_R   0.601850 0.500020 0.616590 -0.589087
Zn1   Zn    Zn3+2 0.499980 0.500010 0.655740 0.997855
Zn2   Zn    Zn3+2 0.500020 0.499990 0.344260 1.003031

loop_
_geom_bond_atom_site_label_1
_geom_bond_atom_site_label_2
_ccdc_geom_bond_type
C23   C45   S    
C38   H27   S    
N5    Zn1   S    
C33   C45   S    
C41   C42   S    
C35   C36   S    
C40   H37   S    
C4    C8    S    
C30   H15   S    
C47   C49   S    
C23   H45   S    
C31   H11   S    
C35   H19   S    
C37   H29   S    
C28   C29   S    
C19   C21   A    
C3    C7    S    
C8    N6    S    
C38   C39   S    
C44   H43   S    
C9    C22   S    
C23   C49   S    
C9    O5    A    
O6    Zn2   S    
O5    Zn1   S    
C18   Cl3   S    
C33   C35   S    
C44   H42   S    
C46   H39   S    
C29   H3    S    
N2    N4    A    
C14   C27   S    
C37   C47   S    
C2    C43   S    
C12   C48   S    
C28   H5    S    
C2    C34   S    
C48   C50   S    
C5    H48   S    
O3    Zn2   S    
C4    Cl6   S    
N1    N3    A    
C1    O1    A    
C30   H14   S    
C44   C46   S    
C47   C50   S    
C12   O2    A    
C21   H34   S    
C28   H4    S    
C2    C45   S    
C16   C26   S    
C35   H20   S    
O4    Zn1   S    
C37   H30   S    
C11   Cl1   S    
C43   H44   S    
C32   H8    S    
C4    C6    S    
C17   C19   A    
C23   C50   S    
C5    N5    S    
C10   C24   S    
C13   C24   A    
C43   C44   S    
N6    Zn2   S    
C37   C38   S    
C10   O6    A    
C2    C49   S    
C13   Cl2   S    
C31   C32   S    
C3    N6    S    
O1    Zn1   S    
C39   H25   S    
C36   H18   S    
C19   Cl4   S    
C40   C41   S    
C41   H35   S    
C46   H41   S    
C20   C22   A    
C8    H12   S    
C13   C15   A    
C9    O7    A    
C14   C16   A    
C29   H50   S    
C42   H32   S    
O8    Zn1   S    
C15   C30   S    
C32   H10   S    
C45   C48   S    
C15   C17   A    
C26   N4    A    
C11   C22   A    
C20   H23   S    
C38   H28   S    
O7    Zn2   S    
C4    N5    S    
C39   H26   S    
C40   H38   S    
C3    C5    S    
C26   N1    A    
C5    C8    S    
C6    C7    S    
C34   C47   S    
C27   H6    S    
C25   N3    A    
C34   C48   S    
C3    Cl5   S    
C34   H47   S    
C42   H33   S    
C17   C25   S    
C39   H24   S    
C43   H46   S    
C33   H21   S    
C30   C31   S    
C40   C50   S    
C11   C14   A    
C6    H49   S    
C7    N5    S    
C18   C20   A    
C33   H22   S    
C10   O8    A    
C36   H17   S    
O2    Zn2   S    
C31   H13   S    
C41   H36   S    
C46   H40   S    
C29   H2    S    
C16   C18   A    
C21   C24   A    
C27   C28   S    
C27   H7    S    
C6    N6    S    
C42   H31   S    
C1    O3    A    
C1    C49   S    
C7    H1    S    
C36   H16   S    
C25   N2    A    
C32   H9    S    
C12   O4    A    
