data_mof_unit_14406.cif
_audit_creation_date              2012-12-10T17:36:19-0500
_audit_creation_method            fapswitch 2.2
_symmetry_space_group_name_H-M    P1
_symmetry_Int_Tables_number       1
_space_group_crystal_system       triclinic
_cell_length_a                    12.324458
_cell_length_b                    13.18149
_cell_length_c                    15.863154
_cell_angle_alpha                 77.941454
_cell_angle_beta                  101.112043
_cell_angle_gamma                 116.618803
_cell_volume                      2238.53176485

loop_
_atom_site_label
_atom_site_type_symbol
_atom_type_description
_atom_site_fract_x
_atom_site_fract_y
_atom_site_fract_z
_atom_type_partial_charge
C1    C     C_R   0.854775 0.286569 0.506871 0.769244
C2    C     C_3   0.034900 0.404794 0.070332 -0.372569
C3    C     C_3   0.999637 0.499272 0.082872 0.334356
C4    C     C_3   0.092505 0.616767 0.042340 -0.377892
C5    C     C_3   0.091930 0.616856 0.944557 -0.376968
C6    C     C_1   0.000222 0.499313 0.175170 -0.122993
C7    C     C_1   0.998427 0.499487 0.824831 -0.118453
C8    C     C_1   0.998648 0.499629 0.749218 -0.183003
C9    C     C_R   0.273473 0.021327 0.384981 -0.152124
C10   C     C_R   0.228176 0.834514 0.468621 -0.042574
C11   C     C_R   0.815372 0.084339 0.558819 -0.192365
C12   C     C_R   0.999505 0.499754 0.659586 0.825259
C13   C     C_R   0.737159 0.968856 0.572586 -0.152064
C14   C     C_R   0.613957 0.931289 0.541770 -0.163534
C15   C     C_R   0.566764 0.009005 0.493303 0.075226
C16   C     C_R   0.649819 0.123907 0.469938 0.024666
C17   C     C_R   0.440034 0.976222 0.467046 0.002976
C18   C     C_R   0.399383 0.054090 0.409836 0.075375
C19   C     C_R   0.484467 0.161883 0.376289 0.413059
C20   C     C_R   0.608510 0.195523 0.406923 -0.311643
C21   C     C_R   0.351947 0.868558 0.497810 -0.224202
C22   C     C_R   0.188604 0.911989 0.413648 -0.225996
C23   C     C_R   0.145182 0.713426 0.487269 0.791990
C24   C     C_R   0.772737 0.163482 0.509490 -0.073218
C25   C     C_R   0.344999 0.327051 0.636390 -0.304077
C26   C     C_R   0.760531 0.646192 0.384223 0.064530
C27   C     C_R   0.663975 0.677493 0.358429 -0.264869
C28   C     C_R   0.559800 0.621895 0.401627 -0.197826
C29   C     C_R   0.551126 0.533933 0.471769 0.004011
C30   C     C_R   0.652526 0.504704 0.495774 0.285634
C31   C     C_R   0.446495 0.474386 0.519189 -0.030623
C32   C     C_R   0.445441 0.386813 0.588765 0.180395
C33   C     C_R   0.544900 0.359720 0.610975 -0.282029
C34   C     C_R   0.000284 0.499993 0.340419 0.823867
C35   C     C_R   0.646308 0.417823 0.565964 -0.173303
C36   C     C_R   0.342208 0.497766 0.501248 0.023878
C37   C     C_R   0.245734 0.354316 0.615513 0.073621
C38   C     C_3   0.034432 0.404888 0.972555 -0.380912
C39   C     C_3   0.870402 0.476303 0.936193 -0.373237
C40   C     C_3   0.870955 0.476331 0.033955 -0.388798
C41   C     C_1   0.000551 0.499546 0.250799 -0.183060
C42   C     C_3   0.998748 0.499376 0.917114 0.332496
Cu1   Cu    Cu3+1 0.098280 0.475420 0.519630 0.933986
Cu2   Cu    Cu3+1 0.901720 0.524580 0.480370 0.916902
H1    H     H_    0.969285 0.319330 0.098822 0.159505
H2    H     H_    0.126587 0.419641 0.960117 0.160944
H3    H     H_    0.127253 0.419429 0.104809 0.163923
H4    H     H_    0.069061 0.686238 0.050440 0.159259
H5    H     H_    0.092812 0.886732 0.390174 0.148992
H6    H     H_    0.240159 0.078825 0.341291 0.176443
H7    H     H_    0.377056 0.808554 0.544688 0.146080
H8    H     H_    0.909181 0.111942 0.588302 0.149279
H9    H     H_    0.558892 0.840439 0.555197 0.125940
H10   H     H_    0.771487 0.908331 0.609718 0.140164
H11   H     H_    0.968667 0.319434 0.954148 0.158266
H12   H     H_    0.672557 0.277418 0.379014 0.180601
H13   H     H_    0.167750 0.308531 0.651932 0.119577
H14   H     H_    0.544907 0.293221 0.664407 0.147671
H15   H     H_    0.343454 0.259883 0.689567 0.132315
H16   H     H_    0.334995 0.562779 0.449660 0.122642
H17   H     H_    0.840941 0.689601 0.350209 0.128464
H18   H     H_    0.487836 0.649575 0.378863 0.134910
H19   H     H_    0.669832 0.744959 0.304709 0.142639
H20   H     H_    0.718248 0.391900 0.589220 0.205585
H21   H     H_    0.842609 0.543195 0.897149 0.162434
H22   H     H_    0.801673 0.392108 0.917181 0.158594
H23   H     H_    0.802374 0.392174 0.061797 0.158986
H24   H     H_    0.843601 0.543383 0.041756 0.169298
H25   H     H_    0.185100 0.635453 0.931554 0.160762
H26   H     H_    0.068131 0.686320 0.905738 0.160116
H27   H     H_    0.185925 0.635234 0.076260 0.160299
N1    N     N_R   0.246300 0.438200 0.549400 -0.179337
N2    N     N_R   0.754300 0.561180 0.451130 -0.212576
O1    O     O_R   0.972520 0.318130 0.524690 -0.581186
O2    O     O_R   0.806530 0.359650 0.491530 -0.604879
O3    O     O_R   0.083030 0.479240 0.637150 -0.576271
O4    O     O_R   0.917040 0.520750 0.603990 -0.591071
O5    O     O_R   0.193470 0.640350 0.508470 -0.589417
O6    O     O_R   0.027480 0.681870 0.475310 -0.584715
O7    O     O_R   0.082960 0.479250 0.396010 -0.573797
O8    O     O_R   0.916970 0.520760 0.362850 -0.588554
O9    O     O_3   0.442542 0.237151 0.321041 -0.618700
C43   C     C_3   0.507354 0.290335 0.247444 0.028117
H28   H     H_    0.439282 0.277807 0.188859 0.154968
H29   H     H_    0.568593 0.252479 0.238557 0.122153
C44   C     C_3   0.578570 0.419187 0.251077 -0.298717
H30   H     H_    0.513408 0.457673 0.246658 0.222509
H31   H     H_    0.637174 0.433945 0.313814 0.239087
C45   C     C_3   0.659136 0.478875 0.177663 -0.951164
H32   H     H_    0.727650 0.444080 0.183282 0.260846
H33   H     H_    0.708235 0.572131 0.181765 0.256640
H34   H     H_    0.602779 0.466288 0.113743 0.249238

loop_
_geom_bond_atom_site_label_1
_geom_bond_atom_site_label_2
_ccdc_geom_bond_type
C5    C42   S    
C33   H14   S    
C19   C20   A    
C20   H12   S    
C3    C6    S    
C7    C8    T    
C10   C22   A    
Cu1   O5    S    
C26   C27   A    
Cu1   N1    S    
C30   C35   A    
C1    O1    A    
C28   C29   A    
C26   H17   S    
C38   C42   S    
C44   H31   S    
C9    C22   A    
C15   C16   A    
C11   C24   A    
C26   N2    A    
C18   C19   A    
C7    C42   S    
C5    H25   S    
C11   H8    S    
C34   O7    A    
C38   H11   S    
C43   H28   S    
C6    C41   T    
C35   H20   S    
C34   O8    A    
C45   H33   S    
C19   O9    S    
C16   C20   A    
C25   C37   A    
Cu1   O1    S    
C16   C24   A    
C13   C14   A    
C39   H21   S    
C34   C41   S    
C39   C42   S    
C10   C21   A    
C1    O2    A    
Cu2   O8    S    
C39   C40   S    
C30   N2    A    
C44   H30   S    
Cu1   O7    S    
C44   C45   S    
C17   C21   A    
Cu2   O2    S    
Cu1   Cu2   S    
C29   C30   A    
C2    C38   S    
C31   C32   A    
C8    C12   S    
C12   O4    A    
C43   C44   S    
C17   C18   A    
C45   H34   S    
C27   H19   S    
C22   H5    S    
C43   H29   S    
C3    C40   S    
C12   O3    A    
C2    H3    S    
C39   H22   S    
C3    C4    S    
C21   H7    S    
C40   H23   S    
C13   H10   S    
C4    H4    S    
Cu1   O3    S    
C15   C17   A    
Cu2   O4    S    
C14   C15   A    
Cu2   O6    S    
C9    H6    S    
C4    C5    S    
C36   H16   S    
C5    H26   S    
C10   C23   S    
C32   C33   A    
C2    C3    S    
C29   C31   A    
C11   C13   A    
C25   C32   A    
C33   C35   A    
C23   O5    A    
Cu2   N2    S    
C38   H2    S    
C2    H1    S    
C9    C18   A    
C14   H9    S    
C1    C24   S    
O9    C43   S    
C40   H24   S    
C37   N1    A    
C27   C28   A    
C31   C36   A    
C25   H15   S    
C23   O6    A    
C45   H32   S    
C4    H27   S    
C37   H13   S    
C36   N1    A    
C28   H18   S    
