data_mof_unit_43867.cif
_audit_creation_date              2012-12-10T19:01:52-0500
_audit_creation_method            fapswitch 2.2
_symmetry_space_group_name_H-M    P1
_symmetry_Int_Tables_number       1
_space_group_crystal_system       triclinic
_cell_length_a                    11.704549
_cell_length_b                    10.792607
_cell_length_c                    9.577351
_cell_angle_alpha                 90.008774
_cell_angle_beta                  90.2043
_cell_angle_gamma                 90.177318
_cell_volume                      1209.82235414

loop_
_atom_site_label
_atom_site_type_symbol
_atom_type_description
_atom_site_fract_x
_atom_site_fract_y
_atom_site_fract_z
_atom_type_partial_charge
C1    C     C_R   0.501240 0.262781 0.499820 0.849694
C2    C     C_R   0.500560 0.129687 0.497229 -0.193462
C3    C     C_R   0.573732 0.063903 0.407270 0.471324
C4    C     C_R   0.570413 0.934230 0.407474 -0.208393
C5    C     C_R   0.495438 0.870811 0.496818 -0.215769
C6    C     C_R   0.412896 0.938031 0.569600 0.051724
C7    C     C_3   0.371778 0.932420 0.718032 0.330378
C8    C     C_3   0.382947 0.073201 0.721308 -0.449409
C9    C     C_R   0.583338 0.560185 0.073183 0.136025
C10   C     C_R   0.424458 0.429071 0.073786 0.241632
C11   C     C_R   0.423934 0.430522 0.924704 -0.135066
C12   C     C_R   0.284079 0.498938 0.499766 0.799424
C13   C     C_R   0.586242 0.556417 0.926539 0.150887
C14   C     C_3   0.627855 0.686985 0.913479 -0.567919
C15   C     C_3   0.617422 0.695130 0.072854 0.585440
C16   C     C_R   0.497853 0.737437 0.499865 0.815438
C17   C     C_R   0.715927 0.499970 0.500179 0.821032
C18   C     C_1   0.162372 0.498738 0.499406 -0.194288
C19   C     C_1   0.059895 0.498894 0.499634 -0.006788
C20   C     C_1   0.940100 0.499244 0.500128 -0.006012
C21   C     C_1   0.837622 0.499597 0.500408 -0.183663
C22   C     C_R   0.418207 0.065174 0.572325 -0.015545
Cu1   Cu    Cu3+1 0.499990 0.499980 0.640670 0.927928
Cu2   Cu    Cu3+1 0.500010 0.500020 0.359330 1.002407
H1    H     H_    0.569518 0.748542 0.855132 0.210252
H2    H     H_    0.630588 0.883701 0.343701 0.207691
H3    H     H_    0.429974 0.885423 0.792768 0.083012
H4    H     H_    0.300532 0.122938 0.733747 0.213696
H5    H     H_    0.453206 0.106388 0.790447 0.168333
H6    H     H_    0.361163 0.376285 0.868073 0.144965
H7    H     H_    0.717178 0.690259 0.874493 0.169671
N1    N     N_R   0.500710 0.500930 0.147930 -0.192354
N2    N     N_R   0.500710 0.500890 0.852020 -0.183179
O1    O     O_R   0.500000 0.319640 0.618810 -0.590076
O2    O     O_R   0.500010 0.319680 0.381230 -0.517630
O3    O     O_R   0.337190 0.499990 0.618790 -0.596787
O4    O     O_R   0.337200 0.500030 0.381210 -0.557484
O5    O     O_R   0.499990 0.680320 0.618770 -0.606556
O6    O     O_R   0.500000 0.680360 0.381190 -0.539569
O7    O     O_R   0.662800 0.499970 0.618790 -0.569570
O8    O     O_R   0.662810 0.500010 0.381210 -0.557605
O9    O     O_3   0.649242 0.125357 0.320627 -0.557376
C23   C     C_3   0.754538 0.138037 0.391220 -0.311627
H8    H     H_    0.745115 0.191979 0.489592 0.140939
H9    H     H_    0.814389 0.189906 0.323133 0.197454
H10   H     H_    0.793342 0.046063 0.413321 0.157334
N3    N     N_3   0.727680 0.714187 0.142663 -0.571058
H11   H     H_    0.757808 0.802331 0.115867 0.223639
H12   H     H_    0.787647 0.650103 0.106400 0.181034
O10   O     O_3   0.536231 0.784333 0.120355 -0.549255
C24   C     C_3   0.421012 0.761079 0.082216 -0.257339
H13   H     H_    0.410163 0.716480 0.979106 0.120757
H14   H     H_    0.375488 0.850969 0.077734 0.181315
H15   H     H_    0.378207 0.703951 0.162767 0.194778
O11   O     O_3   0.255449 0.898023 0.729168 -0.566261
C25   C     C_3   0.242940 0.769874 0.706229 -0.250613
H16   H     H_    0.300169 0.714561 0.774659 0.160745
H17   H     H_    0.257785 0.747507 0.594628 0.154077
H18   H     H_    0.153760 0.742901 0.730946 0.178439
N4    N     N_3   0.343768 0.353510 0.146353 -0.516438
H19   H     H_    0.355845 0.261728 0.114874 0.206194
H20   H     H_    0.261805 0.380196 0.115003 0.189430

loop_
_geom_bond_atom_site_label_1
_geom_bond_atom_site_label_2
_ccdc_geom_bond_type
C2    C22   A    
C8    C22   S    
C23   H8    S    
Cu2   N1    S    
C3    O9    S    
C13   N2    A    
C6    C7    S    
C24   H13   S    
C15   N3    S    
C12   O3    A    
Cu1   O5    S    
C4    H2    S    
C19   C20   S    
C25   H18   S    
C7    O11   S    
C14   H7    S    
O11   C25   S    
Cu1   O1    S    
C24   H15   S    
O10   C24   S    
C9    C15   S    
C7    C8    S    
N3    H12   S    
C12   O4    A    
C13   C14   S    
C25   H16   S    
Cu2   O8    S    
C23   H9    S    
N4    H19   S    
C8    H5    S    
C25   H17   S    
C1    O1    A    
C2    C3    A    
C14   H1    S    
C5    C6    A    
C8    H4    S    
C23   H10   S    
C17   O8    A    
Cu2   O2    S    
O9    C23   S    
Cu1   Cu2   S    
Cu1   O7    S    
Cu1   O3    S    
N3    H11   S    
C10   N1    A    
C11   N2    A    
Cu2   O6    S    
C7    H3    S    
C20   C21   T    
C1    O2    A    
N4    H20   S    
C1    C2    S    
C10   C11   A    
C15   O10   S    
C12   C18   S    
Cu2   O4    S    
C9    C13   A    
C10   N4    S    
C18   C19   T    
C5    C16   S    
C16   O6    A    
C9    N1    A    
C24   H14   S    
C14   C15   S    
C17   C21   S    
C3    C4    A    
C11   H6    S    
C16   O5    A    
C4    C5    A    
Cu1   N2    S    
C17   O7    A    
C6    C22   A    
