data_mof_unit_57456.cif
_audit_creation_date              2013-03-05T15:48:54-0500
_audit_creation_method            fapswitch 2.2
_symmetry_space_group_name_H-M    P1
_symmetry_Int_Tables_number       1
_space_group_crystal_system       triclinic
_cell_length_a                    8.414631
_cell_length_b                    18.908937
_cell_length_c                    18.935262
_cell_angle_alpha                 99.431892
_cell_angle_beta                  94.329443
_cell_angle_gamma                 91.928599
_cell_volume                      2960.3654307

loop_
_atom_site_label
_atom_site_type_symbol
_atom_site_description
_atom_site_fract_x
_atom_site_fract_y
_atom_site_fract_z
_atom_type_partial_charge
P1    P     P_3+3 0.947550 0.663200 0.567530 0.435344
O1    O     O_2   0.118870 0.674530 0.547560 -0.405909
O2    O     O_3   0.870460 0.585330 0.542110 -0.407065
O3    O     O_3   0.354280 0.631750 0.418430 -0.376026
O4    O     O_2   0.259165 0.759436 0.474892 -0.440127
O5    O     O_3   0.956104 0.693846 0.661266 -0.560208
O6    O     O_3   0.323917 0.751039 0.340655 -0.586633
H1    H     H_    0.314976 0.644106 0.289322 0.054720
C1    C     C_3   0.279540 0.713070 0.211567 -0.804229
H2    H     H_    0.148235 0.705447 0.209604 0.275105
H3    H     H_    0.312393 0.768359 0.203729 0.299653
P2    P     P_3+3 0.354660 0.445020 0.336980 0.517754
P3    P     P_3+3 0.908324 0.593219 0.287837 0.508653
O7    O     O_2   0.180880 0.466650 0.327890 -0.384797
O8    O     O_3   0.939000 0.596010 0.380670 -0.383787
O9    O     O_2   0.049159 0.555667 0.251802 -0.422986
O10   O     O_3   0.352868 0.352674 0.299660 -0.610371
O11   O     O_3   0.918258 0.681830 0.269944 -0.495132
C2    C     C_3   0.942636 0.730970 0.335182 0.345769
H4    H     H_    0.065429 0.729586 0.358245 0.128494
H5    H     H_    0.868972 0.717090 0.377040 0.085674
C3    C     C_3   0.902818 0.807665 0.325407 -0.074569
H6    H     H_    0.966772 0.846547 0.369683 0.063220
C4    C     C_3   0.770385 0.360912 0.301633 0.137997
H7    H     H_    0.642406 0.353073 0.308125 0.144263
H8    H     H_    0.810755 0.417263 0.323281 0.058633
C5    C     C_3   0.801415 0.343535 0.220224 0.320005
Ba1   Ba    Ba6+2 0.152460 0.535140 0.468980 1.579861
C6    C     C_3   0.071360 0.660728 0.699637 0.319115
H9    H     H_    0.179358 0.653307 0.670490 0.127330
H10   H     H_    0.015242 0.611244 0.711978 0.049039
C7    C     C_3   0.122502 0.705948 0.772312 -0.726554
H11   H     H_    0.178274 0.758212 0.765887 0.290985
H12   H     H_    0.211401 0.676589 0.801524 0.191909
H13   H     H_    0.019095 0.713824 0.805556 0.277869
C8    C     C_3   0.261154 0.306429 0.333561 0.659686
H14   H     H_    0.149117 0.331338 0.349753 0.031623
C9    C     C_3   0.217159 0.234935 0.280543 -0.601627
H15   H     H_    0.120939 0.242172 0.239218 0.219549
H16   H     H_    0.166864 0.194021 0.309945 0.218498
P4    P     P_3+3 0.862750 0.336790 0.432410 0.508117
O12   O     O_2   0.691430 0.325420 0.452420 -0.302296
O13   O     O_3   0.939830 0.414660 0.457830 -0.379802
O14   O     O_3   0.456020 0.368240 0.581510 -0.314135
O15   O     O_3   0.855333 0.313811 0.338378 -0.578895
P5    P     P_3+3 0.888028 0.409312 0.713837 0.439651
O16   O     O_3   0.374170 0.535780 0.585810 -0.395257
O17   O     O_3   0.871300 0.403980 0.619270 -0.405557
O18   O     O_2   0.737484 0.443165 0.744302 -0.393723
O19   O     O_3   0.883498 0.323345 0.737285 -0.545875
Ba2   Ba    Ba6+2 0.657710 0.464850 0.530960 1.588549
P6    P     P_3+3 0.381863 0.725259 0.424418 0.441284
C10   C     C_3   0.360718 0.698337 0.282759 0.763932
H17   H     H_    0.320627 0.675125 0.165776 0.197788
O20   O     O_3   0.436130 0.464210 0.414140 -0.339458
C11   C     C_3   0.565197 0.686352 0.669562 0.167510
H18   H     H_    0.687047 0.670012 0.682435 0.182897
C12   C     C_3   0.555805 0.766682 0.694446 0.003733
H19   H     H_    0.623120 0.796816 0.658665 0.113895
H20   H     H_    0.426933 0.779365 0.689093 0.155085
P7    P     P_3+3 0.451747 0.557225 0.675963 0.428563
O21   O     O_2   0.629420 0.533310 0.672080 -0.355883
O22   O     O_3   0.456671 0.650170 0.705311 -0.595505
H21   H     H_    0.772933 0.814550 0.329641 0.149170
C13   C     C_3   0.854904 0.271210 0.675279 0.181783
H22   H     H_    0.748515 0.284043 0.642653 0.168608
H23   H     H_    0.958560 0.268855 0.642586 0.069787
C14   C     C_3   0.822323 0.197996 0.697806 0.044596
H24   H     H_    0.733611 0.205978 0.738626 0.188807
P8    P     P_3+3 0.424406 0.276729 0.582253 0.489483
C15   C     C_3   0.412019 0.311870 0.721148 0.322963
O23   O     O_2   0.553096 0.239833 0.536689 -0.382362
O24   O     O_3   0.474369 0.259444 0.669708 -0.575714
H25   H     H_    0.450897 0.366900 0.713518 0.085730
H26   H     H_    0.420387 0.341112 0.839406 0.078110
C16   C     C_3   0.479640 0.304166 0.797940 -0.120379
H27   H     H_    0.609225 0.320398 0.804869 0.165414
C17   C     C_R   0.001129 0.953167 0.533144 -0.007324
C18   C     C_R   0.090523 0.908283 0.572280 -0.063144
C19   C     C_R   0.235767 0.936668 0.611060 0.346910
C20   C     C_R   0.298553 0.004207 0.602378 -0.222457
C21   C     C_R   0.210618 0.048493 0.563718 0.069389
C22   C     C_R   0.059653 0.024179 0.530520 0.041347
C23   C     C_R   0.267939 0.118674 0.562694 -0.081287
C24   C     C_R   0.172548 0.168176 0.533590 -0.007440
C25   C     C_R   0.021148 0.144163 0.498258 -0.010852
C26   C     C_R   0.966465 0.071417 0.496118 0.011208
C27   C     C_R   0.221762 0.241526 0.541714 0.280492
C28   C     C_R   0.117392 0.290173 0.516670 -0.442134
C29   C     C_R   0.973413 0.267422 0.475831 0.217054
C30   C     C_R   0.923349 0.192792 0.466498 -0.094780
C31   C     C_R   0.850416 0.928431 0.499248 0.030826
C32   C     C_R   0.793373 0.856455 0.499092 -0.015814
C33   C     C_R   0.890317 0.808024 0.531706 -0.080811
C34   C     C_R   0.034556 0.836301 0.570942 -0.017309
H28   H     H_    0.411869 0.024713 0.630734 0.188446
H29   H     H_    0.152381 0.346715 0.526365 0.195097
H30   H     H_    0.383801 0.135359 0.588984 0.148957
H31   H     H_    0.107140 0.801807 0.598500 0.182798
C35   C     C_R   0.776811 0.165138 0.428994 -0.088211
C36   C     C_R   0.720786 0.093868 0.429062 0.087708
C37   C     C_R   0.815040 0.046989 0.463243 -0.001677
C38   C     C_R   0.756595 0.975860 0.465214 0.023762
C39   C     C_R   0.568949 0.069152 0.397000 -0.111595
C40   C     C_R   0.509449 0.999928 0.400503 -0.178702
C41   C     C_R   0.602436 0.952834 0.434271 0.111599
C42   C     C_R   0.638809 0.833375 0.466311 -0.062008
C43   C     C_R   0.543436 0.883019 0.436666 -0.205807
C44   C     C_R   0.586738 0.760605 0.461491 0.285907
C45   C     C_R   0.693876 0.711416 0.483245 -0.456969
C46   C     C_R   0.839628 0.733215 0.522822 0.238907
H32   H     H_    0.701629 0.198973 0.401477 0.202979
H33   H     H_    0.495056 0.103530 0.369606 0.177048
H34   H     H_    0.390609 0.983028 0.376151 0.160918
H35   H     H_    0.423737 0.867649 0.413328 0.193713
H36   H     H_    0.659407 0.654868 0.471701 0.186620
C47   C     C_R   0.618005 0.521590 0.300176 -0.463288
C48   C     C_R   0.462022 0.495258 0.278350 0.319222
C49   C     C_R   0.399991 0.495972 0.207617 -0.209979
C50   C     C_R   0.492834 0.523719 0.158578 0.021962
C51   C     C_R   0.649166 0.551744 0.182284 -0.101463
C52   C     C_R   0.713203 0.548685 0.252311 0.352708
C53   C     C_R   0.459093 0.574873 0.043857 -0.224995
C54   C     C_R   0.406401 0.569156 0.970553 0.040217
C55   C     C_R   0.328407 0.504504 0.933285 0.134068
C56   C     C_R   0.299363 0.448517 0.971921 -0.204025
C57   C     C_R   0.349559 0.455380 0.044984 -0.049663
C58   C     C_R   0.431705 0.518249 0.081686 0.141645
C59   C     C_R   0.123986 0.464598 0.827579 -0.302448
C60   C     C_R   0.072543 0.460716 0.754582 0.259741
C61   C     C_R   0.328182 0.513711 0.733673 0.263553
C62   C     C_R   0.380636 0.516007 0.806072 -0.283624
C63   C     C_R   0.276845 0.494850 0.854664 0.012941
C64   C     C_R   0.169817 0.490043 0.708829 -0.344017
H37   H     H_    0.500727 0.536677 0.824984 0.178657
H38   H     H_    0.519693 0.624154 0.071830 0.158627
H39   H     H_    0.281353 0.472682 0.190257 0.157134
H40   H     H_    0.240395 0.398488 0.945134 0.158392
H41   H     H_    0.327884 0.410393 0.072325 0.170264
H42   H     H_    0.044803 0.444285 0.862909 0.172558
H43   H     H_    0.722934 0.573917 0.146017 0.148725
H44   H     H_    0.666123 0.521268 0.354805 0.166818
N1    N     N_R   0.795692 0.265317 0.194269 0.259412
O25   O     O_R   0.832291 0.241460 0.129405 -0.308258
O26   O     O_R   0.728005 0.220608 0.229738 -0.378572
N2    N     N_R   0.681246 0.374668 0.175995 0.212138
O27   O     O_R   0.532543 0.352527 0.172684 -0.415904
O28   O     O_R   0.725889 0.409538 0.126355 -0.413971
N3    N     N_3   0.960064 0.374829 0.211842 -0.198561
H45   H     H_    0.985896 0.363102 0.158040 0.175728
H46   H     H_    0.045734 0.349375 0.240064 0.101487
N4    N     N_R   0.353309 0.292456 0.397430 0.205767
O29   O     O_R   0.380880 0.345252 0.450305 -0.336539
O30   O     O_R   0.394408 0.228231 0.405841 -0.483347
N5    N     N_3   0.354113 0.205777 0.243480 -0.128245
H47   H     H_    0.389619 0.240190 0.209001 0.248029
H48   H     H_    0.450368 0.202374 0.280530 0.214061
N6    N     N_R   0.533203 0.698714 0.279138 0.192283
O31   O     O_R   0.603826 0.721352 0.227151 -0.381037
O32   O     O_R   0.616951 0.671656 0.327923 -0.520912
N7    N     N_3   0.524878 0.672777 0.592346 -0.247619
H49   H     H_    0.572551 0.624583 0.570740 0.163312
H50   H     H_    0.400898 0.668939 0.581089 0.190175
N8    N     N_R   0.620807 0.789499 0.769303 0.288454
O33   O     O_R   0.766122 0.772910 0.789008 -0.360216
O34   O     O_R   0.563816 0.846038 0.806456 -0.238371
N9    N     N_3   0.756001 0.143595 0.637466 -0.188736
H51   H     H_    0.782584 0.158350 0.588875 0.114127
H52   H     H_    0.631699 0.142068 0.637730 0.141471
N10   N     N_R   0.967792 0.172079 0.729739 0.295282
O35   O     O_R   0.974950 0.160197 0.795704 -0.235059
O36   O     O_R   0.082554 0.151304 0.689902 -0.366863
N11   N     N_3   0.237525 0.303806 0.714776 -0.143975
H53   H     H_    0.195549 0.334515 0.676650 0.049561
H54   H     H_    0.193944 0.326528 0.763225 0.139473
N12   N     N_R   0.455126 0.230125 0.811407 0.291354
O37   O     O_R   0.572654 0.196917 0.838189 -0.298257
O38   O     O_R   0.312088 0.200652 0.806615 -0.248663
N13   N     N_R   0.313143 0.901962 0.665061 0.220697
O39   O     O_R   0.227882 0.876397 0.710491 -0.368669
O40   O     O_R   0.465410 0.914508 0.681871 -0.377167
N14   N     N_3   0.428775 0.629632 0.934173 -0.198839
H55   H     H_    0.483174 0.672944 0.969330 0.158251
H56   H     H_    0.315667 0.646216 0.918876 0.129708
N15   N     N_3   0.104256 0.496098 0.637458 -0.134790
H57   H     H_    0.140883 0.543776 0.623695 0.132427
H58   H     H_    0.987142 0.511592 0.640761 0.171137
N16   N     N_R   0.946369 0.824518 0.256706 0.299150
O41   O     O_R   0.092602 0.845444 0.249860 -0.368447
O42   O     O_R   0.835061 0.831639 0.206904 -0.270901

loop_
_geom_bond_atom_site_label_1
_geom_bond_atom_site_label_2
_geom_bond_distance
_ccdc_geom_bond_type
C22   C26   1.413443 A    
Ba1   O16   2.782278 S    
C56   C57   1.399446 A    
N5    H48   1.041564 S    
P4    O13   1.573765 S    
P4    O12   1.535019 D    
C2    H4    1.093829 S    
C4    C5    1.566173 S    
C47   C52   1.399929 A    
C61   C64   1.411940 A    
C12   N8    1.470058 S    
C20   C21   1.394808 A    
C29   C30   1.437746 A    
N3    H45   1.047336 S    
C53   C54   1.410524 A    
N9    H52   1.045794 S    
N11   H53   1.046812 S    
C18   C34   1.420839 A    
P5    O18   1.546332 D    
C10   N6    1.458012 S    
C36   C37   1.411223 A    
N10   O36   1.301632 A    
P3    O11   1.763566 S    
P2    Ba1   3.389291 S    
C4    O15   1.399692 S    
C43   H35   1.079465 S    
C8    H14   1.109427 S    
C2    H5    1.101233 S    
C4    H8    1.109173 S    
O6    P6    1.773037 S    
O11   C2    1.415682 S    
C6    C7    1.519939 S    
C25   C30   1.428940 A    
N3    H46   1.042308 S    
C9    H15   1.110619 S    
Ba1   Ba2   4.620834 S    
C34   H31   1.077490 S    
N15   H58   1.040978 S    
N10   O35   1.302238 A    
C12   H20   1.119195 S    
N1    O25   1.300662 A    
C33   C46   1.442840 A    
C11   H18   1.102013 S    
N16   O42   1.304371 A    
P1    O1    1.534649 D    
P7    O22   1.752379 S    
C45   C46   1.400586 A    
C35   C36   1.412896 A    
C31   C38   1.415329 A    
N7    H50   1.046572 S    
C48   C49   1.402607 A    
C14   N10   1.459405 S    
C17   C22   1.424445 A    
O17   Ba2   2.769013 S    
C14   H24   1.110806 S    
C13   H23   1.105026 S    
P2    O10   1.772256 S    
P1    Ba1   3.406556 S    
C5    N1    1.478082 S    
C42   C43   1.412711 A    
O4    P6    1.545480 D    
O14   P8    1.744343 S    
O10   C8    1.409120 S    
C30   C35   1.414529 A    
C1    H2    1.106459 S    
P7    O21   1.579963 D    
O12   Ba2   2.841160 S    
N12   O38   1.299728 A    
P4    C29   1.893059 S    
P8    C27   1.870423 S    
C5    N3    1.472110 S    
N6    O32   1.301004 A    
C42   C44   1.416307 A    
C64   N15   1.444373 S    
N8    O33   1.314560 A    
C60   C64   1.400711 A    
Ba2   O21   2.802823 S    
C57   H41   1.083097 S    
C9    N5    1.470580 S    
C39   C40   1.399206 A    
O3    Ba1   2.783360 S    
Ba1   O20   2.950942 S    
N7    H49   1.042088 S    
N2    O28   1.303501 A    
N11   H54   1.045427 S    
C23   C24   1.406047 A    
P5    O17   1.771506 S    
N2    O27   1.299698 A    
P1    O5    1.769771 S    
C49   H39   1.082595 S    
C7    H13   1.111868 S    
C51   H43   1.083460 S    
C40   H34   1.084111 S    
C16   N12   1.474178 S    
C2    C3    1.536537 S    
C4    H7    1.100910 S    
N9    H51   1.041843 S    
C15   O24   1.415078 S    
C20   H28   1.085085 S    
O2    Ba2   2.819606 S    
C17   C18   1.414300 A    
C8    N4    1.452810 S    
O16   Ba2   2.950075 S    
C17   C31   1.406345 A    
C12   H19   1.125737 S    
C24   C25   1.417602 A    
C11   N7    1.454303 S    
N13   O39   1.301743 A    
C28   H29   1.081572 S    
N16   O41   1.302154 A    
P1    O2    1.573795 S    
C7    H12   1.113495 S    
H26   C16   1.120680 S    
C19   N13   1.431182 S    
C54   N14   1.442552 S    
C6    H9    1.099571 S    
C26   C37   1.403839 A    
C62   H37   1.083998 S    
C13   C14   1.535995 S    
P8    O24   1.762775 S    
C11   O22   1.401176 S    
C33   C34   1.414545 A    
C32   C33   1.430059 A    
C16   H27   1.114933 S    
C1    H3    1.108617 S    
C51   C52   1.404027 A    
C59   C63   1.414010 A    
O14   Ba2   2.782687 S    
N12   O37   1.303821 A    
O3    P6    1.759497 S    
C39   H33   1.080397 S    
C35   H32   1.080632 S    
C36   C39   1.403243 A    
C21   C23   1.400311 A    
P3    O8    1.749139 S    
N6    O31   1.309467 A    
P2    C48   1.841302 S    
C1    C10   1.535680 S    
O6    C10   1.415904 S    
O8    Ba1   2.768341 S    
C61   C62   1.401395 A    
C45   H36   1.080825 S    
C15   C16   1.552225 S    
C50   C51   1.413775 A    
C59   C60   1.406259 A    
C24   C27   1.414436 A    
C55   C63   1.498633 S    
N1    O26   1.304457 A    
C56   H40   1.082360 S    
C25   C26   1.428916 A    
N4    O30   1.305045 A    
C19   C20   1.404859 A    
H1    C10   1.112444 S    
O16   P7    1.758331 S    
C15   H25   1.115421 S    
P8    O23   1.548655 D    
C49   C50   1.410486 A    
C50   C58   1.493013 S    
C57   C58   1.405472 A    
C1    H17   1.115427 S    
C40   C41   1.404304 A    
P5    O19   1.753835 S    
Ba1   O13   2.818999 S    
N15   H57   1.022790 S    
C53   H38   1.083702 S    
P5    C60   1.849988 S    
C23   H30   1.073498 S    
C7    H11   1.108376 S    
C8    C9    1.561366 S    
C47   H44   1.083037 S    
P2    O7    1.536406 D    
C6    H10   1.100769 S    
C47   C48   1.395761 A    
C32   C42   1.420710 A    
C9    H16   1.114579 S    
P3    C52   1.847133 S    
O13   Ba2   2.944655 S    
C53   C58   1.404385 A    
C55   C56   1.406819 A    
C59   H42   1.083195 S    
C41   C43   1.403618 A    
P6    C44   1.870140 S    
C5    N2    1.464323 S    
N8    O34   1.306447 A    
C31   C32   1.427298 A    
C11   C12   1.521401 S    
C62   C63   1.409905 A    
C38   C41   1.406832 A    
Ba2   O20   2.781473 S    
C13   H22   1.105541 S    
C3    N16   1.458816 S    
C37   C38   1.423704 A    
O19   C13   1.403666 S    
N14   H56   1.047051 S    
P2    O20   1.547436 S    
P7    C61   1.833268 S    
C3    H21   1.112327 S    
C18   C19   1.418511 A    
C14   N9    1.467967 S    
C15   N11   1.464882 S    
O5    C6    1.394361 S    
C27   C28   1.405983 A    
O2    Ba1   2.943792 S    
C21   C22   1.402003 A    
P3    O9    1.547294 D    
N5    H47   1.046199 S    
P4    O15   1.758053 S    
C3    H6    1.111861 S    
O1    Ba1   2.840619 S    
N4    O29   1.294066 A    
O7    Ba1   2.802687 S    
C28   C29   1.401891 A    
C44   C45   1.404802 A    
P4    Ba2   3.407182 S    
P1    C46   1.904277 S    
N14   H55   1.036095 S    
C54   C55   1.420041 A    
N13   O40   1.300951 A    
