data_mof_unit_62816.cif
_audit_creation_date              2012-12-11T18:17:46-0500
_audit_creation_method            fapswitch 2.2
_symmetry_space_group_name_H-M    P1
_symmetry_Int_Tables_number       1
_space_group_crystal_system       triclinic
_cell_length_a                    8.154012
_cell_length_b                    14.244408
_cell_length_c                    14.948947
_cell_angle_alpha                 94.786005
_cell_angle_beta                  97.744733
_cell_angle_gamma                 91.546489
_cell_volume                      1713.18386443

loop_
_atom_site_label
_atom_site_type_symbol
_atom_type_description
_atom_site_fract_x
_atom_site_fract_y
_atom_site_fract_z
_atom_type_partial_charge
Ba1   Ba    Ba6+2 0.833410 0.543320 0.453520 1.658731
Ba2   Ba    Ba6+2 0.356410 0.456750 0.546480 1.660752
C1    C     C_3   0.588508 0.900890 0.232014 -0.277552
C2    C     C_3   0.563909 0.800654 0.257822 0.388239
C3    C     C_3   0.457836 0.319017 0.275287 0.305736
C4    C     C_3   0.419745 0.294151 0.173490 -0.374330
C5    C     C_3   0.165709 0.260539 0.805018 0.412058
C6    C     C_3   0.193239 0.233144 0.901971 -0.328760
C7    C     C_3   0.699425 0.211320 0.803679 0.261608
C8    C     C_3   0.635993 0.110727 0.809485 0.079191
C9    C     C_R   0.340297 0.578081 0.169077 -0.005219
C10   C     C_R   0.116138 0.477974 0.208514 0.055362
C11   C     C_R   0.930827 0.469209 0.765970 -0.254016
C12   C     C_3   0.027450 0.751212 0.194993 0.328973
C13   C     C_R   0.843628 0.430557 0.829127 0.016867
C14   C     C_R   0.909810 0.437302 0.920983 -0.081257
C15   C     C_R   0.058901 0.490779 0.953035 0.042070
C16   C     C_R   0.138654 0.536189 0.887667 -0.059492
C17   C     C_R   0.125173 0.505836 0.048074 -0.012230
C18   C     C_R   0.266202 0.569333 0.076025 -0.074954
C19   C     C_R   0.323290 0.622541 0.009694 0.270094
C20   C     C_R   0.269489 0.600612 0.918314 0.002462
C21   C     C_R   0.053568 0.461129 0.116239 -0.101806
C22   C     C_R   0.258589 0.535799 0.233602 -0.291421
C23   C     C_3   0.984649 0.783607 0.100421 0.155700
C24   C     C_R   0.076277 0.523315 0.793330 0.051326
C25   C     C_R   0.709344 0.936373 0.548019 0.002568
C26   C     C_R   0.511393 0.800467 0.496376 0.052883
C27   C     C_R   0.358416 0.767407 0.449281 -0.308140
C28   C     C_R   0.246247 0.829658 0.410946 0.015129
C29   C     C_R   0.291079 0.924543 0.411732 -0.133106
C30   C     C_R   0.447179 0.958722 0.454736 -0.018301
C31   C     C_R   0.557551 0.897793 0.500464 -0.037052
C32   C     C_R   0.644610 0.091385 0.498561 -0.020372
C33   C     C_R   0.755266 0.031604 0.545516 0.013100
C34   C     C_3   0.214092 0.745395 0.643057 0.300713
C35   C     C_R   0.689941 0.187540 0.498742 0.030404
C36   C     C_R   0.841449 0.222981 0.545761 -0.279113
C37   C     C_R   0.955430 0.163183 0.586698 0.005104
C38   C     C_R   0.912116 0.067613 0.587737 -0.095746
C39   C     C_R   0.491780 0.053706 0.453369 -0.041093
C40   C     C_3   0.235120 0.851911 0.662785 -0.354990
C41   C     C_3   0.983402 0.253058 0.354961 0.300667
C42   C     C_3   0.972568 0.146305 0.335112 -0.363823
C43   C     C_3   0.708542 0.683480 0.732538 0.252201
C44   C     C_3   0.681786 0.724394 0.826899 0.048518
H1    H     H_    0.630356 0.795734 0.326859 0.061246
H2    H     H_    0.347260 0.870118 0.712859 0.147951
H3    H     H_    0.248339 0.885624 0.599863 0.050480
H4    H     H_    0.124868 0.879995 0.690604 0.155353
H5    H     H_    0.867294 0.277094 0.377557 -0.002664
H6    H     H_    0.088292 0.271923 0.409283 0.065455
H7    H     H_    0.862094 0.124975 0.284806 0.142667
H8    H     H_    0.962577 0.111683 0.397940 0.045508
H9    H     H_    0.085621 0.121995 0.307631 0.137252
H10   H     H_    0.839697 0.664882 0.732840 0.014863
H11   H     H_    0.626643 0.619961 0.711969 0.079053
H12   H     H_    0.721570 0.918580 0.231683 0.160943
H13   H     H_    0.762403 0.788913 0.846919 0.165398
H14   H     H_    0.550694 0.744025 0.826029 0.126592
H15   H     H_    0.429522 0.787198 0.258122 -0.049603
H16   H     H_    0.540578 0.951750 0.281420 0.050494
H17   H     H_    0.341710 0.339087 0.301468 0.010689
H18   H     H_    0.548131 0.379954 0.287526 0.067253
H19   H     H_    0.323541 0.236195 0.158621 0.144058
H20   H     H_    0.373725 0.356577 0.139538 0.051446
H21   H     H_    0.533717 0.271476 0.146000 0.135466
H22   H     H_    0.520372 0.909037 0.163917 0.191819
H23   H     H_    0.235984 0.327923 0.802355 0.074967
H24   H     H_    0.031634 0.270783 0.785767 -0.121661
H25   H     H_    0.150408 0.289381 0.948308 0.045670
H26   H     H_    0.122760 0.166432 0.906985 0.172405
H27   H     H_    0.326981 0.223341 0.923430 0.139571
H28   H     H_    0.806174 0.227846 0.857781 0.017195
H29   H     H_    0.738796 0.215735 0.735586 0.008446
H30   H     H_    0.584979 0.105530 0.874239 0.117017
H31   H     H_    0.969169 0.679873 0.195762 0.047464
H32   H     H_    0.536648 0.090311 0.752106 0.116429
H33   H     H_    0.311686 0.543303 0.304217 0.072088
H34   H     H_    0.949089 0.411980 0.099932 0.076679
H35   H     H_    0.878876 0.462752 0.695148 0.066137
H36   H     H_    0.835553 0.406237 0.965950 0.071869
H37   H     H_    0.321155 0.642958 0.871741 0.141981
H38   H     H_    0.321777 0.693655 0.447826 0.071682
H39   H     H_    0.203211 0.971699 0.380191 0.084444
H40   H     H_    0.000434 0.021772 0.620784 0.092863
H41   H     H_    0.163808 0.747354 0.209785 -0.042769
H42   H     H_    0.874817 0.297058 0.545935 0.061492
H43   H     H_    0.794714 0.893546 0.586652 0.124703
H44   H     H_    0.405037 0.097343 0.416432 0.093203
H45   H     H_    0.031695 0.733250 0.050074 0.079650
H46   H     H_    0.848228 0.786359 0.083185 0.164846
H47   H     H_    0.328503 0.717656 0.621038 -0.006052
H48   H     H_    0.108652 0.729251 0.588343 0.068840
O1    O     O_2   0.841250 0.444240 0.280450 -0.463178
O2    O     O_3   0.673048 0.755641 0.676089 -0.643761
O3    O     O_3   0.966064 0.815274 0.257656 -0.578496
O4    O     O_2   0.348460 0.555790 0.719610 -0.472212
O5    O     O_3   0.076820 0.552690 0.606290 -0.498469
O6    O     O_3   0.591740 0.384320 0.672310 -0.462539
O7    O     O_3   0.184449 0.706424 0.722361 -0.623732
O8    O     O_3   0.629090 0.386360 0.459240 -0.478226
O9    O     O_3   0.172500 0.335240 0.628910 -0.490674
O10   O     O_2   0.297843 0.169739 0.583749 -0.478628
O11   O     O_3   0.222087 0.189063 0.747551 -0.570754
O12   O     O_3   0.112870 0.447390 0.393710 -0.499835
O13   O     O_3   0.560600 0.613720 0.540760 -0.491775
O14   O     O_2   0.387470 0.270310 0.467210 -0.467324
O15   O     O_3   0.523256 0.240579 0.316491 -0.643009
O16   O     O_2   0.504002 0.451044 0.827917 -0.447843
O17   O     O_3   0.572374 0.273111 0.817693 -0.604217
O18   O     O_3   0.597960 0.615760 0.327700 -0.496997
O19   O     O_2   0.684877 0.556576 0.171564 -0.452830
O20   O     O_3   0.006195 0.293822 0.275547 -0.630462
O21   O     O_3   0.627494 0.736413 0.195739 -0.538646
O22   O     O_2   0.802240 0.729720 0.532850 -0.468783
O23   O     O_3   0.017190 0.664840 0.371090 -0.485868
O24   O     O_2   0.913019 0.832480 0.425677 -0.503510
P1    P     P_3+3 0.018620 0.416870 0.295980 0.982710
P2    P     P_3+3 0.635650 0.716500 0.560900 0.975413
P3    P     P_3+3 0.035989 0.786313 0.367128 0.956390
P4    P     P_3+3 0.171070 0.583210 0.704020 0.979980
P5    P     P_3+3 0.161928 0.213090 0.635182 0.982440
P6    P     P_3+3 0.559041 0.622024 0.211283 1.018041
P7    P     P_3+3 0.561260 0.269003 0.433856 0.937870
P8    P     P_3+3 0.630098 0.384937 0.789768 0.989616
Br1   Br    Br    0.731676 0.638324 0.918237 -0.644942
Br2   Br    Br    0.082667 0.908020 0.093656 -0.501406
Br3   Br    Br    0.813735 0.023611 0.804801 -0.624243
Br4   Br    Br    0.418626 0.747498 0.032318 -0.548664

loop_
_geom_bond_atom_site_label_1
_geom_bond_atom_site_label_2
_ccdc_geom_bond_type
C7    O17   S    
C29   H39   S    
C44   H13   S    
C32   C35   A    
Ba2   O13   S    
C2    O21   S    
C34   C40   S    
C17   C18   A    
C16   C24   A    
O8    P7    S    
O9    P5    S    
Ba1   O5    S    
C5    H24   S    
C8    H32   S    
C5    C6    S    
O10   P5    D    
C43   C44   S    
C25   C31   A    
C10   C21   A    
C3    H17   S    
C35   C36   A    
O6    P8    S    
C26   C27   A    
C23   Br2   S    
C12   H41   S    
O18   P6    S    
Ba1   O18   S    
C36   C37   A    
O12   P1    S    
C41   H6    S    
Ba2   O8    S    
C13   C14   A    
C11   H35   S    
C9    C22   A    
C37   P5    S    
O11   P5    S    
C32   C33   A    
Ba1   P1    S    
C12   H31   S    
C38   H40   S    
O23   P3    S    
O3    P3    S    
C8    H30   S    
C42   H7    S    
C4    H19   S    
C1    H22   S    
C43   H10   S    
C14   C15   A    
C6    H25   S    
C13   P8    S    
C30   C39   A    
C5    O11   S    
C25   H43   S    
Ba1   O22   S    
O14   P7    D    
C7    C8    S    
O20   P1    S    
Ba1   O12   S    
C39   H44   S    
Ba2   O6    S    
C19   C20   A    
C32   C39   A    
C34   H47   S    
C35   P7    S    
Ba2   P4    S    
C9    C18   A    
C23   H45   S    
C6    H26   S    
C44   Br1   S    
C27   H38   S    
C26   P2    S    
C37   C38   A    
Ba1   O23   S    
O1    P1    D    
C2    H15   S    
Ba2   O12   S    
O22   P2    D    
C3    H18   S    
C36   H42   S    
C34   O7    S    
Ba1   P2    S    
C17   C21   A    
C41   C42   S    
C27   C28   A    
C34   H48   S    
C10   P1    S    
C22   H33   S    
C29   C30   A    
C28   P3    S    
C28   C29   A    
Ba1   O1    S    
C43   H11   S    
O17   P8    S    
C14   H36   S    
C15   C16   A    
C40   H2    S    
O16   P8    D    
O5    P4    S    
O15   P7    S    
C4    H21   S    
C40   H4    S    
C26   C31   A    
C11   C13   A    
C21   H34   S    
C11   C24   A    
C7    H28   S    
C1    C2    S    
O13   P2    S    
C12   O3    S    
C1    H16   S    
O4    P4    D    
C23   H46   S    
O21   P6    S    
C44   H14   S    
C16   C20   A    
O2    P2    S    
C5    H23   S    
C24   P4    S    
C10   C22   A    
O7    P4    S    
C25   C33   A    
C20   H37   S    
Ba2   O5    S    
C8    Br3   S    
C41   O20   S    
C30   C31   A    
C42   H9    S    
C41   H5    S    
C3    C4    S    
O19   P6    D    
C3    O15   S    
Ba2   O9    S    
Ba1   Ba2   S    
Ba2   O14   S    
C6    H27   S    
C15   C17   A    
C33   C38   A    
C12   C23   S    
C19   Br4   S    
C40   H3    S    
Ba1   O13   S    
C1    H12   S    
C42   H8    S    
C4    H20   S    
C18   C19   A    
Ba2   O4    S    
C7    H29   S    
C9    P6    S    
C43   O2    S    
Ba1   O8    S    
O24   P3    D    
C2    H1    S    
