data_mof_unit_30789.cif
_audit_creation_date              2012-12-11T21:20:27-0500
_audit_creation_method            fapswitch 2.2
_symmetry_space_group_name_H-M    P1
_symmetry_Int_Tables_number       1
_space_group_crystal_system       triclinic
_cell_length_a                    8.2281
_cell_length_b                    18.817251
_cell_length_c                    19.48515
_cell_angle_alpha                 105.912715
_cell_angle_beta                  94.711687
_cell_angle_gamma                 89.957827
_cell_volume                      2890.73288561

loop_
_atom_site_label
_atom_site_type_symbol
_atom_type_description
_atom_site_fract_x
_atom_site_fract_y
_atom_site_fract_z
_atom_type_partial_charge
Ba1   Ba    Ba6+2 0.155460 0.532000 0.467920 1.790367
Ba2   Ba    Ba6+2 0.654730 0.467990 0.532020 1.822149
C1    C     C_3   0.324075 0.706614 0.220306 -0.317800
C2    C     C_R   0.071161 0.912995 0.585396 -0.067625
C3    C     C_R   0.201235 0.056890 0.579822 -0.076720
C4    C     C_3   0.893040 0.725754 0.334993 0.365364
C5    C     C_R   0.044523 0.029603 0.548148 0.013441
C6    C     C_R   0.261704 0.124971 0.577138 -0.066207
C7    C     C_R   0.169405 0.169576 0.542859 -0.098054
C8    C     C_R   0.011059 0.144346 0.509924 0.000107
C9    C     C_R   0.948944 0.073931 0.512259 0.042837
C10   C     C_R   0.235581 0.235637 0.534570 -0.043645
C11   C     C_R   0.149512 0.268586 0.487606 0.141837
C12   C     C_3   0.363798 0.684799 0.289366 0.328154
C13   C     C_R   0.982204 0.258078 0.469619 -0.051269
C14   C     C_R   0.917201 0.188856 0.472966 -0.082025
C15   C     C_R   0.830058 0.931742 0.512490 0.035142
C16   C     C_3   0.907818 0.800493 0.319866 -0.330492
C17   C     C_R   0.774162 0.858447 0.508787 0.016006
C18   C     C_R   0.872523 0.811652 0.540486 -0.024110
C19   C     C_R   0.016258 0.841895 0.581635 0.030472
C20   C     C_R   0.771076 0.158955 0.434369 0.027772
C21   C     C_R   0.709545 0.090850 0.437041 -0.070170
C22   C     C_R   0.793806 0.047610 0.477018 0.003561
C23   C     C_3   0.574466 0.708865 0.727359 0.654757
C24   C     C_R   0.731856 0.977350 0.479313 0.023898
C25   C     C_R   0.573323 0.951053 0.449873 -0.090271
C26   C     C_R   0.619257 0.832110 0.473727 -0.019501
C27   C     C_R   0.518813 0.880293 0.447125 -0.085723
C28   C     C_3   0.916665 0.339636 0.302701 0.241574
C29   C     C_R   0.569322 0.758363 0.466698 0.032195
C30   C     C_R   0.673836 0.711368 0.492659 -0.226160
C31   C     C_R   0.822823 0.736526 0.530510 0.047216
C32   C     C_R   0.375765 0.540194 0.811254 -0.100608
C33   C     C_R   0.324685 0.531466 0.738085 -0.036480
C34   C     C_3   0.598279 0.718739 0.808050 -0.266934
C35   C     C_R   0.136362 0.475660 0.824273 -0.045248
C36   C     C_R   0.083825 0.467694 0.752634 0.034033
C37   C     C_R   0.610106 0.561277 0.197538 -0.177223
C38   C     C_R   0.690372 0.554429 0.261404 0.039129
C39   C     C_R   0.421886 0.464276 0.199807 -0.093429
C40   C     C_3   0.933012 0.287945 0.228880 -0.143959
C41   C     C_R   0.473022 0.474851 0.273277 -0.011970
C42   C     C_R   0.297203 0.500515 0.852834 0.041155
C43   C     C_R   0.183512 0.490735 0.708528 -0.248776
C44   C     C_R   0.488025 0.508664 0.159390 0.038424
C45   C     C_3   0.941729 0.286862 0.680497 0.354744
C46   C     C_R   0.613884 0.516395 0.301876 -0.222415
C47   C     C_R   0.172493 0.389034 0.926924 -0.110648
C48   C     C_R   0.062030 0.359918 0.962029 -0.075968
C49   C     C_R   0.047570 0.391773 0.034137 0.381084
C50   C     C_R   0.162414 0.446300 0.073312 -0.169421
C51   C     C_R   0.295032 0.466465 0.039887 -0.000287
C52   C     C_3   0.022879 0.648345 0.694278 0.312899
C53   C     C_R   0.276150 0.449651 0.963544 0.052727
C54   C     C_R   0.446621 0.497702 0.077862 0.058086
C55   C     C_R   0.568174 0.512788 0.034050 0.063439
C56   C     C_3   0.939533 0.214409 0.700704 -0.257982
C57   C     C_R   0.526347 0.514613 0.961228 -0.008008
C58   C     C_R   0.368141 0.489426 0.926256 0.049470
C59   C     C_R   0.735441 0.522913 0.059587 -0.137345
C60   C     C_R   0.844903 0.556090 0.027171 -0.133102
C61   C     C_R   0.799523 0.566425 0.960973 0.382011
C62   C     C_R   0.651940 0.535677 0.924844 -0.167303
C63   C     C_3   0.094630 0.687737 0.769891 0.585558
C64   C     C_3   0.480068 0.302471 0.258589 0.371473
C65   C     C_3   0.411639 0.273112 0.180101 0.174285
C66   C     C_3   0.444757 0.328714 0.717392 0.441455
C67   C     C_3   0.401400 0.305155 0.782713 0.401600
C68   C     C_R   0.983926 0.958476 0.548813 0.004631
F1    F     F_    0.976400 0.727951 0.808965 -0.624581
H1    H     H_    0.309291 0.629039 0.282862 0.074899
H2    H     H_    0.581482 0.342328 0.261904 -0.181109
H3    H     H_    0.190145 0.709925 0.209547 0.164145
H4    H     H_    0.500737 0.285232 0.144700 0.056738
H5    H     H_    0.296492 0.300449 0.170099 0.036709
H6    H     H_    0.498264 0.683394 0.298803 -0.063612
H7    H     H_    0.371062 0.664995 0.174561 0.074195
H8    H     H_    0.677900 0.679510 0.700220 0.025138
H9    H     H_    0.639546 0.666383 0.818186 0.095852
H10   H     H_    0.692039 0.762213 0.833961 0.227144
H11   H     H_    0.482341 0.734602 0.833098 0.091956
H12   H     H_    0.816666 0.285004 0.195046 0.154372
H13   H     H_    0.381497 0.761271 0.224775 0.126306
H14   H     H_    0.856956 0.843970 0.362920 0.061559
H15   H     H_    0.883751 0.277178 0.625062 0.041055
H16   H     H_    0.070913 0.305025 0.682521 -0.115385
H17   H     H_    0.812887 0.191973 0.694034 0.189671
H18   H     H_    0.014709 0.173355 0.665990 0.062660
H19   H     H_    0.990190 0.223208 0.757057 0.135266
H20   H     H_    0.338357 0.358451 0.700941 -0.262389
H21   H     H_    0.550089 0.367650 0.732931 0.084076
H22   H     H_    0.409783 0.355052 0.828644 -0.076504
H23   H     H_    0.033903 0.308259 0.204625 0.143316
H24   H     H_    0.962793 0.728327 0.386929 0.066732
H25   H     H_    0.275428 0.281562 0.772978 -0.032848
H26   H     H_    0.384982 0.140519 0.599738 0.142650
H27   H     H_    0.089726 0.811037 0.611398 0.121647
H28   H     H_    0.704681 0.186758 0.399589 0.136675
H29   H     H_    0.396587 0.863980 0.423350 0.105856
H30   H     H_    0.635116 0.654871 0.486431 0.061206
H31   H     H_    0.283967 0.025956 0.605577 0.107835
H32   H     H_    0.183328 0.930643 0.618212 0.105049
H33   H     H_    0.597421 0.072238 0.404426 0.087823
H34   H     H_    0.961150 0.231206 0.231979 0.174464
H35   H     H_    0.762147 0.714828 0.339025 -0.109523
H36   H     H_    0.486363 0.984416 0.429129 0.078583
H37   H     H_    0.466167 0.582441 0.835388 0.054359
H38   H     H_    0.046200 0.464094 0.856989 0.091434
H39   H     H_    0.656606 0.602542 0.174602 0.071355
H40   H     H_    0.335852 0.420042 0.175614 0.044257
H41   H     H_    0.144071 0.482813 0.652514 0.055403
H42   H     H_    0.668073 0.516177 0.354342 0.041819
H43   H     H_    0.171420 0.363903 0.870352 0.065533
H44   H     H_    0.983090 0.314124 0.932082 0.129046
H45   H     H_    0.118558 0.616962 0.663350 -0.097187
H46   H     H_    0.037764 0.814589 0.317377 0.150565
H47   H     H_    0.147282 0.472117 0.128805 0.140804
H48   H     H_    0.784783 0.507223 0.105843 0.168497
H49   H     H_    0.965494 0.572648 0.053395 0.124902
H50   H     H_    0.645868 0.523474 0.868064 0.136567
H51   H     H_    0.838957 0.799083 0.268026 0.129878
H52   H     H_    0.862447 0.392392 0.298096 0.029105
H53   H     H_    0.039197 0.351202 0.330375 0.154184
H54   H     H_    0.363984 0.166746 0.041521 0.361511
H55   H     H_    0.332584 0.835510 0.741826 0.343540
H56   H     H_    0.923558 0.609497 0.696849 0.016113
H57   H     H_    0.784806 0.238380 0.847486 0.365679
H58   H     H_    0.144702 0.185966 0.340746 0.340030
H59   H     H_    0.731032 0.364417 0.983180 0.331882
H60   H     H_    0.746190 0.708603 0.952417 0.317871
H61   H     H_    0.193387 0.726817 0.767810 0.029385
H62   H     H_    0.144728 0.647636 0.797734 0.001990
H63   H     H_    0.535692 0.256763 0.277504 0.145648
O1    O     O_2   0.114280 0.679350 0.549180 -0.444569
O2    O     O_2   0.744361 0.472654 0.749594 -0.468991
O3    O     O_3   0.853938 0.339047 0.728655 -0.566048
O4    O     O_3   0.866400 0.589600 0.543550 -0.512298
O5    O     O_3   0.444420 0.455520 0.411210 -0.410531
O6    O     O_2   0.612810 0.550740 0.677950 -0.473845
O7    O     O_3   0.424194 0.672968 0.699306 -0.690011
O8    O     O_2   0.580217 0.245958 0.537443 -0.452148
O9    O     O_3   0.484935 0.267001 0.663112 -0.599834
O10   O     O_3   0.362150 0.623490 0.415650 -0.499438
O11   O     O_2   0.236393 0.752727 0.477521 -0.471535
O12   O     O_3   0.355220 0.331762 0.302978 -0.533595
O13   O     O_3   0.961264 0.702357 0.663260 -0.609243
O14   O     O_3   0.298536 0.736885 0.345829 -0.610959
O15   O     O_2   0.197490 0.449210 0.322030 -0.478583
O16   O     O_3   0.950520 0.583920 0.376610 -0.495175
O17   O     O_2   0.023393 0.530089 0.244897 -0.463829
O18   O     O_2   0.259357 0.156117 0.203421 -0.225843
O19   O     O_2   0.530931 0.135979 0.159447 -0.255439
O20   O     O_3   0.287331 0.148898 0.070091 -0.403154
O21   O     O_2   0.739018 0.831948 0.725269 -0.222284
O22   O     O_2   0.512729 0.789200 0.633319 -0.342465
O23   O     O_3   0.956643 0.671366 0.279524 -0.597104
O24   O     O_3   0.443669 0.853037 0.763304 -0.450944
O25   O     O_2   0.470919 0.220639 0.870761 -0.234900
O26   O     O_2   0.536122 0.170118 0.746580 -0.270897
O27   O     O_3   0.722445 0.276209 0.830491 -0.533063
O28   O     O_2   0.259289 0.362973 0.434549 -0.289420
O29   O     O_2   0.422621 0.250982 0.417990 -0.292721
O30   O     O_3   0.152518 0.238578 0.341020 -0.554280
O31   O     O_2   0.937550 0.277580 0.072022 -0.244670
O32   O     O_2   0.885992 0.400974 0.150146 -0.355468
O33   O     O_3   0.710787 0.353990 0.028873 -0.472800
O34   O     O_2   0.696020 0.320600 0.450800 -0.395788
O35   O     O_2   0.098112 0.616328 0.949795 -0.288637
O36   O     O_2   0.897834 0.598311 0.845325 -0.330843
O37   O     O_3   0.866937 0.710308 0.955475 -0.410555
O38   O     O_3   0.943900 0.410390 0.456390 -0.484375
O39   O     O_3   0.448150 0.376500 0.584290 -0.439625
O40   O     O_3   0.815491 0.304628 0.338005 -0.639687
O41   O     O_3   0.365880 0.544470 0.588730 -0.424176
O42   O     O_3   0.859790 0.416060 0.623340 -0.503548
P1    P     P_3+3 0.941030 0.670050 0.569830 1.019953
P2    P     P_3+3 0.370400 0.428500 0.331430 1.102177
P3    P     P_3+3 0.904203 0.584593 0.288524 0.966558
P4    P     P_3+3 0.869270 0.329940 0.430110 1.071143
P5    P     P_3+3 0.884934 0.425685 0.714791 0.986444
P6    P     P_3+3 0.367159 0.718706 0.426599 0.971595
P7    P     P_3+3 0.432118 0.576162 0.680176 0.928295
P8    P     P_3+3 0.435400 0.281359 0.579009 1.052981
S1    S     S_3+6 0.373444 0.175565 0.154685 0.009175
S2    S     S_3+6 0.570504 0.797545 0.710345 -0.030167
S3    S     S_3+6 0.533596 0.239354 0.807375 -0.026128
S4    S     S_3+6 0.254611 0.281209 0.419653 -0.090522
S5    S     S_3+6 0.894924 0.355733 0.074121 -0.106997
S6    S     S_3+6 0.921682 0.621797 0.925514 -0.069167

loop_
_geom_bond_atom_site_label_1
_geom_bond_atom_site_label_2
_ccdc_geom_bond_type
O8    P8    D    
C41   P2    S    
C2    C19   A    
O40   P4    S    
C59   H48   S    
C17   C18   A    
C30   H30   S    
C40   H34   S    
C67   H25   S    
C4    O23   S    
C5    C68   A    
C2    C68   A    
C43   H41   S    
C52   C63   S    
H54   O20   S    
C5    C9    A    
H60   O37   S    
C57   C62   A    
C60   C61   A    
C36   P5    S    
O19   S1    D    
Ba2   O5    S    
C26   C27   A    
C22   C24   A    
C32   C33   A    
C67   H22   S    
Ba2   O39   S    
C48   H44   S    
C55   C57   A    
O16   P3    S    
O3    P5    S    
C33   P7    S    
C13   C14   A    
C2    H32   S    
C12   O14   S    
C9    C22   A    
C66   H20   S    
C54   C55   A    
O12   P2    S    
C66   O9    S    
Ba1   Ba2   S    
O23   P3    S    
C12   H6    S    
O25   S3    D    
C1    H3    S    
O15   P2    D    
C36   C43   A    
Ba2   O42   S    
C64   H63   S    
Ba1   P1    S    
H59   O33   S    
C37   H39   S    
C29   C30   A    
O39   P8    S    
C34   H11   S    
C66   C67   S    
C52   H45   S    
O2    P5    D    
O31   S5    D    
C39   C44   A    
Ba1   O15   S    
C7    C8    A    
C67   S3    S    
C35   H38   S    
Ba1   O5    S    
C53   C58   A    
O38   P4    S    
C51   C53   A    
C64   C65   S    
C15   C68   A    
C11   S4    S    
C40   H23   S    
C13   P4    S    
C39   C41   A    
Ba2   P4    S    
O35   S6    D    
O33   S5    S    
O24   S2    S    
C7    C10   A    
H55   O24   S    
C4    H35   S    
O42   P5    S    
C4    C16   S    
O20   S1    S    
O10   P6    S    
O6    P7    D    
C31   P1    S    
C49   C50   A    
Ba2   O4    S    
C45   H15   S    
C32   C42   A    
O1    P1    D    
C34   H9    S    
C37   C38   A    
C3    C5    A    
C6    C7    A    
C49   S5    S    
C63   F1    S    
C64   H2    S    
O11   P6    D    
H58   O30   S    
O29   S4    D    
O7    P7    S    
C45   H16   S    
C6    H26   S    
C35   C36   A    
O34   P4    D    
Ba2   O41   S    
C52   O13   S    
C38   P3    S    
Ba1   P2    S    
O13   P1    S    
O17   P3    D    
C21   H33   S    
C25   H36   S    
C34   H10   S    
C21   C22   A    
C45   O3    S    
C48   C49   A    
C24   C25   A    
Ba1   O16   S    
C28   H52   S    
C17   C26   A    
C56   H19   S    
C16   H46   S    
C1    C12   S    
C16   H51   S    
C37   C44   A    
C18   C31   A    
O14   P6    S    
C28   H53   S    
C4    H24   S    
C8    C9    A    
C11   C13   A    
C29   P6    S    
C65   H4    S    
C15   C24   A    
C15   C17   A    
C33   C43   A    
Ba2   O34   S    
C63   H61   S    
C50   C51   A    
O41   P7    S    
C41   C46   A    
C51   C54   A    
C38   C46   A    
C3    H31   S    
Ba1   O41   S    
C14   C20   A    
C20   H28   S    
C27   H29   S    
C16   H14   S    
C23   H8    S    
C12   H1    S    
C26   C29   A    
C23   O7    S    
C40   H12   S    
O18   S1    D    
O30   S4    S    
O21   S2    D    
C56   H17   S    
C3    C6    A    
C55   C59   A    
O22   S2    D    
C61   S6    S    
C52   H56   S    
O36   S6    D    
Ba1   O38   S    
O32   S5    D    
Ba2   O6    S    
O9    P8    S    
C35   C42   A    
C32   H37   S    
C60   H49   S    
O27   S3    S    
Ba1   O10   S    
C47   C53   A    
C30   C31   A    
C45   C56   S    
O28   S4    D    
C19   H27   S    
O4    P1    S    
C10   P8    S    
C25   C27   A    
C42   C58   S    
H57   O27   S    
C66   H21   S    
C47   H43   S    
C59   C60   A    
C56   H18   S    
C64   O12   S    
C23   S2    S    
C23   C34   S    
C61   C62   A    
C65   S1    S    
C57   C58   A    
C10   C11   A    
O37   S6    S    
C18   C19   A    
C47   C48   A    
C39   H40   S    
C44   C54   S    
C1    H13   S    
O5    P2    S    
C20   C21   A    
C28   C40   S    
C8    C14   A    
C65   H5    S    
O26   S3    D    
Ba1   O1    S    
C1    H7    S    
C28   O40   S    
C63   H62   S    
Ba1   O4    S    
C62   H50   S    
Ba2   O38   S    
C46   H42   S    
C50   H47   S    
