data_mof_unit_25460.cif
_audit_creation_date              2012-12-11T17:37:56-0500
_audit_creation_method            fapswitch 2.2
_symmetry_space_group_name_H-M    P1
_symmetry_Int_Tables_number       1
_space_group_crystal_system       triclinic
_cell_length_a                    12.952743
_cell_length_b                    13.011744
_cell_length_c                    15.32929
_cell_angle_alpha                 116.108647
_cell_angle_beta                  64.112497
_cell_angle_gamma                 96.856176
_cell_volume                      2078.65864359

loop_
_atom_site_label
_atom_site_type_symbol
_atom_type_description
_atom_site_fract_x
_atom_site_fract_y
_atom_site_fract_z
_atom_type_partial_charge
C1    C     C_R   0.003110 0.833544 0.048929 0.615918
C2    C     C_R   0.674338 0.532109 0.322231 0.160740
C3    C     C_R   0.664418 0.451626 0.921669 -0.288555
C4    C     C_R   0.073545 0.790436 0.301818 0.035010
C5    C     C_R   0.338634 0.520166 0.955629 0.769179
C6    C     C_R   0.962981 0.179970 0.782126 -0.125135
C7    C     C_R   0.198211 0.509997 0.695814 -0.148554
C8    C     C_R   0.055063 0.254349 0.085582 -0.118849
C9    C     C_R   0.955299 0.170727 0.990740 -0.125921
C10   C     C_R   0.295700 0.598741 0.793598 -0.028956
C11   C     C_R   0.259319 0.416672 0.048470 -0.238689
C12   C     C_R   0.679602 0.464255 0.220513 -0.014613
C13   C     C_R   0.044856 0.279963 0.684611 -0.047716
C14   C     C_R   0.362515 0.436235 0.977631 0.019230
C15   C     C_R   0.024745 0.171708 0.679927 0.092652
C16   C     C_R   0.291783 0.571080 0.698138 0.111531
C17   C     C_R   0.014159 0.150247 0.039481 0.268749
C18   C     C_R   0.429120 0.717811 0.210301 0.744300
C19   C     C_R   0.317403 0.765274 0.287794 -0.498967
C20   C     C_R   0.284736 0.881919 0.326084 -0.156157
C21   C     C_R   0.366272 0.950345 0.285584 0.731808
C22   C     C_R   0.478090 0.902395 0.208217 -0.503472
C23   C     C_R   0.756798 0.512320 0.888904 1.025292
C24   C     C_R   0.509544 0.786409 0.170729 0.638096
C25   C     C_R   0.150241 0.028271 0.504767 -0.130250
C26   C     C_R   0.038713 0.071202 0.585397 -0.027383
C27   C     C_R   0.940935 0.020143 0.573802 -0.101018
C28   C     C_R   0.956372 0.927146 0.479022 0.742351
C29   C     C_R   0.067582 0.883433 0.398198 -0.189231
C30   C     C_R   0.166287 0.931975 0.409678 0.133993
C31   C     C_R   0.765198 0.017550 0.730145 -0.215459
C32   C     C_R   0.647554 0.046046 0.797872 -0.037621
C33   C     C_R   0.584134 0.117242 0.788684 -0.219405
C34   C     C_R   0.015949 0.696053 0.301404 -0.016927
C35   C     C_R   0.638654 0.161345 0.712817 -0.286015
C36   C     C_R   0.757053 0.136182 0.647260 0.865210
C37   C     C_R   0.820985 0.063619 0.655384 -0.046121
C38   C     C_R   0.858919 0.335975 0.390414 0.625507
C39   C     C_R   0.756309 0.375311 0.400701 -0.432097
C40   C     C_R   0.698711 0.481978 0.484693 -0.015098
C41   C     C_R   0.743822 0.546897 0.559272 -0.373593
C42   C     C_R   0.845730 0.506847 0.549058 0.655756
C43   C     C_R   0.903557 0.401638 0.464484 0.510142
C44   C     C_R   0.493748 0.541712 0.590654 -0.226533
C45   C     C_R   0.677949 0.418887 0.989448 -0.191112
C46   C     C_R   0.386876 0.578835 0.608354 0.015363
C47   C     C_R   0.373924 0.607891 0.535355 -0.046432
C48   C     C_R   0.471033 0.592726 0.440748 0.704173
C49   C     C_R   0.577171 0.550439 0.421582 -0.198504
C50   C     C_R   0.589535 0.526097 0.497867 0.106320
C51   C     C_R   0.215745 0.603687 0.482202 -0.085412
C52   C     C_R   0.114198 0.652061 0.499144 -0.147873
C53   C     C_R   0.058390 0.753686 0.590774 -0.268087
C54   C     C_R   0.103452 0.806522 0.666463 0.675990
C55   C     C_R   0.205275 0.758448 0.650004 0.599241
C56   C     C_R   0.097369 0.797664 0.208433 0.059416
C57   C     C_R   0.262543 0.656560 0.557168 -0.145923
C58   C     C_2   0.474287 0.395914 0.954202 -0.371794
C59   C     C_2   0.571118 0.423178 0.889913 0.849317
C60   C     C_2   0.838793 0.958801 0.078977 0.775429
C61   C     C_2   0.815093 0.036810 0.179375 -0.146048
C62   C     C_R   0.783474 0.556316 0.313857 -0.102701
C63   C     C_R   0.905260 0.749147 0.951872 0.831342
C64   C     C_R   0.917064 0.854018 0.025642 -0.446430
H1    H     H_    0.256635 0.711297 0.318645 0.217281
H2    H     H_    0.812483 0.958186 0.734643 0.183640
H3    H     H_    0.700230 0.628964 0.624918 0.229178
H4    H     H_    0.501909 0.517731 0.647023 0.202784
H5    H     H_    0.258106 0.525093 0.410471 0.192555
H6    H     H_    0.979964 0.791055 0.603234 0.174125
H7    H     H_    0.990226 0.661888 0.359863 0.071437
H8    H     H_    0.473343 0.367123 0.010931 0.156329
N1    N     N_R   0.037320 0.720000 0.995830 -0.144896
N2    N     N_R   0.946240 0.290870 0.848020 -0.066772
N3    N     N_R   0.146160 0.501170 0.788610 -0.060402
N4    N     N_R   0.025750 0.332680 0.063570 -0.057755
N5    N     N_R   0.962680 0.280000 0.004170 -0.059247
N6    N     N_R   0.209230 0.553860 0.848010 -0.073641
N7    N     N_R   0.175100 0.482030 0.063570 -0.088702
N8    N     N_R   0.996810 0.351820 0.788610 -0.070023
N9    N     N_R   0.790770 0.446140 0.151990 -0.059837
N10   N     N_R   0.824900 0.517970 0.936430 -0.136070
N11   N     N_R   0.003190 0.648180 0.211390 -0.053422
N12   N     N_R   0.774330 0.457010 0.995830 -0.076415
N13   N     N_R   0.053760 0.709130 0.151980 -0.062024
N14   N     N_R   0.853840 0.498830 0.211390 -0.060430
N15   N     N_R   0.974250 0.667320 0.936430 -0.177433
N16   N     N_R   0.225670 0.542990 0.004170 -0.137657
Ni1   Ni    Ni4+2 0.130310 0.630310 0.000000 0.263937
Ni2   Ni    Ni4+2 0.869690 0.369690 0.000000 0.218383
Ni3   Ni    Ni4+2 0.985660 0.509480 0.863750 0.304373
Ni4   Ni    Ni4+2 0.014340 0.490520 0.136250 0.203487
F1    F     F_    0.046665 0.914469 0.113177 -0.686536
H9    H     H_    0.928255 0.111475 0.804851 0.157208
H10   H     H_    0.165620 0.482902 0.635726 0.154111
H11   H     H_    0.093137 0.272880 0.140497 0.157818
H12   H     H_    0.901795 0.112058 0.957530 0.186232
H13   H     H_    0.350901 0.657406 0.824609 0.193499
H14   H     H_    0.248961 0.362524 0.087925 0.160004
H15   H     H_    0.084402 0.303837 0.618624 0.165403
F2    F     F_    0.618236 0.740790 0.096384 -0.643298
F3    F     F_    0.459492 0.605383 0.174337 -0.654311
H16   H     H_    0.609632 0.427035 0.199753 0.146248
F4    F     F_    0.337211 0.062768 0.319552 -0.659530
H17   H     H_    0.540484 0.955286 0.177242 0.254974
H18   H     H_    0.224005 0.068758 0.517149 0.167250
F5    F     F_    0.861875 0.881129 0.463969 -0.688955
H19   H     H_    0.605047 0.010813 0.855738 0.170445
H20   H     H_    0.492521 0.137327 0.839599 0.175018
H21   H     H_    0.588785 0.214296 0.704199 0.199027
F6    F     F_    0.808388 0.178352 0.572938 -0.652858
F7    F     F_    0.002772 0.363104 0.454461 -0.610884
F8    F     F_    0.791948 0.529901 0.799798 -0.576709
F9    F     F_    0.915350 0.234059 0.308625 -0.652188
H22   H     H_    0.722226 0.323489 0.343154 0.206205
F10   F     F_    0.888354 0.570327 0.621352 -0.586382
F11   F     F_    0.463527 0.622361 0.368853 -0.674055
H23   H     H_    0.078817 0.610329 0.441120 0.142955
F12   F     F_    0.048857 0.905045 0.755444 -0.680703
F13   F     F_    0.249636 0.812826 0.722771 -0.665306
F14   F     F_    0.577188 0.443698 0.808199 -0.624990
F15   F     F_    0.779655 0.970975 0.029043 -0.646562
H24   H     H_    0.854324 0.028962 0.226064 0.214112
H25   H     H_    0.634711 0.354367 0.015599 0.137149
H26   H     H_    0.152464 0.856094 0.180002 0.179464
H27   H     H_    0.809192 0.605560 0.377816 0.134941
F16   F     F_    0.831430 0.730981 0.906823 -0.559261
F17   F     F_    0.412861 0.586973 0.914585 -0.671716

loop_
_geom_bond_atom_site_label_1
_geom_bond_atom_site_label_2
_ccdc_geom_bond_type
C59   F14   S    
C31   H2    S    
C23   N10   A    
N15   Ni3   S    
C41   C42   A    
C3    C23   A    
C19   C20   A    
C8    H11   S    
C2    C12   A    
C10   N6    A    
C41   H3    S    
C20   C30   S    
C53   C54   A    
N11   Ni4   S    
C62   N14   A    
C26   C27   A    
C18   C24   A    
C28   C29   A    
C18   C19   A    
C38   C39   A    
C38   F9    S    
C11   C14   A    
C40   C50   S    
C47   C57   S    
C28   F5    S    
C8    N4    A    
C11   H14   S    
C24   F2    S    
C18   F3    S    
C10   H13   S    
N1    N15   A    
C6    C15   A    
C54   C55   A    
C21   F4    S    
C35   C36   A    
C6    H9    S    
C51   C57   A    
C4    C29   S    
N3    Ni3   S    
N16   Ni1   S    
C13   N8    A    
C45   H25   S    
N2    N8    A    
C21   C22   A    
C4    C56   A    
C5    N16   A    
N12   Ni2   S    
C53   H6    S    
N7    N16   A    
C44   C46   A    
C25   H18   S    
C6    N2    A    
C55   F13   S    
N6    Ni1   S    
C14   C58   S    
C4    C34   A    
N5    Ni2   S    
C51   C52   A    
N4    N5    A    
C12   H16   S    
C34   N11   A    
C16   C46   S    
C39   C40   A    
C62   H27   S    
N13   Ni1   S    
C15   C26   S    
C7    N3    A    
C58   C59   D    
C3    C45   A    
N10   Ni3   S    
C31   C37   A    
C60   C61   D    
C29   C30   A    
C2    C49   S    
C23   F8    S    
C47   C48   A    
C36   F6    S    
N7    Ni4   S    
C9    N5    A    
C56   H26   S    
C9    C17   A    
C60   F15   S    
C5    C14   A    
C35   H21   S    
C11   N7    A    
N4    Ni4   S    
N9    Ni2   S    
C42   F10   S    
C40   C41   A    
N11   N13   A    
C13   H15   S    
N10   N12   A    
C13   C15   A    
C32   H19   S    
C22   C24   A    
C44   H4    S    
C45   N12   A    
C33   H20   S    
C43   F7    S    
C1    C64   A    
C52   C53   A    
C44   C50   A    
C25   C30   A    
C46   C47   A    
C36   C37   A    
C9    H12   S    
C63   N15   A    
C31   C32   A    
C7    C16   A    
N9    N14   A    
C48   F11   S    
C22   H17   S    
C7    H10   S    
C39   H22   S    
C8    C17   A    
C60   C64   S    
C61   H24   S    
C1    N1    A    
C32   C33   A    
N2    Ni2   S    
N8    Ni3   S    
C55   C57   A    
C25   C26   A    
N1    Ni1   S    
C38   C43   A    
N14   Ni4   S    
C58   H8    S    
C56   N13   A    
C27   C37   S    
C48   C49   A    
C5    F17   S    
C33   C35   A    
C12   N9    A    
C19   H1    S    
N3    N6    A    
C63   C64   A    
C20   C21   A    
C1    F1    S    
C49   C50   A    
C42   C43   A    
C27   C28   A    
C10   C16   A    
C51   H5    S    
C54   F12   S    
C34   H7    S    
C63   F16   S    
C2    C62   A    
C52   H23   S    
C3    C59   S    
