data_mof_unit_35503.cif
_audit_creation_date              2012-10-26T18:51:47-0400
_audit_creation_method            fapswitch 2.2
_symmetry_space_group_name_H-M    P1
_symmetry_Int_Tables_number       1
_space_group_crystal_system       triclinic
_cell_length_a                    11.707238
_cell_length_b                    14.679807
_cell_length_c                    14.789338
_cell_angle_alpha                 64.418074
_cell_angle_beta                  103.324579
_cell_angle_gamma                 103.030399
_cell_volume                      2207.72573249

loop_
_atom_site_label
_atom_site_type_symbol
_atom_type_description
_atom_site_fract_x
_atom_site_fract_y
_atom_site_fract_z
_atom_type_partial_charge
C1    C     C_R   0.478914 0.120431 0.312023 0.545191
C2    C     C_R   0.497779 0.618567 0.099725 -0.090395
C3    C     C_R   0.711554 0.290526 0.655546 -0.144548
C4    C     C_R   0.286086 0.704903 0.350195 -0.146765
C5    C     C_R   0.673299 0.205941 0.631287 0.050402
C6    C     C_R   0.327912 0.793129 0.367937 0.054283
C7    C     C_R   0.509422 0.281918 0.517264 0.061485
C8    C     C_R   0.485341 0.714822 0.490463 0.112048
C9    C     C_R   0.537823 0.366277 0.545501 0.013738
C10   C     C_R   0.454844 0.627057 0.467925 0.032792
C11   C     C_R   0.646583 0.372681 0.609597 0.033699
C12   C     C_R   0.518551 0.879675 0.687833 0.537856
C13   C     C_R   0.346946 0.620274 0.402967 0.016260
C14   C     C_R   0.468235 0.447990 0.505852 0.014632
C15   C     C_R   0.522556 0.543799 0.512133 0.045064
C16   C     C_R   0.284100 0.000130 0.499935 0.549840
C17   C     C_R   0.715903 0.999875 0.500061 0.552797
C18   C     C_R   0.642423 0.551959 0.561647 0.003690
C19   C     C_R   0.347921 0.438913 0.457942 0.023999
C20   C     C_R   0.695764 0.464176 0.619274 -0.135588
C21   C     C_R   0.294965 0.526944 0.398423 -0.063467
C22   C     C_1   0.162444 0.000265 0.499967 -0.004489
C23   C     C_R   0.368121 0.323393 0.008476 0.025850
C24   C     C_1   0.837570 0.999759 0.500020 0.003953
C25   C     C_1   0.059943 0.000153 0.499983 -0.014127
C26   C     C_1   0.940078 0.999890 0.500001 -0.011315
C27   C     C_R   0.450925 0.189027 0.204627 -0.002606
C28   C     C_R   0.518727 0.811776 0.795566 -0.003748
C29   C     C_R   0.349664 0.217747 0.034322 -0.128833
C30   C     C_R   0.541282 0.786900 0.971023 -0.128794
C31   C     C_R   0.388260 0.150822 0.132479 -0.124830
C32   C     C_R   0.547692 0.851551 0.870008 -0.128160
C33   C     C_R   0.476205 0.294677 0.176415 -0.136117
C34   C     C_R   0.501247 0.682337 0.998323 0.024231
C35   C     C_R   0.482315 0.706786 0.823565 -0.142468
C36   C     C_R   0.426029 0.362934 0.081850 0.015638
C37   C     C_R   0.463572 0.641837 0.923439 0.011638
C38   C     C_2   0.723842 0.649419 0.543633 0.200719
C39   C     C_2   0.269960 0.339100 0.479094 0.199022
C40   C     C_2   0.280732 0.558025 0.783729 0.203256
C41   C     C_2   0.448863 0.454025 0.237429 0.199369
C42   C     C_R   0.437210 0.469709 0.056451 -0.011978
C43   C     C_R   0.416357 0.536458 0.952010 -0.016880
C44   C     C_R   0.347606 0.494958 0.881614 0.002568
C45   C     C_R   0.466173 0.513123 0.130223 0.013895
C46   C     C_R   0.326385 0.389080 0.910842 -0.097033
Cu1   Cu    Cu3+1 0.469550 0.918260 0.475690 0.972406
Cu2   Cu    Cu3+1 0.530450 0.081740 0.524310 0.951563
H1    H     H_    0.275100 0.357185 0.857463 0.155507
H2    H     H_    0.206598 0.520954 0.356177 0.160086
H3    H     H_    0.554448 0.718649 0.551573 0.132162
H4    H     H_    0.438002 0.278561 0.457522 0.139879
H5    H     H_    0.280162 0.858038 0.328811 0.126087
H6    H     H_    0.723764 0.142726 0.665857 0.129545
H7    H     H_    0.793650 0.293283 0.706896 0.104878
H8    H     H_    0.204635 0.701649 0.298293 0.103763
H9    H     H_    0.793913 0.656791 0.603605 0.102367
H10   H     H_    0.291783 0.273077 0.547709 0.106739
H11   H     H_    0.261267 0.631487 0.772106 0.117992
H12   H     H_    0.519913 0.651531 0.155737 0.164932
H13   H     H_    0.382080 0.386954 0.258400 0.121953
H14   H     H_    0.470703 0.676168 0.766971 0.134167
H15   H     H_    0.536395 0.322454 0.229169 0.148369
H16   H     H_    0.576281 0.932391 0.850437 0.131050
H17   H     H_    0.367811 0.069422 0.152097 0.128463
H18   H     H_    0.302898 0.186732 0.979176 0.108447
H19   H     H_    0.567275 0.818745 0.027859 0.117552
H20   H     H_    0.784195 0.470361 0.661535 0.107860
N1    N     N_R   0.576230 0.204580 0.560790 -0.238066
N2    N     N_R   0.423770 0.795420 0.439210 -0.232742
O1    O     O_R   0.459870 0.022090 0.338120 -0.503441
O2    O     O_2   0.179488 0.329748 0.421181 -0.506132
O3    O     O_2   0.245248 0.528153 0.715422 -0.512272
O4    O     O_2   0.510366 0.479628 0.303588 -0.515395
O5    O     O_R   0.540130 0.977910 0.661880 -0.509524
O6    O     O_R   0.511290 0.160150 0.379180 -0.499255
O7    O     O_R   0.488710 0.839850 0.620820 -0.512967
O8    O     O_R   0.311490 0.930960 0.479480 -0.496565
O9    O     O_R   0.688510 0.069040 0.520520 -0.496881
O10   O     O_R   0.362910 0.069020 0.520540 -0.500740
O11   O     O_R   0.637090 0.930980 0.479460 -0.473523
O12   O     O_2   0.718601 0.719738 0.459935 -0.484038

loop_
_geom_bond_atom_site_label_1
_geom_bond_atom_site_label_2
_ccdc_geom_bond_type
C15   C18   A    
C6    N2    A    
C34   C37   A    
Cu2   O6    S    
C36   C42   A    
C41   H13   S    
Cu2   N1    S    
C43   C44   A    
C27   C33   A    
C46   H1    S    
C1    O1    A    
C12   C28   S    
C23   C29   A    
Cu2   O9    S    
C35   C37   A    
C24   C26   T    
C7    H4    S    
C10   C15   A    
C2    H12   S    
C17   O9    A    
C33   C36   A    
C40   O3    D    
C31   H17   S    
C4    C13   A    
C5    N1    A    
C41   O4    D    
C3    H7    S    
C28   C35   A    
C22   C25   T    
C39   O2    D    
C18   C20   A    
C30   H19   S    
C2    C34   A    
C40   H11   S    
C4    H8    S    
Cu2   O5    S    
C21   H2    S    
C44   C46   A    
C2    C45   A    
C11   C20   A    
C17   C24   S    
C30   C34   A    
C27   C31   A    
C5    H6    S    
C28   C32   A    
C32   H16   S    
C4    C6    A    
C25   C26   S    
C39   H10   S    
C16   O10   A    
C42   C45   A    
C37   C43   A    
C9    C14   A    
Cu1   N2    S    
C38   H9    S    
Cu1   Cu2   S    
C33   H15   S    
C12   O7    A    
C13   C21   A    
C9    C11   A    
C8    H3    S    
Cu1   O1    S    
C19   C39   S    
C42   C43   A    
Cu1   O7    S    
C6    H5    S    
C16   O8    A    
C1    C27   S    
C7    C9    A    
C16   C22   S    
C19   C21   A    
C1    O6    A    
C14   C19   A    
C20   H20   S    
C3    C5    A    
C10   C13   A    
C7    N1    A    
C8    N2    A    
Cu2   O10   S    
C18   C38   S    
C29   C31   A    
C30   C32   A    
C35   H14   S    
C17   O11   A    
Cu1   O11   S    
C3    C11   A    
C29   H18   S    
C40   C44   S    
C8    C10   A    
C23   C36   A    
C12   O5    A    
C23   C46   A    
C41   C45   S    
C14   C15   A    
Cu1   O8    S    
C38   O12   D    
