data_mof_unit_12425.cif
_audit_creation_date              2012-10-26T18:50:25-0400
_audit_creation_method            fapswitch 2.2
_symmetry_space_group_name_H-M    P1
_symmetry_Int_Tables_number       1
_space_group_crystal_system       triclinic
_cell_length_a                    9.633772
_cell_length_b                    10.911011
_cell_length_c                    15.361255
_cell_angle_alpha                 84.579634
_cell_angle_beta                  74.710763
_cell_angle_gamma                 87.168156
_cell_volume                      1550.06811806

loop_
_atom_site_label
_atom_site_type_symbol
_atom_type_description
_atom_site_fract_x
_atom_site_fract_y
_atom_site_fract_z
_atom_type_partial_charge
C1    C     C_R   0.003163 0.261465 0.502273 0.531364
C2    C     C_R   0.232283 0.577964 0.041253 0.036840
C3    C     C_R   0.328062 0.529792 0.092408 0.036192
C4    C     C_R   0.919128 0.496627 0.673153 0.573990
C5    C     C_R   0.085569 0.595921 0.083850 -0.093143
C6    C     C_R   0.033170 0.566732 0.176921 -0.101928
C7    C     C_R   0.270431 0.494399 0.184934 -0.131380
C8    C     C_R   0.177661 0.097184 0.604550 -0.171982
C9    C     C_R   0.240486 0.022711 0.662955 -0.163362
C10   C     C_R   0.208810 0.898481 0.682143 0.258943
C11   C     C_R   0.113467 0.848215 0.640369 0.325346
C12   C     C_R   0.676321 0.516474 0.910939 -0.016535
C13   C     C_R   0.061252 0.920579 0.572816 -0.003002
C14   C     C_R   0.084009 0.049383 0.559958 -0.065490
C15   C     C_R   0.009920 0.125193 0.504627 -0.019605
C16   C     C_R   0.992765 0.736940 0.506857 0.595011
C17   C     C_R   0.917967 0.070542 0.462365 0.213168
C18   C     C_R   0.880478 0.947480 0.486550 0.016437
C19   C     C_R   0.974507 0.868967 0.524676 -0.025384
C20   C     C_R   0.691526 0.653593 0.369899 -0.118765
C21   C     C_R   0.645968 0.720344 0.299307 0.191068
C22   C     C_R   0.501732 0.722395 0.301024 -0.113232
C23   C     C_R   0.772914 0.481142 0.964793 0.075093
C24   C     C_R   0.404013 0.656879 0.370372 -0.140580
C25   C     C_R   0.448603 0.576858 0.436380 0.145103
C26   C     C_R   0.597817 0.576477 0.436400 0.105631
C27   C     C_R   0.550123 0.423878 0.559876 0.141561
C28   C     C_R   0.081161 0.502568 0.327606 0.524653
C29   C     C_R   0.402667 0.427644 0.560100 0.015898
C30   C     C_R   0.876057 0.494772 0.774020 0.018756
C31   C     C_R   0.126228 0.517639 0.228086 -0.012921
C32   C     C_R   0.918632 0.459291 0.923705 -0.095315
C33   C     C_R   0.972404 0.465403 0.829692 -0.018682
C34   C     C_R   0.527985 0.540343 0.953945 0.021426
C35   C     C_R   0.730573 0.521538 0.815903 -0.144778
C36   C     C_3   0.723049 0.915030 0.499086 -0.249089
C37   C     C_3   0.663763 0.949964 0.416927 -0.366049
C38   C     C_3   0.589746 0.327351 0.627446 -0.250884
C39   C     C_3   0.574899 0.198419 0.601494 -0.463033
C40   C     C_3   0.128890 0.426272 0.795241 -0.277368
C41   C     C_3   0.139851 0.291003 0.777150 -0.431112
C42   C     C_R   0.477724 0.517684 0.049711 0.004812
C43   C     C_R   0.578521 0.486258 0.100619 -0.112514
C44   C     C_R   0.723720 0.465750 0.059344 0.241059
C45   C     C_R   0.428439 0.587934 0.905110 -0.128797
C46   C     C_R   0.283978 0.607960 0.948449 -0.141573
Cu1   Cu    Cu3+1 0.140660 0.499990 0.500010 0.936094
Cu2   Cu    Cu3+1 0.859340 0.500010 0.499990 0.918909
H1    H     H_    0.011755 0.634147 0.045384 0.145476
H2    H     H_    0.211793 0.645989 0.908716 0.141417
H3    H     H_    0.991711 0.432318 0.965418 0.174569
H4    H     H_    0.659658 0.542002 0.772581 0.128454
H5    H     H_    0.548542 0.479923 0.173461 0.098642
H6    H     H_    0.459249 0.614592 0.833459 0.127289
H7    H     H_    0.766656 0.416825 0.175527 0.330742
H8    H     H_    0.929460 0.200055 0.365078 0.343260
H9    H     H_    0.331483 0.874575 0.765490 0.321172
H10   H     H_    0.089373 0.700372 0.725158 0.357668
H11   H     H_    0.627646 0.048077 0.414708 0.198872
H12   H     H_    0.205947 0.191799 0.595948 0.151449
H13   H     H_    0.746549 0.933278 0.353575 0.210723
H14   H     H_    0.567141 0.895403 0.422559 0.132907
H15   H     H_    0.698878 0.818080 0.522228 0.175909
H16   H     H_    0.656697 0.964163 0.556180 0.129596
H17   H     H_    0.466195 0.185207 0.593593 0.128280
H18   H     H_    0.652484 0.184239 0.535877 0.225354
H19   H     H_    0.596561 0.129055 0.654345 0.129171
H20   H     H_    0.699021 0.330800 0.634299 0.212492
H21   H     H_    0.517411 0.339004 0.695864 0.101453
H22   H     H_    0.835814 0.784408 0.240840 0.308773
H23   H     H_    0.310245 0.062924 0.696635 0.098400
H24   H     H_    0.080138 0.275632 0.726763 0.158944
H25   H     H_    0.254528 0.262787 0.751964 0.119846
H26   H     H_    0.092976 0.233139 0.840685 0.168541
H27   H     H_    0.186907 0.485703 0.735865 0.183456
H28   H     H_    0.188635 0.436417 0.846825 0.133914
H29   H     H_    0.799476 0.666345 0.371714 0.168006
H30   H     H_    0.335061 0.447298 0.225716 0.128532
H31   H     H_    0.463833 0.778752 0.249592 0.154539
H32   H     H_    0.294769 0.673099 0.369086 0.180750
H33   H     H_    0.327526 0.368916 0.608472 0.099828
H34   H     H_    0.920765 0.583777 0.208954 0.154400
N1    N     N_R   0.648320 0.501210 0.499140 -0.233162
N2    N     N_R   0.352470 0.501290 0.499110 -0.244526
O1    O     O_R   0.118810 0.319640 0.500010 -0.514846
O2    O     O_3   0.860194 0.136821 0.398528 -0.709960
O3    O     O_3   0.266852 0.825078 0.742816 -0.745890
O4    O     O_3   0.056988 0.733769 0.671441 -0.682575
O5    O     O_3   0.738314 0.789946 0.230496 -0.700411
O6    O     O_R   0.881240 0.319660 0.500000 -0.487055
O7    O     O_R   0.055570 0.499980 0.629840 -0.472806
O8    O     O_R   0.818000 0.500010 0.629830 -0.529794
O9    O     O_R   0.118760 0.680340 0.500000 -0.477364
O10   O     O_R   0.881190 0.680360 0.499990 -0.534253
O11   O     O_R   0.182000 0.499990 0.370170 -0.520855
O12   O     O_R   0.944430 0.500020 0.370160 -0.515878
O13   O     O_3   0.818831 0.426850 0.110457 -0.724297

loop_
_geom_bond_atom_site_label_1
_geom_bond_atom_site_label_2
_ccdc_geom_bond_type
C3    C42   A    
C1    O6    A    
C6    H34   S    
C27   C29   A    
C34   C42   A    
C37   H14   S    
C21   O5    S    
C45   C46   A    
C2    C46   A    
C12   C23   A    
C16   O9    A    
C26   N1    A    
Cu2   O10   S    
C30   C35   A    
C28   O11   A    
Cu1   O1    S    
C36   C37   S    
C22   H31   S    
C3    C7    A    
C38   C39   S    
C27   C38   S    
C18   C19   A    
C41   H26   S    
C43   H5    S    
C8    C9    A    
C25   N2    A    
C1    C15   S    
C36   H15   S    
C9    C10   A    
C4    O7    A    
C6    C31   A    
C38   H21   S    
Cu2   O6    S    
C21   C22   A    
C39   H17   S    
C5    H1    S    
C39   H19   S    
C24   H32   S    
C1    O1    A    
C10   O3    S    
C33   C40   S    
C7    C31   A    
C13   C19   A    
C17   O2    S    
C24   C25   A    
C29   N2    A    
C25   C26   A    
C23   C44   A    
H9    O3    S    
C43   C44   A    
C32   H3    S    
C29   H33   S    
C44   O13   S    
H8    O2    S    
Cu1   Cu2   S    
C11   O4    S    
H7    O13   S    
C17   C18   A    
Cu1   O9    S    
C34   C45   A    
Cu1   N2    S    
C12   C35   A    
C37   H11   S    
C41   H24   S    
C20   H29   S    
C40   C41   S    
C38   H20   S    
C45   H6    S    
C7    H30   S    
C39   H18   S    
C22   C24   A    
H22   O5    S    
C42   C43   A    
C12   C34   A    
C15   C17   A    
C8    C14   A    
Cu2   O12   S    
C30   C33   A    
Cu1   O7    S    
C28   C31   S    
C9    H23   S    
H10   O4    S    
C37   H13   S    
Cu2   N1    S    
C46   H2    S    
C16   O10   A    
C40   H27   S    
C28   O12   A    
C32   C33   A    
C27   N1    A    
C2    C3    A    
C36   H16   S    
C23   C32   A    
C11   C13   A    
C5    C6    A    
C20   C26   A    
C16   C19   S    
C4    C30   S    
C10   C11   A    
C41   H25   S    
C2    C5    A    
C40   H28   S    
C20   C21   A    
Cu2   O8    S    
C35   H4    S    
Cu1   O11   S    
C14   C15   A    
C13   C14   A    
C18   C36   S    
C8    H12   S    
C4    O8    A    
