data_mof_unit_22108.cif
_audit_creation_date              2013-03-05T15:44:04-0500
_audit_creation_method            fapswitch 2.2
_symmetry_space_group_name_H-M    P1
_symmetry_Int_Tables_number       1
_space_group_crystal_system       triclinic
_cell_length_a                    31.210298
_cell_length_b                    22.821849
_cell_length_c                    18.032124
_cell_angle_alpha                 89.985985
_cell_angle_beta                  123.641994
_cell_angle_gamma                 89.953978
_cell_volume                      10692.7059584

loop_
_atom_site_label
_atom_site_type_symbol
_atom_site_description
_atom_site_fract_x
_atom_site_fract_y
_atom_site_fract_z
_atom_type_partial_charge
C1    C     C_R   0.534817 0.605887 0.713824 -0.186649
C2    C     C_R   0.457824 0.410776 0.263164 -0.205944
C3    C     C_R   0.465989 0.606875 0.288554 -0.187359
C4    C     C_R   0.542304 0.410891 0.737041 -0.200181
C5    C     C_R   0.033819 0.106977 0.711028 -0.187848
C6    C     C_R   0.957450 0.911975 0.262078 -0.200810
C7    C     C_R   0.966221 0.107236 0.289340 -0.203699
C8    C     C_R   0.042202 0.910954 0.736976 -0.200416
H1    H     H_    0.505621 0.617015 0.726041 0.130938
H2    H     H_    0.482893 0.410294 0.239415 0.130767
H3    H     H_    0.495443 0.618336 0.277148 0.133045
H4    H     H_    0.517264 0.410536 0.760850 0.129312
H5    H     H_    0.004397 0.118423 0.722533 0.132940
H6    H     H_    0.982451 0.912424 0.238171 0.128164
H7    H     H_    0.995825 0.119028 0.278482 0.140148
H8    H     H_    0.017119 0.910713 0.760692 0.128061
N1    N     N_R   0.532970 0.559900 0.665210 -0.065054
N2    N     N_R   0.467030 0.440100 0.334790 -0.062071
N3    N     N_R   0.467030 0.559900 0.334790 -0.064837
N4    N     N_R   0.532970 0.440100 0.665210 -0.060546
N5    N     N_R   0.032970 0.059900 0.665210 -0.064337
N6    N     N_R   0.967030 0.940100 0.334790 -0.061356
N7    N     N_R   0.967030 0.059900 0.334790 -0.064388
N8    N     N_R   0.032970 0.940100 0.665210 -0.061533
C9    C     C_R   0.644403 0.577481 0.569758 -0.045624
C10   C     C_R   0.371432 0.393218 0.429443 -0.120784
C11   C     C_R   0.355851 0.578736 0.430506 -0.048102
C12   C     C_R   0.629679 0.394108 0.570681 -0.126819
C13   C     C_R   0.144054 0.079059 0.569151 -0.059119
C14   C     C_R   0.868377 0.896422 0.429634 -0.117748
C15   C     C_R   0.855819 0.078750 0.429849 -0.047951
C16   C     C_R   0.129535 0.894280 0.570802 -0.111317
H9    H     H_    0.678925 0.574507 0.635464 0.188989
H10   H     H_    0.338678 0.383717 0.363913 0.190657
H11   H     H_    0.321016 0.575641 0.365177 0.191169
H12   H     H_    0.662968 0.385463 0.636099 0.186389
H13   H     H_    0.178738 0.077180 0.634744 0.189833
H14   H     H_    0.834913 0.888497 0.364114 0.186257
H15   H     H_    0.821118 0.075127 0.364392 0.192158
H16   H     H_    0.162795 0.885661 0.636247 0.185921
N9    N     N_R   0.597900 0.559930 0.545530 -0.055733
N10   N     N_R   0.402100 0.440070 0.454470 -0.047523
N11   N     N_R   0.402100 0.559930 0.454470 -0.056579
N12   N     N_R   0.597900 0.440070 0.545530 -0.042192
N13   N     N_R   0.097900 0.059930 0.545530 -0.056140
N14   N     N_R   0.902100 0.940070 0.454470 -0.043865
N15   N     N_R   0.902100 0.059930 0.454470 -0.057363
N16   N     N_R   0.097900 0.940070 0.545530 -0.044477
C17   C     C_R   0.593627 0.581145 0.422579 -0.146210
C18   C     C_R   0.424506 0.392671 0.577815 -0.142449
C19   C     C_R   0.406907 0.581666 0.577878 -0.141394
C20   C     C_R   0.575560 0.392508 0.422577 -0.124217
C21   C     C_R   0.093150 0.080854 0.421762 -0.117083
C22   C     C_R   0.922700 0.894503 0.578096 -0.133802
C23   C     C_R   0.906551 0.082592 0.577129 -0.149005
C24   C     C_R   0.075472 0.892661 0.422384 -0.136211
H17   H     H_    0.580325 0.583521 0.353100 0.114398
H18   H     H_    0.441291 0.382900 0.647042 0.109929
H19   H     H_    0.420359 0.583788 0.647439 0.114680
H20   H     H_    0.558438 0.382215 0.353367 0.119373
H21   H     H_    0.079671 0.082407 0.352151 0.111292
H22   H     H_    0.940634 0.884109 0.647292 0.113865
H23   H     H_    0.919645 0.085110 0.646486 0.113117
H24   H     H_    0.057923 0.882267 0.353201 0.115212
N17   N     N_R   0.567170 0.559950 0.454460 -0.048063
N18   N     N_R   0.432830 0.440050 0.545540 -0.048508
N19   N     N_R   0.432830 0.559950 0.545540 -0.048849
N20   N     N_R   0.567170 0.440050 0.454460 -0.048068
N21   N     N_R   0.067170 0.059950 0.454460 -0.053364
N22   N     N_R   0.932830 0.940050 0.545540 -0.046240
N23   N     N_R   0.932830 0.059950 0.545540 -0.047846
N24   N     N_R   0.067170 0.940050 0.454460 -0.048108
C25   C     C_R   0.393290 0.605703 0.285920 0.364966
C26   C     C_R   0.614352 0.410609 0.738394 0.320447
C27   C     C_R   0.607344 0.604611 0.716063 0.369040
C28   C     C_R   0.385738 0.410564 0.261710 0.325437
C29   C     C_R   0.893407 0.105756 0.286154 0.368522
C30   C     C_R   0.114330 0.910674 0.738529 0.318737
C31   C     C_R   0.106560 0.105887 0.713700 0.360484
C32   C     C_R   0.885494 0.911357 0.260987 0.322887
N25   N     N_R   0.421470 0.559970 0.334770 -0.091964
N26   N     N_R   0.578530 0.440030 0.665230 -0.088457
N27   N     N_R   0.578530 0.559970 0.665230 -0.093289
N28   N     N_R   0.421470 0.440030 0.334770 -0.088118
N29   N     N_R   0.921470 0.059970 0.334770 -0.091784
N30   N     N_R   0.078530 0.940030 0.665230 -0.088025
N31   N     N_R   0.078530 0.059970 0.665230 -0.090746
N32   N     N_R   0.921470 0.940030 0.334770 -0.088748
C33   C     C_R   0.581180 0.635136 0.746618 -0.063270
C34   C     C_R   0.407916 0.390234 0.217019 -0.047452
C35   C     C_R   0.420057 0.636673 0.256997 -0.065206
C36   C     C_R   0.592321 0.390471 0.783387 -0.048644
C37   C     C_R   0.079603 0.136843 0.742305 -0.064712
C38   C     C_R   0.907274 0.892126 0.215020 -0.046690
C39   C     C_R   0.920388 0.137123 0.258108 -0.064132
C40   C     C_R   0.092218 0.890614 0.783491 -0.047350
C41   C     C_R   0.642153 0.591912 0.494518 -0.009048
C42   C     C_R   0.386063 0.362836 0.506266 0.086288
C43   C     C_R   0.358684 0.593512 0.506250 -0.005408
C44   C     C_R   0.615158 0.363713 0.493915 0.031268
C45   C     C_R   0.141202 0.093422 0.493050 0.031874
C46   C     C_R   0.881846 0.867390 0.506834 0.018118
C47   C     C_R   0.858171 0.094289 0.504818 0.005304
C48   C     C_R   0.114945 0.864057 0.494125 0.020032
Ni1   Ni    Ni4+2 0.483030 0.500000 0.604430 0.199776
Ni2   Ni    Ni4+2 0.516970 0.500000 0.395570 0.196298
Ni3   Ni    Ni4+2 0.983030 1.000000 0.604430 0.199049
Ni4   Ni    Ni4+2 0.016970 1.000000 0.395570 0.196442
Ni5   Ni    Ni4+2 0.587400 0.500000 0.604430 0.297395
Ni6   Ni    Ni4+2 0.412600 0.500000 0.395570 0.298098
Ni7   Ni    Ni4+2 0.087400 1.000000 0.604430 0.295850
Ni8   Ni    Ni4+2 0.912600 1.000000 0.395570 0.296076
C49   C     C_R   0.640036 0.263146 0.492816 0.129599
C50   C     C_R   0.330376 0.691414 0.505146 0.167628
C51   C     C_R   0.361590 0.262293 0.508787 0.149372
C52   C     C_R   0.674114 0.689290 0.508489 0.179663
C53   C     C_R   0.144150 0.764357 0.505587 0.136458
C54   C     C_R   0.823911 0.190961 0.488647 0.176923
C55   C     C_R   0.853752 0.767195 0.495156 0.133181
C56   C     C_R   0.166806 0.189690 0.479865 0.157493
C57   C     C_R   0.645862 0.322688 0.483412 -0.067906
C58   C     C_R   0.322864 0.631261 0.506543 -0.065552
C59   C     C_R   0.354804 0.322018 0.515105 -0.061141
C60   C     C_R   0.678702 0.629743 0.496456 -0.068597
C61   C     C_R   0.146121 0.823009 0.486245 -0.076497
C62   C     C_R   0.820490 0.131256 0.501604 -0.070301
C63   C     C_R   0.851631 0.825500 0.516064 -0.073305
C64   C     C_R   0.177538 0.129754 0.491660 -0.046150
C65   C     C_R   0.676216 0.343738 0.453865 0.134306
C66   C     C_R   0.278306 0.607924 0.494867 0.108075
C67   C     C_R   0.319451 0.343706 0.532985 0.131996
C68   C     C_R   0.722128 0.606224 0.503397 0.117852
C69   C     C_R   0.177670 0.843257 0.458983 0.158799
C70   C     C_R   0.776245 0.106397 0.490110 0.104553
C71   C     C_R   0.823477 0.843651 0.551380 0.153077
C72   C     C_R   0.225285 0.106759 0.516495 0.096465
C73   C     C_R   0.708116 0.304461 0.446258 -0.100868
C74   C     C_R   0.243441 0.645717 0.495865 -0.071106
C75   C     C_R   0.282074 0.305762 0.524768 -0.086908
C76   C     C_R   0.758876 0.644593 0.509000 -0.081717
C77   C     C_R   0.215753 0.805980 0.468467 -0.086351
C78   C     C_R   0.737122 0.143575 0.478975 -0.078380
C79   C     C_R   0.787987 0.804738 0.547984 -0.088198
C80   C     C_R   0.261326 0.144301 0.517962 -0.075358
C81   C     C_R   0.704512 0.243679 0.460454 -0.030536
C82   C     C_R   0.248586 0.706786 0.487795 -0.039972
C83   C     C_R   0.289211 0.244578 0.521480 -0.021095
C84   C     C_R   0.755474 0.704947 0.524882 -0.036296
C85   C     C_R   0.212506 0.745417 0.482883 -0.033768
C86   C     C_R   0.740442 0.204379 0.465423 -0.037534
C87   C     C_R   0.790708 0.744771 0.529410 -0.030959
C88   C     C_R   0.252912 0.205625 0.515404 -0.027913
C89   C     C_R   0.666968 0.222578 0.474981 0.024321
C90   C     C_R   0.290244 0.729228 0.485393 0.008588
C91   C     C_R   0.331806 0.222552 0.521449 -0.013745
C92   C     C_R   0.715542 0.725949 0.533113 0.005672
C93   C     C_R   0.173774 0.723790 0.494278 0.024738
C94   C     C_R   0.781218 0.226458 0.460734 0.000379
C95   C     C_R   0.827133 0.725196 0.511161 0.024939
C96   C     C_R   0.207238 0.228114 0.504065 -0.019685
C97   C     C_R   0.744130 0.323598 0.426643 0.293006
C98   C     C_R   0.203092 0.624012 0.502067 0.268963
C99   C     C_R   0.238202 0.327348 0.520412 0.278473
C100  C     C_R   0.799079 0.624591 0.500709 0.262814
C101  C     C_R   0.256307 0.827657 0.462727 0.262535
C102  C     C_R   0.694719 0.122237 0.479711 0.275255
C103  C     C_R   0.750210 0.824076 0.562949 0.263695
C104  C     C_R   0.305820 0.122590 0.524467 0.287222
C105  C     C_R   0.291628 0.788872 0.465901 0.014190
C106  C     C_R   0.658841 0.161604 0.474897 0.008346
C107  C     C_R   0.716479 0.783740 0.561534 0.016986
C108  C     C_R   0.342183 0.161787 0.530707 -0.017787
C109  C     C_R   0.779111 0.283876 0.430403 0.017542
C110  C     C_R   0.167145 0.662775 0.497795 0.004134
C111  C     C_R   0.202499 0.288279 0.515189 0.004473
C112  C     C_R   0.834299 0.664645 0.505295 0.011222
C113  C     C_R   0.401835 0.690759 0.203958 0.097344
C114  C     C_R   0.615781 0.355149 0.864844 0.092004
C115  C     C_R   0.599790 0.689034 0.800471 0.096454
C116  C     C_R   0.384749 0.354136 0.136496 0.091483
C117  C     C_R   0.902465 0.191790 0.206546 0.095539
C118  C     C_R   0.115641 0.855686 0.865305 0.090549
C119  C     C_R   0.097674 0.190717 0.795541 0.097107
C120  C     C_R   0.883335 0.859107 0.131276 0.091177
C121  C     C_R   0.411928 0.794653 0.187868 0.334659
C122  C     C_R   0.610292 0.268282 0.936623 0.329824
C123  C     C_R   0.588175 0.791530 0.822457 0.338066
C124  C     C_R   0.390324 0.265782 0.067654 0.328044
C125  C     C_R   0.912362 0.296301 0.194306 0.338295
C126  C     C_R   0.110142 0.769519 0.938313 0.326113
C127  C     C_R   0.088219 0.294982 0.809943 0.334775
C128  C     C_R   0.888873 0.776864 0.051695 0.325143
C129  C     C_R   0.433559 0.739608 0.225223 -0.267639
C130  C     C_R   0.586529 0.311490 0.871097 -0.280147
C131  C     C_R   0.567335 0.736399 0.784516 -0.269977
C132  C     C_R   0.414083 0.309911 0.131547 -0.276021
C133  C     C_R   0.934062 0.241046 0.230546 -0.269146
C134  C     C_R   0.086345 0.812507 0.872423 -0.278836
C135  C     C_R   0.066307 0.240141 0.772495 -0.269359
C136  C     C_R   0.912682 0.818075 0.120200 -0.279660
C137  C     C_R   0.349393 0.696139 0.141473 -0.155948
C138  C     C_R   0.667884 0.360662 0.931578 -0.147993
C139  C     C_R   0.652542 0.695956 0.858878 -0.154148
C140  C     C_R   0.332646 0.359238 0.069857 -0.153543
C141  C     C_R   0.850131 0.197147 0.143173 -0.152699
C142  C     C_R   0.167780 0.861083 0.931630 -0.152922
C143  C     C_R   0.149908 0.195285 0.859872 -0.154568
C144  C     C_R   0.830878 0.864292 0.066464 -0.153972
C145  C     C_R   0.326033 0.751220 0.118338 0.067338
C146  C     C_R   0.694007 0.314911 0.992511 0.048396
C147  C     C_R   0.674430 0.751738 0.882231 0.057443
C148  C     C_R   0.306517 0.312648 0.010903 0.047430
C149  C     C_R   0.826535 0.252092 0.120974 0.061817
C150  C     C_R   0.193937 0.815261 0.992338 0.045624
C151  C     C_R   0.173882 0.249994 0.883435 0.070081
C152  C     C_R   0.804838 0.819537 0.003713 0.045105
C153  C     C_R   0.357420 0.801215 0.137053 -0.030042
C154  C     C_R   0.664695 0.266719 0.991553 -0.014193
C155  C     C_R   0.642292 0.800074 0.868629 -0.031881
C156  C     C_R   0.335902 0.264011 0.013242 -0.017626
C157  C     C_R   0.857776 0.302478 0.141794 -0.034430
C158  C     C_R   0.164552 0.767505 0.992340 -0.016621
C159  C     C_R   0.142797 0.300641 0.862651 -0.028522
C160  C     C_R   0.834499 0.773840 0.999344 -0.012694
C161  C     C_R   0.272449 0.757391 0.079757 0.089266
C162  C     C_R   0.748708 0.312345 0.045727 0.099652
C163  C     C_R   0.727334 0.760210 0.916986 0.088030
C164  C     C_R   0.251822 0.309999 0.958306 0.101597
C165  C     C_R   0.772795 0.257684 0.081181 0.086571
C166  C     C_R   0.248609 0.812165 0.044216 0.101252
C167  C     C_R   0.227741 0.255204 0.923877 0.090670
C168  C     C_R   0.750278 0.814995 0.954253 0.100534
C169  C     C_R   0.780043 0.362001 0.063713 -0.158638
C170  C     C_R   0.242439 0.710949 0.079383 -0.172251
C171  C     C_R   0.220507 0.359830 0.939856 -0.160169
C172  C     C_R   0.757477 0.716094 0.912250 -0.189890
C173  C     C_R   0.280126 0.861383 0.060558 -0.159546
C174  C     C_R   0.742852 0.210745 0.079625 -0.182476
C175  C     C_R   0.718057 0.862559 0.942506 -0.156733
C176  C     C_R   0.257828 0.207786 0.926944 -0.163954
C177  C     C_R   0.833589 0.357348 0.113370 -0.103449
C178  C     C_R   0.189950 0.716700 0.039392 -0.127035
C179  C     C_R   0.167035 0.355371 0.890851 -0.103937
C180  C     C_R   0.809558 0.723681 0.949763 -0.131498
C181  C     C_R   0.333558 0.856201 0.108413 -0.104792
C182  C     C_R   0.690243 0.215975 0.038655 -0.128904
C183  C     C_R   0.664931 0.855525 0.898064 -0.102604
C184  C     C_R   0.310454 0.212822 0.967963 -0.125480
H25   H     H_    0.855573 0.397351 0.129922 0.189352
H26   H     H_    0.169160 0.678878 0.039608 0.194483
H27   H     H_    0.145097 0.395487 0.874121 0.187773
H28   H     H_    0.830585 0.687432 0.945908 0.196176
H29   H     H_    0.355755 0.895927 0.123590 0.188060
H30   H     H_    0.669545 0.177835 0.038169 0.195193
H31   H     H_    0.641980 0.894173 0.886512 0.188680
H32   H     H_    0.331242 0.174346 0.969679 0.193682
H33   H     H_    0.688288 0.397606 0.928484 0.161671
H34   H     H_    0.326909 0.656468 0.117309 0.143675
H35   H     H_    0.312331 0.396670 0.071959 0.159869
H36   H     H_    0.676299 0.657178 0.880867 0.150963
H37   H     H_    0.188109 0.897942 0.928173 0.162200
H38   H     H_    0.827798 0.157427 0.117598 0.143552
H39   H     H_    0.810359 0.899931 0.072319 0.164405
H40   H     H_    0.171798 0.155188 0.884631 0.141132
H41   H     H_    0.545382 0.309365 0.822305 0.168314
H42   H     H_    0.474737 0.735051 0.271497 0.164702
H43   H     H_    0.455262 0.308079 0.180203 0.170198
H44   H     H_    0.526131 0.730568 0.742350 0.162463
H45   H     H_    0.045138 0.810589 0.824112 0.171202
H46   H     H_    0.975195 0.236658 0.278191 0.171437
H47   H     H_    0.954032 0.816425 0.167170 0.170514
H48   H     H_    0.025223 0.236200 0.724574 0.164868
H49   H     H_    0.764048 0.405578 0.044425 0.146133
H50   H     H_    0.258665 0.669611 0.111397 0.207909
H51   H     H_    0.236373 0.403447 0.958228 0.143440
H52   H     H_    0.741602 0.675236 0.878308 0.213502
H53   H     H_    0.264472 0.905091 0.041294 0.143921
H54   H     H_    0.759260 0.169452 0.111599 0.210026
H55   H     H_    0.732792 0.906476 0.963032 0.146254
H56   H     H_    0.241611 0.166184 0.896146 0.204008
N33   N     N_R   0.445573 0.843253 0.205586 0.238706
O1    O     O_R   0.488903 0.847916 0.282827 -0.373429
O2    O     O_R   0.437632 0.876577 0.140533 -0.350463
N34   N     N_R   0.579097 0.224434 0.942222 0.240647
O3    O     O_R   0.536421 0.207084 0.870588 -0.380228
O4    O     O_R   0.588788 0.208885 0.019540 -0.353121
N35   N     N_R   0.554005 0.838257 0.810526 0.238698
O5    O     O_R   0.509298 0.843273 0.735762 -0.377670
O6    O     O_R   0.563437 0.869175 0.878633 -0.351117
N36   N     N_R   0.421560 0.221330 0.063256 0.240932
O7    O     O_R   0.464455 0.204747 0.135253 -0.372794
O8    O     O_R   0.411647 0.204394 0.986343 -0.354375
N37   N     N_R   0.945990 0.345411 0.214946 0.238172
O9    O     O_R   0.988833 0.349307 0.293083 -0.375923
O10   O     O_R   0.938806 0.380004 0.151624 -0.355607
N38   N     N_R   0.078950 0.726304 0.945148 0.241370
O11   O     O_R   0.035798 0.709212 0.874235 -0.363216
O12   O     O_R   0.089220 0.711188 0.023002 -0.352729
N39   N     N_R   0.054867 0.344315 0.790198 0.238036
O13   O     O_R   0.012291 0.349286 0.711882 -0.375421
O14   O     O_R   0.062139 0.378253 0.854179 -0.353561
N40   N     N_R   0.920126 0.736182 0.040539 0.240940
O15   O     O_R   0.964028 0.718513 0.109309 -0.359921
O16   O     O_R   0.908962 0.724277 0.961117 -0.359885
N41   N     N_R   0.342782 0.618144 0.263672 0.192469
O17   O     O_R   0.332568 0.668755 0.283586 -0.477802
O18   O     O_R   0.305876 0.580837 0.216598 -0.403352
N42   N     N_R   0.668026 0.411362 0.772478 0.203361
O19   O     O_R   0.688237 0.457655 0.761601 -0.379575
O20   O     O_R   0.694904 0.363302 0.801872 -0.430723
N43   N     N_R   0.657172 0.617632 0.735913 0.190710
O21   O     O_R   0.665693 0.667690 0.711987 -0.485326
O22   O     O_R   0.695114 0.581729 0.784685 -0.404010
N44   N     N_R   0.332026 0.411355 0.227462 0.203834
O23   O     O_R   0.311839 0.457468 0.238918 -0.378974
O24   O     O_R   0.305276 0.363263 0.198346 -0.418740
N45   N     N_R   0.842835 0.117981 0.263408 0.192034
O25   O     O_R   0.832696 0.168241 0.284205 -0.485090
O26   O     O_R   0.805921 0.080842 0.215572 -0.402764
N46   N     N_R   0.168027 0.911374 0.772679 0.203201
O27   O     O_R   0.188207 0.957460 0.761255 -0.379597
O28   O     O_R   0.194972 0.863394 0.802666 -0.433197
N47   N     N_R   0.157506 0.117788 0.737568 0.193393
O29   O     O_R   0.168932 0.168937 0.721303 -0.476329
O30   O     O_R   0.193771 0.079528 0.783706 -0.400314
N48   N     N_R   0.831926 0.912013 0.227626 0.202407
O31   O     O_R   0.811656 0.958322 0.238400 -0.379088
O32   O     O_R   0.805061 0.864033 0.198034 -0.435684
N49   N     N_2   0.608928 0.244513 0.523986 -0.105679
H57   H     H_    0.575155 0.267514 0.499202 0.177544
C185  C     C_3   0.636951 0.234948 0.619127 -0.809765
H58   H     H_    0.610516 0.216883 0.636396 0.245855
H59   H     H_    0.653107 0.276866 0.655378 0.259782
H60   H     H_    0.668691 0.203039 0.640749 0.256675
N50   N     N_2   0.377845 0.713755 0.522141 -0.100961
H61   H     H_    0.395246 0.690480 0.496774 0.203504
C186  C     C_3   0.413309 0.734890 0.611732 -0.803429
H62   H     H_    0.445676 0.757573 0.614858 0.268056
H63   H     H_    0.428586 0.697769 0.659577 0.222392
H64   H     H_    0.394061 0.766762 0.630720 0.271359
N51   N     N_2   0.393407 0.243771 0.478884 -0.100072
H65   H     H_    0.380826 0.209190 0.434843 0.188097
C187  C     C_3   0.448680 0.250639 0.538895 -0.838377
H66   H     H_    0.467958 0.207507 0.550993 0.249963
H67   H     H_    0.459601 0.269287 0.604106 0.246737
H68   H     H_    0.462739 0.280198 0.507909 0.246693
N52   N     N_2   0.627433 0.712629 0.493941 -0.098647
H69   H     H_    0.609097 0.688129 0.516356 0.210766
C188  C     C_3   0.592724 0.737499 0.406451 -0.812985
H70   H     H_    0.560240 0.759215 0.404331 0.267822
H71   H     H_    0.577267 0.702575 0.355001 0.227230
H72   H     H_    0.612816 0.770932 0.391566 0.271908
N53   N     N_2   0.113064 0.746695 0.537312 -0.106234
H73   H     H_    0.078718 0.768807 0.510736 0.178007
C189  C     C_3   0.140865 0.739323 0.632874 -0.806465
H74   H     H_    0.114526 0.721616 0.650595 0.245541
H75   H     H_    0.156123 0.782028 0.666866 0.263924
H76   H     H_    0.173265 0.708037 0.656746 0.255696
N54   N     N_2   0.870535 0.215630 0.504916 -0.098820
H77   H     H_    0.890015 0.191550 0.484257 0.207448
C190  C     C_3   0.903848 0.240785 0.592559 -0.812763
H78   H     H_    0.936539 0.263213 0.596345 0.270676
H79   H     H_    0.919179 0.205903 0.644164 0.227057
H80   H     H_    0.882588 0.273665 0.605782 0.269188
N55   N     N_2   0.881761 0.751212 0.456733 -0.107821
H81   H     H_    0.914985 0.774517 0.478393 0.178584
C191  C     C_3   0.850321 0.743043 0.361181 -0.799719
H82   H     H_    0.874829 0.728004 0.337960 0.246679
H83   H     H_    0.831531 0.784855 0.327350 0.268220
H84   H     H_    0.820274 0.709406 0.342529 0.254382
N56   N     N_2   0.114509 0.209975 0.432617 -0.112833
H85   H     H_    0.105061 0.243511 0.387667 0.192477
C192  C     C_3   0.088334 0.211958 0.478626 -0.801042
H86   H     H_    0.075973 0.257453 0.479379 0.260133
H87   H     H_    0.113324 0.196250 0.548316 0.278675
H88   H     H_    0.053177 0.184543 0.442472 0.238924
N57   N     N_2   0.677272 0.405091 0.439186 -0.089411
H89   H     H_    0.678918 0.431865 0.486624 0.174009
C193  C     C_3   0.642992 0.425904 0.348309 -0.781468
H90   H     H_    0.664326 0.455578 0.331121 0.295357
H91   H     H_    0.611257 0.452305 0.341912 0.202507
H92   H     H_    0.626670 0.389159 0.299706 0.250061
N58   N     N_2   0.266933 0.547319 0.475402 -0.077520
H93   H     H_    0.297105 0.519737 0.516135 0.187531
C194  C     C_3   0.238534 0.532319 0.381544 -0.643138
H94   H     H_    0.200528 0.514135 0.360654 0.301408
H95   H     H_    0.259994 0.498877 0.369649 0.226615
H96   H     H_    0.231764 0.571106 0.338897 0.217580
N59   N     N_2   0.321347 0.403429 0.558470 -0.086428
H97   H     H_    0.332825 0.433515 0.530421 0.169966
C195  C     C_3   0.344454 0.412557 0.652805 -0.763047
H98   H     H_    0.340111 0.459223 0.664887 0.257097
H99   H     H_    0.385987 0.401495 0.691411 0.209061
H100  H     H_    0.325328 0.385004 0.677083 0.261460
N60   N     N_2   0.728645 0.544401 0.505344 -0.078830
H101  H     H_    0.695292 0.521850 0.462643 0.184145
C196  C     C_3   0.759400 0.519271 0.593834 -0.669461
H102  H     H_    0.768808 0.473107 0.589390 0.272391
H103  H     H_    0.737944 0.519794 0.626299 0.206356
H104  H     H_    0.796047 0.543740 0.635761 0.257938
N61   N     N_2   0.171117 0.900676 0.422170 -0.084876
H105  H     H_    0.160076 0.933409 0.447422 0.173876
C197  C     C_3   0.145321 0.902666 0.326236 -0.765865
H106  H     H_    0.145777 0.948253 0.305165 0.253086
H107  H     H_    0.104840 0.888033 0.292615 0.211246
H108  H     H_    0.165097 0.873985 0.304412 0.261201
N62   N     N_2   0.771315 0.044299 0.488382 -0.076609
H109  H     H_    0.802382 0.022990 0.541217 0.186000
C198  C     C_3   0.751209 0.016862 0.402543 -0.658348
H110  H     H_    0.718974 0.987441 0.386414 0.304503
H111  H     H_    0.781693 0.990303 0.404557 0.203022
H112  H     H_    0.736398 0.049708 0.347999 0.231224
N63   N     N_2   0.830392 0.900797 0.589056 -0.087571
H113  H     H_    0.839463 0.933965 0.561445 0.171829
C199  C     C_3   0.859157 0.902714 0.685523 -0.762862
H114  H     H_    0.857522 0.947716 0.707214 0.251805
H115  H     H_    0.899932 0.890676 0.715547 0.209226
H116  H     H_    0.842771 0.871944 0.711209 0.263924
N64   N     N_2   0.237016 0.046627 0.541502 -0.077668
H117  H     H_    0.207485 0.017458 0.504256 0.188281
C200  C     C_3   0.267018 0.034781 0.636452 -0.654467
H118  H     H_    0.300418 0.006827 0.653964 0.299978
H119  H     H_    0.243290 0.010681 0.654835 0.224993
H120  H     H_    0.281635 0.075701 0.676527 0.228107
N65   N     N_R   0.748171 0.383531 0.407765 0.240494
O33   O     O_R   0.779238 0.418096 0.473259 -0.340187
O34   O     O_R   0.732353 0.398765 0.326910 -0.389457
N66   N     N_R   0.201220 0.563535 0.521855 0.247001
O35   O     O_R   0.236070 0.542737 0.599926 -0.356151
O36   O     O_R   0.162723 0.530649 0.465179 -0.339033
N67   N     N_R   0.226090 0.388624 0.510366 0.248621
O37   O     O_R   0.209200 0.413848 0.434293 -0.367716
O38   O     O_R   0.225034 0.416982 0.571888 -0.337462
N68   N     N_R   0.802467 0.564611 0.480682 0.247205
O39   O     O_R   0.771328 0.545171 0.399985 -0.341502
O40   O     O_R   0.841020 0.532259 0.538859 -0.345961
N69   N     N_R   0.265301 0.889343 0.463017 0.249961
O41   O     O_R   0.280539 0.919913 0.534355 -0.349848
O42   O     O_R   0.262734 0.913880 0.395528 -0.358094
N70   N     N_R   0.688986 0.061173 0.490704 0.244785
O43   O     O_R   0.714059 0.038608 0.570309 -0.334898
O44   O     O_R   0.652251 0.031281 0.424394 -0.345683
N71   N     N_R   0.740952 0.885177 0.567487 0.248546
O45   O     O_R   0.718647 0.916415 0.495115 -0.342542
O46   O     O_R   0.747188 0.907257 0.639371 -0.373893
N72   N     N_R   0.311594 0.061330 0.514231 0.247070
O47   O     O_R   0.281078 0.036626 0.437154 -0.324910
O48   O     O_R   0.350276 0.031876 0.578042 -0.358088
N73   N     N_2   0.327890 0.809722 0.447365 -0.094928
H121  H     H_    0.343756 0.850243 0.473136 0.242434
C201  C     C_3   0.312141 0.801860 0.355937 -0.726562
H122  H     H_    0.344534 0.813230 0.349524 0.246138
H123  H     H_    0.278793 0.830534 0.310901 0.252979
H124  H     H_    0.301185 0.755576 0.335236 0.271762
N74   N     N_2   0.614359 0.139716 0.469584 -0.105913
H125  H     H_    0.619226 0.101207 0.503301 0.225430
C202  C     C_3   0.567787 0.140760 0.380943 -0.684432
H126  H     H_    0.534742 0.126573 0.383891 0.235878
H127  H     H_    0.571442 0.110569 0.336413 0.277067
H128  H     H_    0.559817 0.185802 0.352859 0.239039
N75   N     N_2   0.683913 0.800948 0.590228 -0.094355
H129  H     H_    0.666693 0.841451 0.568498 0.238958
C203  C     C_3   0.705739 0.790645 0.683848 -0.709410
H130  H     H_    0.675578 0.796689 0.697882 0.248951
H131  H     H_    0.737613 0.821808 0.725397 0.248331
H132  H     H_    0.721003 0.745303 0.702554 0.271389
N76   N     N_2   0.390358 0.140222 0.550622 -0.122720
H133  H     H_    0.388743 0.101820 0.519102 0.218619
C204  C     C_3   0.430868 0.140686 0.644571 -0.672739
H134  H     H_    0.467615 0.126522 0.653975 0.237324
H135  H     H_    0.421491 0.110316 0.681766 0.274603
H136  H     H_    0.436151 0.185564 0.672248 0.249311
N77   N     N_2   0.811410 0.301169 0.401157 -0.095752
H137  H     H_    0.826404 0.342892 0.418693 0.239723
C205  C     C_3   0.791153 0.287015 0.309150 -0.698660
H138  H     H_    0.822180 0.291117 0.296884 0.248966
H139  H     H_    0.759441 0.317357 0.263714 0.254273
H140  H     H_    0.776065 0.241537 0.293658 0.271718
N78   N     N_2   0.123913 0.640213 0.495949 -0.101848
H141  H     H_    0.130752 0.603579 0.534478 0.223453
C206  C     C_3   0.077122 0.636459 0.407833 -0.707364
H142  H     H_    0.044955 0.622051 0.413160 0.238079
H143  H     H_    0.081837 0.604329 0.366586 0.274018
H144  H     H_    0.067054 0.679945 0.374512 0.235994
N79   N     N_2   0.163506 0.309146 0.526748 -0.107043
H145  H     H_    0.146282 0.348060 0.495093 0.242380
C207  C     C_3   0.177667 0.306930 0.617960 -0.744766
H146  H     H_    0.144168 0.319736 0.620478 0.246103
H147  H     H_    0.209957 0.337429 0.660443 0.261450
H148  H     H_    0.189460 0.261815 0.645010 0.270214
N80   N     N_2   0.877248 0.643911 0.504549 -0.102808
H149  H     H_    0.870854 0.607327 0.466221 0.225879
C208  C     C_3   0.925108 0.641577 0.591354 -0.706558
H150  H     H_    0.956816 0.628540 0.583910 0.236660
H151  H     H_    0.922379 0.608989 0.634342 0.274792
H152  H     H_    0.934462 0.685255 0.623933 0.237525

loop_
_geom_bond_atom_site_label_1
_geom_bond_atom_site_label_2
_geom_bond_distance
_ccdc_geom_bond_type
C195  H100  1.110562 S    
N14   Ni8   1.868616 S    
C146  C162  1.422518 A    
C202  H126  1.110254 S    
C84   C87   1.394332 A    
C21   N21   1.327737 A    
C31   N31   1.334943 A    
C186  H62   1.108783 S    
C158  C178  1.394784 A    
C115  C131  1.397321 A    
N69   O41   1.300307 A    
C11   C43   1.361412 A    
C162  C169  1.412917 A    
C113  C129  1.396948 A    
N34   O3    1.301604 A    
C197  H107  1.107861 S    
C153  C181  1.402875 A    
N4    Ni1   1.898007 S    
C41   C60   1.416098 S    
N22   Ni3   1.901309 S    
C196  H103  1.107087 S    
N59   C195  1.448531 S    
C141  H38   1.079482 S    
C128  N40   1.438745 S    
C45   C64   1.416775 S    
C14   H14   1.073574 S    
N65   O33   1.300031 A    
C26   C36   1.400258 A    
C2    C34   1.379758 A    
C47   C62   1.421630 S    
C137  H34   1.079093 S    
C134  H45   1.083303 S    
C150  C158  1.424989 A    
C30   C40   1.401234 A    
N73   C201  1.447141 S    
N2    N28   1.421744 A    
N35   O6    1.301156 A    
C3    N3    1.347201 A    
N48   O31   1.300047 A    
N11   Ni6   1.868609 S    
C4    H4    1.080214 S    
C28   N44   1.429965 S    
C83   C91   1.421176 A    
C5    H5    1.079447 S    
C116  C132  1.397816 A    
C142  C150  1.402237 A    
C7    H7    1.079448 S    
C156  C184  1.394868 A    
C8    H8    1.080180 S    
N80   C208  1.446851 S    
N20   Ni2   1.899123 S    
C25   N25   1.333581 A    
N53   C189  1.446890 S    
N68   O39   1.301100 A    
C125  N37   1.437162 S    
C101  C105  1.389414 A    
C190  H80   1.111206 S    
C51   C59   1.393587 A    
N13   N21   1.368035 A    
C203  H130  1.110393 S    
C177  H25   1.080537 S    
C50   N50   1.430768 S    
C192  H88   1.108681 S    
C9    N9    1.325246 A    
N50   C186  1.444866 S    
N19   Ni1   1.899121 S    
C103  C107  1.388583 A    
C148  C156  1.424908 A    
C11   H11   1.075091 S    
N44   O23   1.300167 A    
C204  H134  1.110179 S    
C181  H29   1.080677 S    
C12   N12   1.337683 A    
C13   N13   1.329777 A    
C172  H52   1.074518 S    
C173  H53   1.079520 S    
C152  C160  1.424797 A    
C205  H139  1.109280 S    
C114  C130  1.398034 A    
C189  H74   1.110246 S    
C22   N22   1.315661 A    
C66   N58   1.423086 S    
C140  C148  1.402523 A    
C173  C181  1.394572 A    
C207  H147  1.110388 S    
N8    Ni3   1.898007 S    
C131  H44   1.080043 S    
C171  C179  1.393801 A    
N38   O11   1.301562 A    
N76   C204  1.447551 S    
C208  H151  1.110948 S    
N59   H97   1.027899 S    
C202  H128  1.111190 S    
C54   C94   1.392836 A    
C112  N80   1.428246 S    
N58   H93   1.027096 S    
C66   C74   1.395892 A    
C127  C159  1.424119 A    
C186  H64   1.111091 S    
C149  C165  1.417916 A    
C204  H136  1.111123 S    
C125  C133  1.408465 A    
C148  C164  1.422515 A    
N72   O48   1.300973 A    
N13   Ni7   1.868616 S    
C107  N75   1.427291 S    
C109  N77   1.428169 S    
C161  C166  1.413042 A    
C145  C153  1.418112 A    
N14   N22   1.368034 A    
C192  H87   1.108765 S    
N33   O1    1.301307 A    
C32   N32   1.343667 A    
N55   H81   1.030965 S    
C73   C97   1.421435 A    
C37   C119  1.467342 S    
C191  H84   1.110709 S    
C128  C136  1.395462 A    
C119  C135  1.396623 A    
C52   C92   1.390962 A    
C3    H3    1.079621 S    
C17   C41   1.364106 A    
N50   H61   1.030150 S    
C4    N4    1.337214 A    
N3    Ni2   1.898004 S    
N78   C206  1.447034 S    
C5    N5    1.346785 A    
N25   Ni6   1.867602 S    
C62   C70   1.398543 A    
C55   C95   1.399666 A    
N54   H77   1.029999 S    
C56   C96   1.394124 A    
N47   O30   1.300130 A    
C198  H110  1.106585 S    
C50   C90   1.394363 A    
C164  C167  1.413850 A    
C23   N23   1.334654 A    
C87   C95   1.419161 A    
C194  H95   1.111539 S    
C126  N38   1.438760 S    
C185  H59   1.110222 S    
C188  H70   1.109593 S    
N4    N26   1.421739 A    
C119  C143  1.385351 A    
N64   H117  1.029091 S    
C199  H114  1.110233 S    
N29   Ni8   1.867602 S    
C25   N41   1.423033 S    
N68   O40   1.301167 A    
N61   H105  1.028463 S    
N67   O38   1.300564 A    
C157  C177  1.403605 A    
N75   H129  1.030757 S    
C143  H40   1.079014 S    
C122  C154  1.414843 A    
N37   O9    1.301486 A    
C144  H39   1.075585 S    
C161  C170  1.412570 A    
C175  C183  1.394786 A    
N36   O7    1.301596 A    
N1    Ni1   1.900194 S    
C126  C158  1.414813 A    
C140  H35   1.076569 S    
C78   C102  1.417476 A    
C17   H17   1.080987 S    
C60   C68   1.396979 A    
C20   H20   1.076883 S    
C21   H21   1.081075 S    
N24   Ni4   1.899123 S    
C67   N59   1.429229 S    
C23   H23   1.080848 S    
C89   C106  1.414538 A    
N69   O42   1.300980 A    
C24   H24   1.075101 S    
C81   C86   1.398908 A    
C93   C110  1.414470 A    
C201  H124  1.109667 S    
C27   N43   1.420910 S    
C71   C79   1.394912 A    
C29   N29   1.332216 A    
N9    Ni5   1.868616 S    
C52   N52   1.431917 S    
N49   C185  1.446660 S    
C139  C147  1.395554 A    
N16   N24   1.368036 A    
C137  C145  1.395355 A    
N42   O20   1.301238 A    
N51   C187  1.450383 S    
C142  H37   1.076425 S    
N40   O16   1.301413 A    
C18   C42   1.361732 A    
C179  H27   1.080730 S    
N26   Ni5   1.867602 S    
C12   H12   1.073066 S    
C200  H120  1.112739 S    
C138  H33   1.076910 S    
C159  C179  1.402341 A    
C39   C117  1.468310 S    
C193  H92   1.112301 S    
C24   N24   1.318038 A    
C20   C44   1.360429 A    
C167  C176  1.413050 A    
C118  C142  1.391962 A    
C72   N64   1.427113 S    
N46   O28   1.301151 A    
N2    Ni2   1.900194 S    
N79   H145  1.030780 S    
C6    H6    1.080520 S    
C18   N18   1.320236 A    
N67   O37   1.299584 A    
C16   C48   1.377760 A    
C206  H142  1.110239 S    
C65   C73   1.401249 A    
C19   N19   1.327570 A    
C198  H112  1.112789 S    
C79   C103  1.417550 A    
N65   O34   1.300872 A    
C170  C178  1.382602 A    
C9    C41   1.359508 A    
C189  H75   1.109021 S    
C115  C139  1.387086 A    
C102  C106  1.399725 A    
C188  H72   1.111125 S    
C95   C112  1.413000 A    
C187  H67   1.111928 S    
C96   C111  1.407164 A    
C113  C137  1.385554 A    
C188  H71   1.110745 S    
N18   Ni1   1.901309 S    
C26   N42   1.429538 S    
N66   O35   1.300936 A    
C10   N10   1.336553 A    
N74   C202  1.447000 S    
C169  C177  1.395558 A    
C195  H99   1.108247 S    
C79   C87   1.422630 A    
C122  C130  1.394925 A    
C174  H54   1.074508 S    
C76   C100  1.418471 A    
C147  C155  1.417252 A    
C77   C101  1.415490 A    
C32   N48   1.429307 S    
C53   N53   1.430590 S    
C75   C99   1.415427 A    
N30   Ni7   1.867602 S    
N10   Ni6   1.868616 S    
C80   C88   1.419769 A    
C196  H102  1.108229 S    
N31   Ni7   1.867667 S    
C6    C38   1.380805 A    
C74   C82   1.419708 A    
C7    N7    1.347583 A    
N38   O12   1.301392 A    
C8    N8    1.336497 A    
N62   C198  1.451423 S    
C185  H60   1.111048 S    
N57   C193  1.453214 S    
C67   C75   1.393846 A    
C27   C33   1.397653 A    
C201  H122  1.110301 S    
C99   N67   1.433343 S    
C49   C57   1.393830 A    
N63   C199  1.450359 S    
N73   H121  1.030700 S    
C207  H146  1.110254 S    
C166  C173  1.413123 A    
N48   O32   1.301048 A    
C4    C36   1.380434 A    
N3    N25   1.421741 A    
N8    N30   1.421739 A    
C9    H9    1.074565 S    
C55   C63   1.394574 A    
N63   H113  1.028293 S    
N23   Ni3   1.899121 S    
C171  H51   1.079376 S    
N78   H141  1.030708 S    
C187  H66   1.109984 S    
C103  N71   1.435367 S    
C28   N28   1.343601 A    
N5    N31   1.421741 A    
N53   H73   1.031135 S    
C193  H90   1.107832 S    
C163  C172  1.411924 A    
C190  H79   1.110971 S    
C200  H118  1.107901 S    
C145  C161  1.418128 A    
C98   N66   1.434797 S    
C129  H42   1.081820 S    
C73   C81   1.426313 A    
N64   C200  1.450624 S    
C63   C71   1.403146 A    
C64   C72   1.398498 A    
C65   N57   1.428725 S    
C69   N61   1.431218 S    
N44   O24   1.301290 A    
N56   H85   1.031614 S    
C6    N6    1.336738 A    
C206  H144  1.111163 S    
N70   O43   1.300943 A    
C3    C35   1.391315 A    
C44   C57   1.424951 S    
N45   O26   1.300237 A    
C164  C171  1.413139 A    
C17   N17   1.331458 A    
C149  C157  1.417857 A    
C91   C108  1.412491 A    
C48   C61   1.412908 S    
C191  H82   1.110289 S    
C21   C45   1.359648 A    
C56   N56   1.436009 S    
C175  H55   1.079498 S    
C121  N33   1.437084 S    
C168  C175  1.413015 A    
C176  H56   1.074987 S    
N6    N32   1.421744 A    
C123  C131  1.408134 A    
N12   Ni5   1.868612 S    
C204  H135  1.110594 S    
C141  C149  1.395196 A    
N74   H125  1.030677 S    
C15   N15   1.325287 A    
C208  H150  1.110245 S    
C202  H127  1.110933 S    
C38   C120  1.468944 S    
C26   N26   1.343651 A    
C186  H63   1.110209 S    
C14   N14   1.334257 A    
C124  C156  1.415264 A    
C18   H18   1.075883 S    
C197  H108  1.110348 S    
C1    H1    1.079547 S    
C24   C48   1.360093 A    
C196  H104  1.111194 S    
C49   C89   1.401976 A    
N52   H69   1.029646 S    
C34   C116  1.465626 S    
C22   H22   1.073430 S    
N47   O29   1.300843 A    
C90   C105  1.412396 A    
C178  H26   1.081556 S    
N39   O13   1.301297 A    
C111  N79   1.425281 S    
C70   C78   1.406314 A    
C82   C85   1.393191 A    
C97   C109  1.390937 A    
C94   C109  1.407210 A    
C124  N36   1.438731 S    
N35   O5    1.301129 A    
C29   N45   1.421027 S    
C174  C182  1.382614 A    
C143  C151  1.395994 A    
C31   N47   1.424709 S    
C191  H83   1.108629 S    
C68   N60   1.422964 S    
C128  C160  1.414578 A    
C122  N34   1.438723 S    
C43   C58   1.413191 S    
C155  C183  1.403093 A    
N33   O2    1.301142 A    
C32   C38   1.402032 A    
C150  C166  1.422257 A    
C104  N72   1.434466 S    
C139  H36   1.078526 S    
C126  C134  1.395087 A    
C194  H94   1.107679 S    
N77   C205  1.447408 S    
C86   C94   1.414534 A    
C59   C67   1.399937 A    
C1    N1    1.348255 A    
C22   C46   1.358713 A    
C53   C93   1.400424 A    
C57   C65   1.404276 A    
C116  C140  1.391548 A    
C170  H50   1.074609 S    
N60   H101  1.026794 S    
C56   C64   1.395934 A    
C120  C136  1.398956 A    
C68   C76   1.402025 A    
C182  H30   1.081509 S    
C69   C77   1.392409 A    
C120  C144  1.392791 A    
C78   C86   1.422741 A    
C30   N46   1.429910 S    
C72   C80   1.403100 A    
C205  H140  1.110044 S    
C27   N27   1.332471 A    
C16   N16   1.331956 A    
N6    Ni4   1.900194 S    
N7    Ni4   1.898004 S    
N34   O4    1.301388 A    
C117  C133  1.397345 A    
C100  C112  1.397012 A    
C207  H148  1.110712 S    
N32   Ni8   1.867670 S    
C11   N11   1.327507 A    
C104  C108  1.400375 A    
C51   N51   1.431150 S    
N79   C207  1.448311 S    
N41   O17   1.300438 A    
C208  H152  1.111170 S    
C13   H13   1.074178 S    
C176  C184  1.382847 A    
C105  N73   1.427913 S    
C84   C92   1.417383 A    
C133  H46   1.083463 S    
C85   C93   1.422393 A    
C28   C34   1.400521 A    
C135  H48   1.082347 S    
C201  H123  1.110460 S    
C183  H31   1.080750 S    
C136  H47   1.083085 S    
N43   O21   1.299752 A    
C88   C96   1.418847 A    
N72   O47   1.300469 A    
C2    N2    1.337210 A    
N49   H57   1.031217 S    
C197  H106  1.110302 S    
C8    C40   1.379745 A    
C185  H58   1.110314 S    
N71   O46   1.301122 A    
C76   C84   1.422717 A    
C77   C85   1.420381 A    
C195  H98   1.110258 S    
C123  C155  1.423538 A    
N51   H65   1.031013 S    
C75   C83   1.420237 A    
C121  C153  1.424256 A    
C80   C104  1.416335 A    
C151  C167  1.419026 A    
C154  C182  1.394985 A    
C127  C135  1.407219 A    
C31   C37   1.397525 A    
N55   C191  1.446897 S    
C125  C157  1.425152 A    
C193  H91   1.108948 S    
N15   Ni8   1.868609 S    
C23   C47   1.367137 A    
C40   C118  1.466223 S    
C100  N68   1.434450 S    
C55   N55   1.431067 S    
C152  C168  1.422471 A    
C127  N39   1.437075 S    
C10   H10   1.072560 S    
C52   C60   1.395940 A    
C110  N78   1.427624 S    
N70   O44   1.300884 A    
N56   C192  1.452099 S    
C82   C90   1.420592 A    
N62   H109  1.029485 S    
N27   Ni5   1.867667 S    
C198  H111  1.111147 S    
C20   N20   1.320203 A    
C194  H96   1.113073 S    
C81   C89   1.419317 A    
C30   N30   1.343990 A    
C16   H16   1.072919 S    
C163  C168  1.412882 A    
C169  H49   1.079748 S    
C200  H119  1.110578 S    
C147  C163  1.417932 A    
C14   C46   1.379970 A    
C130  H41   1.083450 S    
C123  N35   1.436893 S    
C138  C146  1.402746 A    
C70   N62   1.424114 S    
N61   C197  1.448970 S    
N21   Ni4   1.901308 S    
N66   O36   1.301020 A    
C99   C111  1.389557 A    
N75   C203  1.447266 S    
C19   C43   1.360821 A    
C42   C59   1.420779 S    
C13   C45   1.364852 A    
C25   C35   1.397513 A    
C74   C98   1.414472 A    
C46   C63   1.416401 S    
C205  H138  1.110331 S    
C160  C180  1.395157 A    
N9    N17   1.368035 A    
N41   O18   1.300325 A    
N77   H137  1.030800 S    
C29   C39   1.396432 A    
N43   O22   1.300476 A    
N28   Ni6   1.867670 S    
N1    N27   1.421741 A    
C15   C47   1.359767 A    
C117  C141  1.385708 A    
N58   C194  1.451163 S    
C71   N63   1.430903 S    
C49   N49   1.429881 S    
N52   C188  1.445515 S    
N76   H133  1.030644 S    
C165  C174  1.412172 A    
N80   H149  1.030682 S    
C108  N76   1.425626 S    
N15   N23   1.368035 A    
N16   Ni7   1.868612 S    
C199  H115  1.106397 S    
C199  H116  1.109976 S    
C102  N70   1.432816 S    
N54   C190  1.445340 S    
N39   O14   1.301165 A    
N57   H89   1.029245 S    
N5    Ni3   1.900194 S    
C36   C114  1.466366 S    
C10   C42   1.380737 A    
N11   N19   1.368035 A    
C114  C138  1.393001 A    
N12   N20   1.368036 A    
C19   H19   1.080972 S    
C2    H2    1.080224 S    
N17   Ni2   1.901308 S    
N42   O19   1.300224 A    
C203  H131  1.110100 S    
C61   C69   1.400587 A    
N40   O15   1.301542 A    
C1    C33   1.393816 A    
C180  H28   1.081486 S    
C51   C91   1.405444 A    
C121  C129  1.407826 A    
C151  C159  1.418739 A    
C5    C37   1.390419 A    
C184  H32   1.081548 S    
C98   C110  1.396366 A    
C162  C165  1.412661 A    
C7    C39   1.390764 A    
C190  H78   1.109638 S    
C92   C107  1.409525 A    
C146  C154  1.425094 A    
C54   N54   1.431410 S    
C97   N65   1.431860 S    
N46   O27   1.300021 A    
C172  C180  1.382712 A    
C83   C88   1.396378 A    
C101  N69   1.435188 S    
N71   O45   1.299263 A    
N37   O10   1.301134 A    
C203  H132  1.110171 S    
C192  H86   1.110056 S    
N60   C196  1.448466 S    
C12   C44   1.381522 A    
C53   C61   1.393116 A    
C35   C113  1.468800 S    
C106  N74   1.428234 S    
C206  H143  1.110810 S    
C15   H15   1.075521 S    
N36   O8    1.301383 A    
C33   C115  1.473139 S    
N45   O25   1.299041 A    
C50   C58   1.395432 A    
C189  H76   1.110901 S    
C124  C132  1.395245 A    
C144  C152  1.402536 A    
N7    N29   1.421741 A    
C187  H68   1.109839 S    
N10   N18   1.368034 A    
C132  H43   1.083409 S    
C118  C134  1.398200 A    
C54   C62   1.396544 A    
C58   C66   1.392382 A    
