data_mof_unit_64191.cif
_audit_creation_date              2012-12-10T21:21:41-0500
_audit_creation_method            fapswitch 2.2
_symmetry_space_group_name_H-M    P1
_symmetry_Int_Tables_number       1
_space_group_crystal_system       triclinic
_cell_length_a                    17.471673
_cell_length_b                    16.758248
_cell_length_c                    23.36835
_cell_angle_alpha                 89.867993
_cell_angle_beta                  90.794392
_cell_angle_gamma                 89.979318
_cell_volume                      6841.45105942

loop_
_atom_site_label
_atom_site_type_symbol
_atom_type_description
_atom_site_fract_x
_atom_site_fract_y
_atom_site_fract_z
_atom_type_partial_charge
C1    C     C_R   0.352933 0.499918 0.501700 0.958400
C2    C     C_R   0.647671 0.500004 0.500084 0.945393
C3    C     C_R   0.571452 0.476010 0.240776 -0.107279
C4    C     C_R   0.439748 0.521914 0.762146 -0.113329
C5    C     C_R   0.569632 0.476637 0.300181 0.187845
C6    C     C_R   0.437401 0.523011 0.702701 0.183525
C7    C     C_R   0.502192 0.499957 0.327707 -0.170704
C8    C     C_R   0.502540 0.499839 0.672295 -0.172225
C9    C     C_R   0.436910 0.522269 0.295735 0.189824
C10   C     C_R   0.570000 0.476834 0.701397 0.187055
C11   C     C_R   0.439513 0.521387 0.236353 -0.116535
C12   C     C_R   0.571554 0.476029 0.760835 -0.116281
C13   C     C_R   0.506566 0.498265 0.209019 0.201728
C14   C     C_R   0.506549 0.498247 0.791054 0.204040
C15   C     C_R   0.849383 0.571158 0.530122 -0.179350
C16   C     C_R   0.160325 0.439710 0.557639 -0.187806
C17   C     C_R   0.147243 0.565141 0.506708 -0.198811
C18   C     C_R   0.850119 0.427113 0.525155 -0.172211
C19   C     C_R   0.771976 0.572999 0.514903 0.088986
C20   C     C_R   0.238068 0.437511 0.545248 0.071709
C21   C     C_R   0.224623 0.563987 0.493457 0.081984
C22   C     C_R   0.772651 0.426586 0.509881 0.110886
C23   C     C_R   0.731844 0.499968 0.506748 -0.051188
C24   C     C_R   0.270669 0.499680 0.512382 -0.019945
C25   C     C_R   0.887287 0.498791 0.535899 0.105655
C26   C     C_R   0.115736 0.503178 0.538306 0.118037
C27   C     C_R   0.499911 0.500045 0.389412 0.989370
C28   C     C_R   0.500377 0.499945 0.610573 0.988737
C29   C     C_1   0.967556 0.499057 0.543385 -0.027546
C30   C     C_1   0.035546 0.500488 0.544148 -0.027025
C31   C     C_R   0.458967 0.833045 0.458572 -0.314913
C32   C     C_R   0.545633 0.167145 0.538676 -0.315726
C33   C     C_R   0.541532 0.832578 0.541468 -0.311900
C34   C     C_R   0.453212 0.167676 0.461646 -0.310921
C35   C     C_R   0.459210 0.748630 0.459136 0.224188
C36   C     C_R   0.545229 0.251543 0.538183 0.228581
C37   C     C_R   0.541189 0.748115 0.540775 0.238508
C38   C     C_R   0.453887 0.252128 0.462253 0.236421
C39   C     C_R   0.500161 0.875904 0.500084 0.130823
C40   C     C_R   0.499550 0.124318 0.500041 0.130052
C41   C     C_1   0.499947 0.963596 0.500102 -0.015877
C42   C     C_1   0.499684 0.036628 0.500032 -0.015759
C43   C     C_R   0.550185 0.553465 0.880570 0.523989
C44   C     C_R   0.467959 0.439326 0.119537 0.523857
C45   C     C_R   0.467783 0.439443 0.879928 0.522488
C46   C     C_R   0.550328 0.553373 0.120224 0.523020
C47   C     C_R   0.467590 0.437683 0.939678 -0.023344
C48   C     C_R   0.552055 0.553952 0.060480 -0.023703
C49   C     C_R   0.509966 0.495705 0.970008 -0.018159
C50   C     C_R   0.510015 0.495672 0.030142 -0.018129
C51   C     C_R   0.551965 0.554012 0.940346 -0.024014
C52   C     C_R   0.467695 0.437612 0.059789 -0.024011
C53   C     C_R   0.426041 0.379757 0.969615 -0.149665
C54   C     C_R   0.594090 0.611493 0.030541 -0.149145
C55   C     C_R   0.426097 0.379719 0.029185 -0.149339
C56   C     C_R   0.594046 0.611522 0.970962 -0.149302
H1    H     H_    0.393180 0.334528 0.947163 0.195075
H2    H     H_    0.626869 0.656785 0.052994 0.195348
H3    H     H_    0.393273 0.334465 0.051109 0.195216
H4    H     H_    0.626796 0.656833 0.949034 0.195182
H5    H     H_    0.623080 0.458116 0.219112 0.180662
H6    H     H_    0.389801 0.539318 0.786061 0.179346
H7    H     H_    0.389453 0.538196 0.211260 0.179798
H8    H     H_    0.623173 0.458341 0.783724 0.179874
H9    H     H_    0.880835 0.626416 0.535882 0.138992
H10   H     H_    0.134703 0.391411 0.581666 0.145135
H11   H     H_    0.111322 0.613458 0.490964 0.142445
H12   H     H_    0.882139 0.371697 0.527093 0.138033
H13   H     H_    0.426468 0.864708 0.425855 0.152441
H14   H     H_    0.581792 0.135486 0.569182 0.152298
H15   H     H_    0.574202 0.863884 0.574149 0.151991
H16   H     H_    0.416512 0.136421 0.431409 0.152459
N1    N     N_R   0.508380 0.496914 0.851940 -0.345469
N2    N     N_R   0.508533 0.496820 0.148177 -0.345613
N3    N     N_R   0.500000 0.707230 0.500000 -0.081039
N4    N     N_R   0.500000 0.292770 0.500000 -0.079526
O1    O     O_R   0.389110 0.566570 0.500000 -0.577508
O2    O     O_R   0.610890 0.433430 0.500000 -0.577385
O3    O     O_R   0.610890 0.566570 0.500000 -0.600144
O4    O     O_R   0.389110 0.433430 0.500000 -0.601411
O5    O     O_R   0.499970 0.566560 0.416150 -0.595840
O6    O     O_R   0.500030 0.433440 0.583850 -0.594777
O7    O     O_R   0.500030 0.566560 0.583850 -0.588978
O8    O     O_R   0.499970 0.433440 0.416150 -0.590478
O9    O     O_2   0.589201 0.609261 0.851149 -0.544075
O10   O     O_2   0.428291 0.384020 0.148943 -0.543604
O11   O     O_2   0.428045 0.384194 0.849880 -0.545992
O12   O     O_2   0.589360 0.609160 0.150266 -0.543930
Zn1   Zn    Zn3+2 0.500000 0.588860 0.500000 1.028029
Zn2   Zn    Zn3+2 0.500000 0.411140 0.500000 1.026174
N5    N     N_3   0.416681 0.706184 0.416419 -0.359124
H17   H     H_    0.439143 0.721095 0.376561 0.194627
H18   H     H_    0.360254 0.726782 0.416929 0.185629
N6    N     N_3   0.591804 0.294298 0.578349 -0.357305
H19   H     H_    0.574272 0.278609 0.619462 0.193654
H20   H     H_    0.648299 0.274985 0.574050 0.194906
N7    N     N_3   0.584229 0.705034 0.583102 -0.374004
H21   H     H_    0.563054 0.720320 0.623244 0.189309
H22   H     H_    0.641010 0.724409 0.581627 0.181857
N8    N     N_3   0.405620 0.295634 0.423430 -0.382162
H23   H     H_    0.419455 0.278754 0.381789 0.189051
H24   H     H_    0.349007 0.278582 0.430650 0.171992
Br1   Br    Br    0.660672 0.446861 0.341982 -0.544849
Br2   Br    Br    0.344014 0.554817 0.664802 -0.519561
Br3   Br    Br    0.342495 0.550913 0.331312 -0.537499
Br4   Br    Br    0.661886 0.449337 0.661800 -0.518288
N9    N     N_3   0.734898 0.648853 0.506663 -0.427014
H25   H     H_    0.770329 0.695642 0.520169 0.174130
H26   H     H_    0.726022 0.656455 0.462646 0.202978
N10   N     N_3   0.283858 0.373104 0.567284 -0.421007
H27   H     H_    0.260961 0.319578 0.551799 0.181798
H28   H     H_    0.279529 0.372720 0.611869 0.217800
N11   N     N_3   0.255671 0.627237 0.459678 -0.417546
H29   H     H_    0.224933 0.629931 0.421012 0.216396
H30   H     H_    0.246858 0.680901 0.481364 0.189120
N12   N     N_3   0.736184 0.351938 0.496357 -0.419601
H31   H     H_    0.772297 0.303845 0.506032 0.173657
H32   H     H_    0.726633 0.350856 0.452110 0.227369

loop_
_geom_bond_atom_site_label_1
_geom_bond_atom_site_label_2
_ccdc_geom_bond_type
C43   N1    A    
C5    Br1   S    
C55   H3    S    
C1    O1    A    
C41   C42   T    
C19   C23   A    
C37   N7    S    
N7    H21   S    
C39   C41   S    
C38   N4    A    
O2    Zn2   S    
C15   C19   A    
C35   N3    A    
C33   C39   A    
C34   C40   A    
C17   C26   A    
C32   C36   A    
C27   O8    A    
C45   O11   S    
C11   H7    S    
N3    Zn1   S    
C12   H8    S    
C15   C25   A    
C3    H5    S    
C18   H12   S    
C15   H9    S    
C4    H6    S    
C7    C27   S    
N12   H31   S    
C45   N1    A    
C51   C56   A    
C45   C47   A    
N10   H27   S    
C19   N9    S    
C2    O3    A    
C36   N4    A    
N10   H28   S    
C20   C24   A    
N12   H32   S    
C49   C51   A    
C50   C52   A    
N9    H25   S    
C6    Br2   S    
C3    C13   A    
C52   C55   A    
C47   C53   A    
O5    Zn1   S    
C44   C52   A    
C48   C50   A    
C37   N3    A    
C18   C22   A    
C28   O7    A    
C16   C26   A    
N9    H26   S    
C18   C25   A    
O8    Zn2   S    
C44   O10   S    
N7    H22   S    
C46   O12   S    
C53   C55   A    
C25   C29   S    
O7    Zn1   S    
C46   C48   A    
C17   H11   S    
C28   O6    A    
C43   O9    S    
C14   N1    S    
C27   O5    A    
C4    C6    A    
N5    H17   S    
C5    C7    A    
C53   H1    S    
C6    C8    A    
C17   C21   A    
C56   H4    S    
C48   C54   A    
C29   C30   T    
C2    O2    A    
N5    H18   S    
C40   C42   S    
C16   C20   A    
O1    Zn1   S    
N8    H24   S    
N6    H20   S    
C9    C11   A    
C10   C12   A    
C20   N10   S    
C21   N11   S    
C12   C14   A    
C26   C30   S    
C8    C28   S    
C31   C35   A    
C10   Br4   S    
C16   H10   S    
C34   H16   S    
C46   N2    A    
N11   H29   S    
C54   H2    S    
C7    C9    A    
C34   C38   A    
C44   N2    A    
C3    C5    A    
C32   H14   S    
C54   C56   A    
C47   C49   A    
O6    Zn2   S    
C4    C14   A    
C11   C13   A    
C38   N8    S    
C43   C51   A    
C22   N12   S    
N8    H23   S    
C31   C39   A    
C32   C40   A    
O4    Zn2   S    
N6    H19   S    
C33   C37   A    
O3    Zn1   S    
C33   H15   S    
C36   N6    S    
C31   H13   S    
C13   N2    S    
C1    C24   S    
C8    C10   A    
C49   C50   A    
C21   C24   A    
C2    C23   S    
C1    O4    A    
C22   C23   A    
C9    Br3   S    
N4    Zn2   S    
N11   H30   S    
C35   N5    S    
