data_mof_unit_7643.cif
_audit_creation_date              2012-12-11T19:16:17-0500
_audit_creation_method            fapswitch 2.2
_symmetry_space_group_name_H-M    P1
_symmetry_Int_Tables_number       1
_space_group_crystal_system       triclinic
_cell_length_a                    8.398693
_cell_length_b                    15.32343
_cell_length_c                    18.932238
_cell_angle_alpha                 104.291051
_cell_angle_beta                  91.643559
_cell_angle_gamma                 99.13077
_cell_volume                      2325.33025059

loop_
_atom_site_label
_atom_site_type_symbol
_atom_type_description
_atom_site_fract_x
_atom_site_fract_y
_atom_site_fract_z
_atom_type_partial_charge
Ba1   Ba    Ba6+2 0.853510 0.540900 0.466480 1.861911
Ba2   Ba    Ba6+2 0.336320 0.459170 0.533530 1.873752
C1    C     C_3   0.530216 0.760082 0.198376 -0.354082
C2    C     C_R   0.898366 0.405446 0.091296 -0.045591
C3    C     C_R   0.786307 0.394284 0.940015 -0.065094
C4    C     C_3   0.121480 0.711163 0.273931 0.379391
C5    C     C_R   0.943899 0.436818 0.969100 0.029010
C6    C     C_R   0.731048 0.393700 0.870246 -0.097956
C7    C     C_R   0.829510 0.434750 0.824963 -0.089375
C8    C     C_R   0.989928 0.478456 0.851073 0.001238
C9    C     C_R   0.047788 0.478023 0.923458 0.032963
C10   C     C_R   0.767204 0.438414 0.756276 -0.064177
C11   C     C_R   0.862245 0.493321 0.717995 0.157190
C12   C     C_3   0.614307 0.758915 0.270888 0.798550
C13   C     C_R   0.029851 0.527120 0.734451 0.009286
C14   C     C_R   0.090654 0.524022 0.805946 -0.072938
C15   C     C_R   0.160444 0.480318 0.068262 0.034476
C16   C     C_3   0.097690 0.727867 0.198659 -0.280569
C17   C     C_R   0.215295 0.486357 0.142465 0.010683
C18   C     C_R   0.108181 0.454930 0.191739 -0.064728
C19   C     C_R   0.952588 0.411459 0.162979 0.017330
C20   C     C_R   0.243514 0.570877 0.836884 0.009190
C21   C     C_R   0.302348 0.566817 0.905867 -0.076975
C22   C     C_R   0.208422 0.519020 0.949883 -0.000011
C23   C     C_3   0.430554 0.296711 0.312864 0.313263
C24   C     C_R   0.267740 0.514490 0.020561 0.031379
C25   C     C_R   0.432598 0.541120 0.044843 -0.088754
C26   C     C_R   0.378159 0.522801 0.166814 -0.023218
C27   C     C_R   0.486679 0.543478 0.115662 -0.101218
C28   C     C_3   0.161296 0.771788 0.667969 0.523795
C29   C     C_R   0.427837 0.538517 0.241603 -0.023369
C30   C     C_R   0.318705 0.512116 0.290639 -0.283880
C31   C     C_R   0.160411 0.467331 0.267423 0.026255
C32   C     C_R   0.360269 0.821392 0.450678 0.009871
C33   C     C_R   0.590616 0.799657 0.522402 -0.025524
C34   C     C_3   0.458467 0.285135 0.232115 0.286856
C35   C     C_R   0.757045 0.234458 0.526792 -0.203963
C36   C     C_R   0.858345 0.177293 0.544283 0.035159
C37   C     C_R   0.807658 0.082941 0.522752 0.094757
C38   C     C_R   0.643042 0.046010 0.504217 0.066737
C39   C     C_R   0.547757 0.102561 0.478108 -0.014209
C40   C     C_3   0.237320 0.870308 0.708086 -0.291359
C41   C     C_R   0.574951 0.953204 0.504016 0.003689
C42   C     C_R   0.421933 0.915548 0.464125 -0.059554
C43   C     C_R   0.334054 0.972356 0.436645 -0.087898
C44   C     C_R   0.395549 0.063413 0.443617 -0.016191
C45   C     C_3   0.030336 0.255451 0.722475 0.351764
C46   C     C_R   0.647060 0.897245 0.543495 0.334534
C47   C     C_R   0.456906 0.764155 0.471490 -0.201821
C48   C     C_R   0.610395 0.196643 0.485499 0.006216
C49   C     C_3   0.888058 0.236970 0.305067 0.661769
C50   C     C_3   0.819027 0.160827 0.236276 0.235982
C51   C     C_3   0.551982 0.756841 0.686375 0.390539
C52   C     C_3   0.572030 0.777427 0.769856 -0.260335
C53   C     C_3   0.099517 0.259893 0.799115 0.353918
C54   C     C_3   0.554832 0.213220 0.699588 0.362460
C55   C     C_3   0.592709 0.171358 0.762137 -0.250470
C56   C     C_R   0.998963 0.440634 0.042464 0.000435
Cl1   Cl    Cl    0.803180 0.198677 0.155252 -0.627029
Cl2   Cl    Cl    0.217868 0.741987 0.578241 -0.784640
H1    H     H_    0.340630 0.873689 0.746568 0.113288
H2    H     H_    0.652061 0.734562 0.787399 0.171648
H3    H     H_    0.453582 0.763974 0.792895 0.072673
H4    H     H_    0.625970 0.850121 0.793694 0.147520
H5    H     H_    0.522978 0.746061 0.310150 -0.227810
H6    H     H_    0.478005 0.823094 0.202836 0.126280
H7    H     H_    0.299753 0.286648 0.320092 0.111608
H8    H     H_    0.483906 0.368688 0.340411 -0.081220
H9    H     H_    0.410791 0.339340 0.212825 -0.106569
H10   H     H_    0.589804 0.294618 0.225531 0.049167
H11   H     H_    0.428319 0.702797 0.181962 0.036759
H12   H     H_    0.275803 0.911661 0.668969 0.146142
H13   H     H_    0.126048 0.669376 0.156108 0.039761
H14   H     H_    0.029588 0.326766 0.719106 -0.157812
H15   H     H_    0.905668 0.217436 0.714676 0.018658
H16   H     H_    0.224285 0.299295 0.808849 0.057036
H17   H     H_    0.024337 0.295707 0.839897 -0.048598
H18   H     H_    0.667379 0.238572 0.676269 -0.169893
H19   H     H_    0.483274 0.158719 0.655027 0.087480
H20   H     H_    0.701318 0.212422 0.796132 0.087463
H21   H     H_    0.613457 0.100366 0.740799 0.183678
H22   H     H_    0.033126 0.650051 0.276473 0.079978
H23   H     H_    0.148216 0.903913 0.742507 0.137370
H24   H     H_    0.490378 0.169292 0.797796 0.190410
H25   H     H_    0.607280 0.361812 0.853103 0.094188
H26   H     H_    0.867539 0.382721 0.195789 0.145282
H27   H     H_    0.320136 0.612253 0.808536 0.109059
H28   H     H_    0.614549 0.565718 0.130447 0.094501
H29   H     H_    0.360609 0.522076 0.347098 0.056163
H30   H     H_    0.700365 0.360385 0.969758 0.096901
H31   H     H_    0.774391 0.373331 0.076578 0.104766
H32   H     H_    0.421101 0.605578 0.924971 0.072984
H33   H     H_    0.246031 0.697344 0.280727 -0.123641
H34   H     H_    0.792519 0.275095 0.328548 -0.079795
H35   H     H_    0.523704 0.559311 0.009512 0.073609
H36   H     H_    0.413330 0.691177 0.456620 0.066648
H37   H     H_    0.217246 0.947078 0.407283 0.139587
H38   H     H_    0.800774 0.307180 0.537659 0.070065
H39   H     H_    0.896323 0.039541 0.523966 0.151116
H40   H     H_    0.322590 0.102260 0.420266 0.161509
H41   H     H_    0.970650 0.734926 0.187668 0.172588
H42   H     H_    0.178299 0.791297 0.195275 0.137211
H43   H     H_    0.033790 0.778072 0.665458 0.113662
H44   H     H_    0.505169 0.921955 0.319570 0.297015
H45   H     H_    0.697624 0.127280 0.246090 0.121879
H46   H     H_    0.077537 0.067919 0.317798 0.378695
H47   H     H_    0.158012 0.230181 0.141138 0.353843
H48   H     H_    0.118304 0.057969 0.708728 0.389156
H49   H     H_    0.892857 0.656540 0.641238 0.353408
H50   H     H_    0.873466 0.929031 0.723855 0.382161
H51   H     H_    0.896497 0.107317 0.223983 0.163974
H52   H     H_    0.467980 0.693313 0.664312 0.101792
H53   H     H_    0.505474 0.812729 0.669782 0.014779
H54   H     H_    0.616752 0.755324 0.154847 0.133134
O1    O     O_2   0.871970 0.437290 0.322980 -0.496450
O2    O     O_2   0.188523 0.182263 0.534284 -0.440308
O3    O     O_3   0.123819 0.210709 0.669587 -0.559267
O4    O     O_3   0.121420 0.444460 0.412460 -0.460479
O5    O     O_3   0.580410 0.613230 0.540280 -0.434806
O6    O     O_2   0.337420 0.273080 0.457680 -0.397681
O7    O     O_3   0.501432 0.233382 0.340679 -0.619752
O8    O     O_2   0.434968 0.449574 0.758038 -0.455715
O9    O     O_3   0.458003 0.279621 0.724642 -0.590263
O10   O     O_3   0.661430 0.607560 0.372520 -0.468297
O11   O     O_2   0.752399 0.526695 0.246088 -0.511689
O12   O     O_3   0.701010 0.748802 0.658063 -0.548934
O13   O     O_3   0.022812 0.293422 0.289874 -0.636050
O14   O     O_3   0.720585 0.694751 0.258140 -0.608168
O15   O     O_2   0.852280 0.726960 0.542370 -0.406077
O16   O     O_3   0.083990 0.657360 0.410240 -0.466565
O17   O     O_2   0.029324 0.822767 0.463903 -0.349474
O18   O     O_2   0.795362 0.875267 0.385724 -0.279952
O19   O     O_2   0.869268 0.887040 0.263861 -0.251138
O20   O     O_3   0.615713 0.951096 0.313189 -0.470903
O21   O     O_2   0.017103 0.255969 0.436013 -0.326066
O22   O     O_2   0.831195 0.111399 0.380670 -0.345967
O23   O     O_3   0.096050 0.788214 0.327775 -0.553087
O24   O     O_3   0.119649 0.134334 0.334368 -0.500216
O25   O     O_2   0.381328 0.101261 0.211359 -0.210811
O26   O     O_2   0.430860 0.159095 0.103014 -0.194497
O27   O     O_3   0.162660 0.178885 0.163929 -0.439618
O28   O     O_2   0.182420 0.160335 0.887976 -0.221643
O29   O     O_2   0.928614 0.101168 0.812704 -0.271012
O30   O     O_3   0.199262 0.086812 0.750228 -0.519284
O31   O     O_2   0.732161 0.511402 0.596402 -0.288043
O32   O     O_2   0.605277 0.573730 0.709722 -0.300605
O33   O     O_3   0.871925 0.657303 0.692058 -0.578624
O34   O     O_2   0.317740 0.562750 0.677070 -0.432555
O35   O     O_2   0.959375 0.932639 0.596566 -0.318379
O36   O     O_2   0.798704 0.049897 0.648004 -0.383676
O37   O     O_3   0.766349 0.914157 0.696488 -0.515004
O38   O     O_3   0.068290 0.555610 0.587550 -0.433311
O39   O     O_3   0.528280 0.392520 0.627490 -0.393935
O40   O     O_3   0.199899 0.709815 0.707816 -0.650348
O41   O     O_3   0.609300 0.386850 0.459730 -0.454744
O42   O     O_3   0.105720 0.342720 0.589770 -0.466590
P1    P     P_3+3 0.039440 0.410950 0.333260 1.018660
P2    P     P_3+3 0.676740 0.714970 0.563520 1.134588
P3    P     P_3+3 0.146000 0.772314 0.413670 1.081035
P4    P     P_3+3 0.150270 0.589130 0.666750 1.093533
P5    P     P_3+3 0.066083 0.226171 0.584598 1.096201
P6    P     P_3+3 0.636495 0.592050 0.278657 0.943429
P7    P     P_3+3 0.517467 0.270208 0.436257 1.030117
P8    P     P_3+3 0.551046 0.387819 0.718634 1.048357
S1    S     S_3+6 0.730645 0.869951 0.309867 -0.020907
S2    S     S_3+6 0.962142 0.182969 0.367532 -0.105018
S3    S     S_3+6 0.360334 0.176944 0.176210 0.026281
S4    S     S_3+6 0.099540 0.149337 0.814155 -0.024432
S5    S     S_3+6 0.759217 0.557086 0.676363 -0.100930
S6    S     S_3+6 0.795463 0.949245 0.620653 -0.131605

loop_
_geom_bond_atom_site_label_1
_geom_bond_atom_site_label_2
_ccdc_geom_bond_type
O38   P4    S    
Ba2   O41   S    
C4    H22   S    
C25   C27   A    
C25   H35   S    
O11   P6    D    
C23   H7    S    
Ba2   O4    S    
O8    P8    D    
C23   C34   S    
C43   C44   A    
C42   C43   A    
C5    C9    A    
C24   C25   A    
O37   S6    S    
H44   O20   S    
O30   S4    S    
C16   H42   S    
C15   C24   A    
C26   C27   A    
C22   C24   A    
C6    H25   S    
Ba1   O15   S    
O34   P4    D    
C36   C37   A    
C53   H17   S    
H46   O24   S    
C52   H3    S    
Ba2   O34   S    
C13   C14   A    
O7    P7    S    
C9    C22   A    
C54   H18   S    
C54   C55   S    
Ba1   O38   S    
Ba1   Ba2   S    
Ba1   O5    S    
Ba1   O41   S    
C35   H38   S    
C27   H28   S    
O6    P7    D    
O21   S2    D    
C38   C41   A    
C30   H29   S    
C51   H53   S    
C6    C7    A    
C28   Cl2   S    
C28   H43   S    
C33   C47   A    
Ba2   O42   S    
C21   C22   A    
H47   O27   S    
C41   C46   A    
O13   P1    S    
C5    C56   A    
C3    H30   S    
C15   C56   A    
C2    H31   S    
C32   P3    S    
O26   S3    D    
C11   S5    S    
C29   P6    S    
C55   H20   S    
H49   O33   S    
C23   H8    S    
C53   S4    S    
C33   C46   A    
C40   H12   S    
O15   P2    D    
C34   H10   S    
O10   P6    S    
O12   P2    S    
Ba2   O38   S    
C4    C16   S    
O31   S5    D    
O27   S3    S    
O23   P3    S    
O39   P8    S    
C49   C50   S    
C54   O9    S    
O2    P5    D    
C32   C42   A    
O18   S1    D    
Ba1   O16   S    
C51   O12   S    
C37   C38   A    
C3    C5    A    
Ba2   O6    S    
C52   H2    S    
C50   H51   S    
O41   P7    S    
C51   C52   S    
O28   S4    D    
C34   S3    S    
O35   S6    D    
O16   P3    S    
C31   P1    S    
C16   H41   S    
O25   S3    D    
C41   C42   A    
O40   P4    S    
C35   C36   A    
C50   Cl1   S    
O19   S1    D    
C10   P8    S    
C37   H39   S    
C29   C30   A    
C45   O3    S    
C39   C44   A    
C4    H33   S    
O14   P6    S    
C55   H24   S    
C20   H27   S    
C18   C19   A    
C12   S1    S    
O17   P3    D    
C17   C26   A    
C54   H19   S    
C40   H1    S    
C1    C12   S    
C46   S6    S    
C18   C31   A    
C51   H52   S    
C38   C39   A    
O1    P1    D    
C50   H45   S    
H50   O37   S    
C16   H13   S    
C11   C13   A    
C55   H21   S    
C1    H6    S    
C53   H16   S    
O20   S1    S    
C39   C48   A    
H48   O30   S    
C34   H9    S    
C45   C53   S    
C7    C8    A    
C44   H40   S    
C19   H26   S    
Ba1   P2    S    
C32   C47   A    
C14   C20   A    
C48   P7    S    
C21   H32   S    
C26   C29   A    
C40   H23   S    
C45   H14   S    
C36   P5    S    
C1    H54   S    
O42   P5    S    
C3    C6    A    
Ba2   O5    S    
C1    H11   S    
Ba2   O39   S    
O24   S2    S    
O3    P5    S    
C30   C31   A    
C17   C18   A    
Ba1   P1    S    
O4    P1    S    
C33   P2    S    
C49   O13   S    
C13   P4    S    
C8    C14   A    
O9    P8    S    
O36   S6    D    
O22   S2    D    
C4    O23   S    
O5    P2    S    
C35   C48   A    
C15   C17   A    
C12   H5    S    
C2    C19   A    
Ba1   O4    S    
C47   H36   S    
C7    C10   A    
O29   S4    D    
Ba1   O10   S    
C8    C9    A    
C49   H34   S    
C45   H15   S    
C28   O40   S    
C10   C11   A    
C52   H4    S    
Ba2   P4    S    
O32   S5    D    
C2    C56   A    
C20   C21   A    
C28   C40   S    
C49   S2    S    
C43   H37   S    
Ba1   O1    S    
C12   O14   S    
C23   O7    S    
O33   S5    S    
