data_mof_unit_14651.cif
_audit_creation_date              2012-12-10T19:45:40-0500
_audit_creation_method            fapswitch 2.2
_symmetry_space_group_name_H-M    P1
_symmetry_Int_Tables_number       1
_space_group_crystal_system       triclinic
_cell_length_a                    10.794667
_cell_length_b                    14.694504
_cell_length_c                    14.674984
_cell_angle_alpha                 65.214342
_cell_angle_beta                  102.909797
_cell_angle_gamma                 102.902985
_cell_volume                      2037.70693392

loop_
_atom_site_label
_atom_site_type_symbol
_atom_type_description
_atom_site_fract_x
_atom_site_fract_y
_atom_site_fract_z
_atom_type_partial_charge
C1    C     C_R   0.475772 0.119631 0.312386 0.803524
C2    C     C_R   0.522685 0.880323 0.687735 0.811686
C3    C     C_R   0.870714 0.996947 0.501371 -0.131757
C4    C     C_R   0.129003 0.003016 0.498654 -0.143595
C5    C     C_R   0.911265 0.014839 0.409545 -0.061470
C6    C     C_R   0.088268 0.985777 0.590168 -0.064361
C7    C     C_R   0.449639 0.187305 0.205585 -0.040539
C8    C     C_R   0.535797 0.812539 0.795361 -0.040162
C9    C     C_R   0.355821 0.217490 0.031563 -0.217450
C10   C     C_R   0.594068 0.783183 0.973245 -0.225362
C11   C     C_R   0.383816 0.150319 0.131544 -0.200401
C12   C     C_R   0.586325 0.849587 0.871783 -0.192921
C13   C     C_R   0.485445 0.291583 0.179136 -0.271481
C14   C     C_R   0.496022 0.708641 0.821196 -0.269773
C15   C     C_R   0.451593 0.361128 0.080408 0.084213
C16   C     C_R   0.501038 0.640120 0.922752 0.083962
C17   C     C_R   0.389487 0.322373 0.005439 0.166052
C18   C     C_R   0.552152 0.679030 0.999261 0.160489
C19   C     C_R   0.480369 0.467723 0.053975 0.063946
C20   C     C_R   0.459556 0.534113 0.950148 0.064385
C21   C     C_R   0.396729 0.492275 0.877616 -0.226497
C22   C     C_R   0.526473 0.510072 0.128138 -0.227154
C23   C     C_R   0.262813 0.000672 0.499900 0.821058
C24   C     C_R   0.737160 0.998876 0.500826 0.835858
C25   C     C_R   0.361443 0.388533 0.905267 -0.232793
C26   C     C_R   0.561180 0.613756 0.100965 -0.231583
C27   C     C_R   0.701975 0.279753 0.676134 -0.324504
C28   C     C_R   0.306589 0.723639 0.319116 -0.328865
C29   C     C_R   0.673398 0.200182 0.643470 0.081193
C30   C     C_R   0.334040 0.802716 0.352325 0.067683
C31   C     C_R   0.521924 0.286663 0.506968 -0.000320
C32   C     C_R   0.475116 0.711958 0.494983 -0.001810
C33   C     C_R   0.547960 0.371207 0.535381 -0.024987
C34   C     C_R   0.452659 0.628821 0.464634 -0.024274
C35   C     C_R   0.638866 0.364969 0.623078 0.163815
C36   C     C_R   0.365809 0.636750 0.374564 0.165508
C37   C     C_R   0.486523 0.460219 0.481393 0.075578
C38   C     C_R   0.514412 0.539905 0.518544 0.073858
C39   C     C_R   0.603782 0.528273 0.607721 -0.234850
C40   C     C_R   0.399535 0.472805 0.390914 -0.242111
C41   C     C_R   0.665304 0.443073 0.658046 -0.196698
C42   C     C_R   0.340573 0.559142 0.339012 -0.199479
C43   C     C_R   0.278952 0.862906 0.848737 -0.122086
C44   C     C_R   0.714880 0.143517 0.154583 -0.122315
C45   C     C_R   0.201186 0.875087 0.755605 -0.156379
C46   C     C_R   0.801129 0.129127 0.244436 -0.191371
C47   C     C_R   0.182530 0.972523 0.683902 0.110764
C48   C     C_R   0.816442 0.030722 0.315450 0.125902
C49   C     C_R   0.245596 0.057578 0.705027 -0.109659
C50   C     C_R   0.741248 0.947136 0.297056 -0.088020
C51   C     C_R   0.325302 0.045122 0.797458 -0.146799
C52   C     C_R   0.654280 0.961860 0.207578 -0.148302
C53   C     C_R   0.340839 0.947832 0.869711 -0.120147
C54   C     C_R   0.641982 0.059946 0.135973 -0.113840
C55   C     C_R   0.957384 0.980407 0.592602 0.111320
C56   C     C_R   0.042066 0.019089 0.407410 0.096119
Cu1   Cu    Cu3+1 0.466270 0.918260 0.475690 0.935407
Cu2   Cu    Cu3+1 0.533730 0.081740 0.524310 0.934732
H1    H     H_    0.401440 0.938227 0.941723 0.119529
H2    H     H_    0.575157 0.071243 0.066437 0.121163
H3    H     H_    0.306951 0.187514 0.974751 0.129919
H4    H     H_    0.632858 0.813258 0.031474 0.131270
H5    H     H_    0.369691 0.537507 0.798712 0.144474
H6    H     H_    0.533825 0.465281 0.208496 0.144479
H7    H     H_    0.733982 0.438006 0.725744 0.140895
H8    H     H_    0.275070 0.565574 0.269516 0.143217
H9    H     H_    0.542173 0.713690 0.560702 0.122899
H10   H     H_    0.450052 0.282787 0.444304 0.124260
H11   H     H_    0.293150 0.871475 0.307048 0.127787
H12   H     H_    0.720378 0.133648 0.685470 0.112118
H13   H     H_    0.771963 0.274175 0.743233 0.135022
H14   H     H_    0.241479 0.731324 0.249232 0.137102
H15   H     H_    0.629286 0.584204 0.640728 0.133723
H16   H     H_    0.376013 0.417643 0.356982 0.131797
H17   H     H_    0.291643 0.787615 0.904561 0.142649
H18   H     H_    0.704041 0.219462 0.099555 0.140264
H19   H     H_    0.153448 0.808854 0.740218 0.127381
H20   H     H_    0.857127 0.194323 0.258184 0.126185
H21   H     H_    0.231461 0.133182 0.650535 0.125648
H22   H     H_    0.751127 0.870766 0.351588 0.128212
H23   H     H_    0.373614 0.110806 0.813629 0.123242
H24   H     H_    0.596943 0.897243 0.193520 0.119959
H25   H     H_    0.312933 0.359852 0.847391 0.143055
H26   H     H_    0.596783 0.642906 0.160191 0.147321
H27   H     H_    0.463392 0.682852 0.760193 0.152196
H28   H     H_    0.542267 0.316713 0.236833 0.153644
H29   H     H_    0.618804 0.929720 0.853213 0.152767
H30   H     H_    0.354567 0.069776 0.150760 0.147294
N1    N     N_R   0.584450 0.204570 0.560790 -0.175021
N2    N     N_R   0.415550 0.795430 0.439210 -0.174128
O1    O     O_R   0.455540 0.022090 0.338120 -0.582172
O2    O     O_R   0.544460 0.977910 0.661880 -0.582859
O3    O     O_R   0.512510 0.160150 0.379180 -0.596268
O4    O     O_R   0.487490 0.839850 0.620820 -0.600675
O5    O     O_R   0.291160 0.930970 0.479480 -0.572329
O6    O     O_R   0.708840 0.069030 0.520520 -0.590466
O7    O     O_R   0.348130 0.069020 0.520540 -0.584350
O8    O     O_R   0.651870 0.930980 0.479460 -0.582845
C57   C     C_3   0.909016 0.951265 0.693048 -0.408178
C58   C     C_3   0.850487 0.839629 0.734677 -0.833518
H31   H     H_    0.766100 0.823894 0.681572 0.244662
H32   H     H_    0.922423 0.790807 0.746684 0.249540
H33   H     H_    0.819059 0.819781 0.808586 0.247719
H34   H     H_    0.986352 0.964774 0.751821 0.211558
H35   H     H_    0.837557 0.998873 0.684541 0.203547
C59   C     C_3   0.089356 0.044960 0.307459 -0.364510
C60   C     C_3   0.064203 0.953376 0.278479 -0.810967
H36   H     H_    0.095749 0.885926 0.344246 0.258881
H37   H     H_    0.960955 0.935442 0.252043 0.248413
H38   H     H_    0.117603 0.970502 0.215332 0.220262
H39   H     H_    0.043425 0.107908 0.245210 0.199403
H40   H     H_    0.193523 0.074230 0.310888 0.181893

loop_
_geom_bond_atom_site_label_1
_geom_bond_atom_site_label_2
_ccdc_geom_bond_type
C27   C29   A    
C5    C56   A    
C36   C42   A    
C19   C20   A    
C18   C26   A    
C6    C55   A    
C30   N2    A    
C49   C51   A    
C29   N1    A    
C53   H1    S    
C39   C41   A    
C54   H2    S    
C15   C19   A    
C23   O5    A    
C9    H3    S    
Cu2   O3    S    
C37   C40   A    
C24   O6    A    
C38   C39   A    
C59   C60   S    
C44   H18   S    
Cu2   O6    S    
C3    C55   A    
C43   C53   A    
C32   N2    A    
C52   C54   A    
C31   N1    A    
C13   H28   S    
C50   C52   A    
C60   H36   S    
C31   C33   A    
C51   H23   S    
C34   C36   A    
C16   C20   A    
C40   C42   A    
C57   H34   S    
C1    O1    A    
C1    C7    S    
C4    C56   A    
C60   H37   S    
C3    C24   S    
C28   H14   S    
Cu2   O7    S    
C57   H35   S    
C44   C46   A    
C59   H39   S    
C45   C47   A    
C43   H17   S    
C31   H10   S    
C2    O2    A    
C5    C48   S    
C46   C48   A    
Cu1   N2    S    
C2    O4    A    
C19   C22   A    
C4    C6    A    
C6    C47   S    
C46   H20   S    
C4    C23   S    
C41   H7    S    
C27   C35   A    
C58   H33   S    
C33   C37   A    
C49   H21   S    
C51   C53   A    
C32   C34   A    
C7    C11   A    
C37   C38   A    
C9    C11   A    
C57   C58   S    
C11   H30   S    
C8    C12   A    
C58   H32   S    
C16   C18   A    
C52   H24   S    
C43   C45   A    
C56   C59   S    
C10   C12   A    
C32   H9    S    
C9    C17   A    
C23   O7    A    
Cu1   O4    S    
C13   C15   A    
Cu1   O5    S    
C60   H38   S    
C24   O8    A    
C10   H4    S    
C30   H11   S    
C27   H13   S    
C25   H25   S    
C29   H12   S    
C15   C17   A    
C21   C25   A    
C8    C14   A    
Cu1   O1    S    
C12   H29   S    
C34   C38   A    
C2    C8    S    
C14   H27   S    
C3    C5    A    
C50   H22   S    
C47   C49   A    
C17   C25   A    
C28   C30   A    
C26   H26   S    
Cu1   Cu2   S    
C59   H40   S    
C10   C18   A    
Cu1   O8    S    
C48   C50   A    
C58   H31   S    
C33   C35   A    
C40   H16   S    
C14   C16   A    
C39   H15   S    
C35   C41   A    
Cu2   N1    S    
C21   H5    S    
C22   H6    S    
C44   C54   A    
C7    C13   A    
C20   C21   A    
C28   C36   A    
C1    O3    A    
C22   C26   A    
C55   C57   S    
C42   H8    S    
C45   H19   S    
Cu2   O2    S    
