data_mof_unit_49915.cif
_audit_creation_date              2012-12-11T16:37:26-0500
_audit_creation_method            fapswitch 2.2
_symmetry_space_group_name_H-M    P1
_symmetry_Int_Tables_number       1
_space_group_crystal_system       triclinic
_cell_length_a                    19.501635
_cell_length_b                    7.008944
_cell_length_c                    17.655409
_cell_angle_alpha                 90.000047
_cell_angle_beta                  108.998174
_cell_angle_gamma                 89.999989
_cell_volume                      2281.79291607

loop_
_atom_site_label
_atom_site_type_symbol
_atom_type_description
_atom_site_fract_x
_atom_site_fract_y
_atom_site_fract_z
_atom_type_partial_charge
O1    O     O_R   0.561710 0.369960 0.440200 -0.543800
O2    O     O_R   0.061710 0.630040 0.940200 -0.543799
O3    O     O_R   0.412630 0.033330 0.406330 -0.528603
O4    O     O_R   0.912630 0.966670 0.906330 -0.528603
O5    O     O_R   0.438290 0.869790 0.559800 -0.540264
O6    O     O_R   0.938290 0.130210 0.059800 -0.540264
C1    C     C_R   0.384614 0.202891 0.383954 0.754973
C2    C     C_R   0.884614 0.797109 0.883954 0.754970
O7    O     O_R   0.559570 0.039810 0.430640 -0.535227
O8    O     O_R   0.059570 0.960190 0.930640 -0.535228
O9    O     O_R   0.586280 0.876320 0.584290 -0.542493
O10   O     O_R   0.086280 0.123680 0.084290 -0.542493
C3    C     C_R   0.579256 0.209682 0.413893 0.717662
C4    C     C_R   0.079256 0.790318 0.913893 0.717659
O11   O     O_R   0.413720 0.363440 0.415710 -0.547860
O12   O     O_R   0.913720 0.636560 0.915710 -0.547860
O13   O     O_3   0.508590 0.205630 0.550380 -0.356765
O14   O     O_3   0.008590 0.794370 0.050380 -0.356764
V1    V     V_3+5 0.498410 0.928130 0.490650 1.484553
V2    V     V_3+5 0.998410 0.071870 0.990650 1.484550
O15   O     O_R   0.587370 0.546990 0.593670 -0.541216
O16   O     O_R   0.087370 0.453010 0.093670 -0.541216
C5    C     C_R   0.615394 0.716693 0.616310 0.696135
C6    C     C_R   0.115394 0.283307 0.116310 0.696135
O17   O     O_R   0.440430 0.540520 0.569360 -0.508881
O18   O     O_R   0.940430 0.459480 0.069360 -0.508881
C7    C     C_R   0.421294 0.709246 0.587236 0.779224
C8    C     C_R   0.921294 0.290754 0.087236 0.779224
V3    V     V_3+5 0.501590 0.428960 0.509350 1.508861
V4    V     V_3+5 0.001590 0.571040 0.009350 1.508860
O19   O     O_3   0.491410 0.701330 0.449620 -0.380547
O20   O     O_3   0.991410 0.298670 0.949620 -0.380548
C9    C     C_R   0.309012 0.894042 0.713660 0.313827
C10   C     C_R   0.809011 0.105958 0.213660 0.313828
C11   C     C_R   0.350230 0.890686 0.661330 -0.202264
C12   C     C_R   0.850230 0.109314 0.161330 -0.202264
H1    H     H_    0.367608 0.021590 0.642034 0.205296
H2    H     H_    0.867608 0.978410 0.142034 0.205296
C13   C     C_R   0.374636 0.716576 0.639984 -0.159419
C14   C     C_R   0.874636 0.283424 0.139984 -0.159419
C15   C     C_R   0.357237 0.550238 0.674498 0.319367
C16   C     C_R   0.857237 0.449762 0.174499 0.319367
C17   C     C_R   0.300661 0.554238 0.707441 -0.154812
C18   C     C_R   0.800661 0.445762 0.207442 -0.154812
H3    H     H_    0.279402 0.424887 0.722643 0.195469
H4    H     H_    0.779402 0.575113 0.222643 0.195469
C19   C     C_R   0.275700 0.727343 0.727699 -0.033030
C20   C     C_R   0.775700 0.272657 0.227699 -0.033031
C21   C     C_R   0.227305 0.612791 0.836073 -0.067327
C22   C     C_R   0.727306 0.387206 0.336074 -0.067328
H5    H     H_    0.269696 0.506103 0.853871 0.160012
H6    H     H_    0.769698 0.493892 0.353874 0.160011
C23   C     C_R   0.180126 0.632372 0.880628 -0.144093
C24   C     C_R   0.680127 0.367625 0.380629 -0.144098
H7    H     H_    0.187152 0.538196 0.931265 0.123346
H8    H     H_    0.687154 0.461798 0.431268 0.123345
C25   C     C_R   0.126025 0.774487 0.862192 -0.115626
C26   C     C_R   0.626025 0.225513 0.362192 -0.115623
C27   C     C_R   0.118172 0.894219 0.795037 -0.029489
C28   C     C_R   0.618171 0.105784 0.295036 -0.029493
C29   C     C_R   0.166347 0.872901 0.750931 -0.103776
C30   C     C_R   0.666346 0.127101 0.250930 -0.103774
H9    H     H_    0.160586 0.964228 0.699658 0.157219
H10   H     H_    0.660584 0.035777 0.199657 0.157220
C31   C     C_R   0.221737 0.734764 0.771490 0.109887
C32   C     C_R   0.721737 0.265236 0.271490 0.109889
C33   C     C_R   0.766074 0.631522 0.813879 0.110621
C34   C     C_R   0.266074 0.368480 0.313879 0.110620
C35   C     C_R   0.814101 0.783846 0.818341 -0.096032
C36   C     C_R   0.314101 0.216154 0.318341 -0.096031
C37   C     C_R   0.791240 0.925404 0.758832 -0.111461
C38   C     C_R   0.291239 0.074594 0.258833 -0.111460
H11   H     H_    0.824841 0.049111 0.760468 0.123268
H12   H     H_    0.324840 0.950885 0.260470 0.123268
C39   C     C_R   0.726729 0.902428 0.693492 -0.165894
C40   C     C_R   0.226728 0.097570 0.193493 -0.165894
H13   H     H_    0.712636 0.010926 0.647345 0.122831
H14   H     H_    0.212635 0.989070 0.147346 0.122832
C41   C     C_R   0.683133 0.737023 0.685492 -0.100222
C42   C     C_R   0.183132 0.262977 0.185492 -0.100222
C43   C     C_R   0.702702 0.608595 0.749472 0.099769
C44   C     C_R   0.202702 0.391407 0.249471 0.099768
C45   C     C_3   0.708584 0.396370 0.752073 -0.446569
C46   C     C_3   0.208585 0.603631 0.252072 -0.446571
C47   C     C_3   0.777890 0.420702 0.823682 -0.202179
C48   C     C_3   0.277890 0.579299 0.323682 -0.202178
H15   H     H_    0.718737 0.338247 0.698148 0.158546
H16   H     H_    0.218737 0.661754 0.198148 0.158546
H17   H     H_    0.662725 0.328622 0.766446 0.209442
H18   H     H_    0.162725 0.671379 0.266445 0.209442
H19   H     H_    0.827719 0.372596 0.811753 0.108531
H20   H     H_    0.327719 0.627405 0.311752 0.108531
Br1   Br    Br    0.319979 0.097351 0.788649 -0.538569
Br2   Br    Br    0.819978 0.902650 0.288649 -0.538570
C49   C     C_2   0.771295 0.343944 0.900869 0.810252
O21   O     O_2   0.770238 0.452153 0.954872 -0.559324
O22   O     O_R   0.767007 0.146990 0.910478 -0.658346
H21   H     H_    0.763562 0.111272 0.964771 0.293154
C50   C     C_2   0.271296 0.656057 0.400869 0.810250
O23   O     O_2   0.270238 0.547848 0.454872 -0.559324
O24   O     O_R   0.267008 0.853012 0.410479 -0.658346
H22   H     H_    0.263563 0.888730 0.464771 0.293153
Br3   Br    Br    0.426498 0.347168 0.705491 -0.490466
Br4   Br    Br    0.926498 0.652833 0.205491 -0.490466
C51   C     C_2   0.058872 0.036427 0.766901 0.772647
O25   O     O_2   0.069826 0.187523 0.738094 -0.546325
O26   O     O_R   0.989795 0.995551 0.770436 -0.668548
H23   H     H_    0.954184 0.103676 0.749160 0.284547
C52   C     C_2   0.558869 0.963580 0.266898 0.772643
O27   O     O_2   0.569821 0.812487 0.238085 -0.546323
O28   O     O_R   0.489792 0.004456 0.270436 -0.668548
H24   H     H_    0.454180 0.896337 0.249156 0.284546

loop_
_geom_bond_atom_site_label_1
_geom_bond_atom_site_label_2
_ccdc_geom_bond_type
C45   H15   S    
O24   H22   S    
C34   C48   S    
C49   O21   D    
O4    C2    A    
V1    O19   S    
C1    C36   S    
O22   H21   S    
C47   H19   S    
C13   C15   A    
C51   O26   S    
O9    V1    S    
C2    C35   S    
C27   C51   S    
C39   C41   A    
C46   H18   S    
C11   H1    S    
C46   C48   S    
O3    C1    A    
C52   O28   S    
C24   C26   A    
C9    C11   A    
C25   C27   A    
C8    C14   S    
O12   V4    S    
O13   V3    S    
C28   C30   A    
O7    V1    S    
C35   C37   A    
O7    C3    A    
C30   H10   S    
C28   C52   S    
C1    O11   A    
O5    C7    A    
C6    C42   S    
O6    C8    A    
O28   H24   S    
O8    V2    S    
C21   H5    S    
C22   H6    S    
O26   H23   S    
O3    V1    S    
O14   V4    S    
C10   C12   A    
C38   C40   A    
C14   C16   A    
C2    O12   A    
C37   C39   A    
C15   C17   A    
C16   C18   A    
C43   C45   S    
C18   H4    S    
O11   V3    S    
C23   H7    S    
O17   V3    S    
C45   H17   S    
C24   H8    S    
C33   C47   S    
C27   C29   A    
C30   C32   A    
C10   Br2   S    
C12   C14   A    
C38   H12   S    
O8    C4    A    
C7    C13   S    
C37   H11   S    
C23   C25   A    
C3    C26   S    
O15   V3    S    
C15   Br3   S    
C16   Br4   S    
C33   C35   A    
C11   C13   A    
C39   H13   S    
C50   O23   D    
O10   V2    S    
O1    V3    S    
C22   C24   A    
C48   C50   S    
C22   C32   A    
C21   C31   A    
C42   C44   A    
C45   C47   S    
C33   C43   A    
C44   C46   S    
O15   C5    A    
C9    C19   A    
O16   C6    A    
O1    C3    A    
C41   C43   A    
V2    O20   S    
C4    C25   S    
O16   V4    S    
C50   O24   S    
C29   H9    S    
C46   H16   S    
C40   H14   S    
C9    Br1   S    
C40   C42   A    
C49   O22   S    
O18   V4    S    
O5    V1    S    
O17   C7    A    
O6    V2    S    
C51   O25   D    
O10   C6    A    
O18   C8    A    
O2    V4    S    
C34   C44   A    
C12   H2    S    
V3    O19   S    
C48   H20   S    
C52   O27   D    
V4    O20   S    
C47   C49   S    
C17   C19   A    
C21   C23   A    
O9    C5    A    
O13   V1    S    
O14   V2    S    
O2    C4    A    
O4    V2    S    
C29   C31   A    
C10   C20   A    
C34   C36   A    
C20   C32   S    
C36   C38   A    
C5    C41   S    
C26   C28   A    
C17   H3    S    
C19   C31   S    
C18   C20   A    
