data_mof_unit_9482.cif
_audit_creation_date              2012-10-26T20:28:53-0400
_audit_creation_method            fapswitch 2.2
_symmetry_space_group_name_H-M    P1
_symmetry_Int_Tables_number       1
_space_group_crystal_system       triclinic
_cell_length_a                    15.089347
_cell_length_b                    13.820808
_cell_length_c                    19.49779
_cell_angle_alpha                 90.081348
_cell_angle_beta                  90.215097
_cell_angle_gamma                 89.946106
_cell_volume                      4066.17045134

loop_
_atom_site_label
_atom_site_type_symbol
_atom_type_description
_atom_site_fract_x
_atom_site_fract_y
_atom_site_fract_z
_atom_type_partial_charge
C1    C     C_R   0.329705 0.500059 0.499909 0.542450
C2    C     C_R   0.950598 0.499480 0.501662 0.063936
C3    C     C_R   0.531518 0.108264 0.557838 0.214066
C4    C     C_R   0.420288 0.892844 0.490501 0.213739
C5    C     C_R   0.465377 0.107123 0.444445 0.213519
C6    C     C_R   0.577967 0.892786 0.513877 0.201655
C7    C     C_R   0.534026 0.209880 0.554840 0.028284
C8    C     C_R   0.423435 0.790831 0.487454 0.021919
C9    C     C_R   0.464925 0.208967 0.445887 0.036051
C10   C     C_R   0.576015 0.791019 0.513910 0.026083
C11   C     C_R   0.498708 0.054827 0.501325 0.049905
C12   C     C_R   0.669920 0.499996 0.500446 0.542391
C13   C     C_R   0.499134 0.945631 0.501638 0.062175
C14   C     C_R   0.499937 0.500018 0.367480 0.561278
C15   C     C_R   0.500188 0.500077 0.632612 0.556841
C16   C     C_R   0.485365 0.413774 0.745691 0.221710
C17   C     C_R   0.476016 0.585683 0.255214 0.220570
C18   C     C_R   0.522808 0.416178 0.254504 0.208603
C19   C     C_R   0.516004 0.587458 0.745450 0.222398
C20   C     C_R   0.489114 0.414697 0.817177 -0.116270
C21   C     C_R   0.479670 0.586424 0.183748 -0.119452
C22   C     C_R   0.519222 0.416863 0.182909 -0.125174
C23   C     C_R   0.186384 0.584701 0.483958 -0.143130
C24   C     C_R   0.511479 0.587687 0.816852 -0.119206
C25   C     C_R   0.499939 0.501502 0.853285 -0.065073
C26   C     C_R   0.499281 0.501928 0.147620 -0.067886
C27   C     C_R   0.500532 0.500400 0.708582 0.002739
C28   C     C_R   0.499357 0.500455 0.291699 0.008107
C29   C     C_R   0.556036 0.564391 0.965696 -0.113908
C30   C     C_R   0.442976 0.439656 0.036553 -0.114531
C31   C     C_R   0.555124 0.565193 0.037081 -0.116150
C32   C     C_R   0.442497 0.440115 0.965179 -0.113884
C33   C     C_R   0.499025 0.502411 0.072660 0.030616
C34   C     C_R   0.811733 0.431818 0.461904 -0.152155
C35   C     C_R   0.499461 0.502061 0.929001 0.038414
C36   C     C_R   0.094221 0.584921 0.482723 0.238917
C37   C     C_R   0.903963 0.433329 0.459901 0.239052
C38   C     C_R   0.903984 0.565523 0.543397 0.244995
C39   C     C_R   0.094388 0.415994 0.520179 0.251986
C40   C     C_3   0.381107 0.313089 0.698237 0.024472
C41   C     C_3   0.335362 0.257746 0.756245 -0.279988
C42   C     C_3   0.241029 0.229419 0.736341 -0.496555
C43   C     C_3   0.361671 0.669423 0.304646 0.029341
C44   C     C_3   0.308496 0.723670 0.249801 -0.276925
C45   C     C_R   0.811797 0.567610 0.540842 -0.146503
C46   C     C_3   0.211115 0.731887 0.269625 -0.487448
C47   C     C_3   0.640016 0.324654 0.289455 0.018115
C48   C     C_3   0.666206 0.220168 0.305097 -0.261166
C49   C     C_3   0.766579 0.207248 0.306549 -0.498371
C50   C     C_3   0.622219 0.683567 0.696911 0.030535
C51   C     C_3   0.672555 0.733434 0.755480 -0.286914
C52   C     C_3   0.767084 0.758154 0.734254 -0.481651
C53   C     C_3   0.021118 0.672087 0.400887 0.005964
C54   C     C_3   0.993829 0.775159 0.382111 -0.253657
C55   C     C_3   0.956279 0.780185 0.309444 -0.492867
C56   C     C_R   0.186988 0.415848 0.517513 -0.153749
C57   C     C_3   0.950487 0.397747 0.352010 -0.000804
C58   C     C_3   0.999944 0.323085 0.308813 -0.242830
C59   C     C_3   0.002446 0.352620 0.233477 -0.494310
C60   C     C_3   0.965840 0.586770 0.648438 0.005963
C61   C     C_3   0.016146 0.658092 0.693994 -0.251702
C62   C     C_3   0.036158 0.614492 0.764212 -0.493725
C63   C     C_3   0.072664 0.301459 0.604217 0.006994
C64   C     C_3   0.997826 0.240942 0.634719 -0.236387
C65   C     C_3   0.914539 0.301418 0.647010 -0.400982
C66   C     C_3   0.491903 0.038490 0.658788 0.007185
C67   C     C_R   0.233007 0.500161 0.500226 -0.080035
C68   C     C_3   0.520962 0.957886 0.707438 -0.239634
C69   C     C_3   0.445613 0.927004 0.754524 -0.477532
C70   C     C_3   0.278886 0.921062 0.530963 -0.006443
C71   C     C_3   0.189621 0.896900 0.497740 -0.254746
C72   C     C_3   0.119109 0.875329 0.551512 -0.452048
C73   C     C_3   0.494324 0.033683 0.342118 0.002279
C74   C     C_3   0.462080 0.947463 0.299772 -0.234957
C75   C     C_3   0.532217 0.914227 0.248709 -0.476104
C76   C     C_3   0.705978 0.959156 0.473230 0.006639
C77   C     C_3   0.802941 0.971296 0.494676 -0.246937
C78   C     C_R   0.765894 0.499970 0.501007 -0.078078
C79   C     C_3   0.860100 0.006360 0.435371 -0.492504
C80   C     C_R   0.047842 0.500095 0.500897 0.073775
Cu1   Cu    Cu3+1 0.500000 0.596430 0.500000 0.943833
Cu2   Cu    Cu3+1 0.500000 0.403570 0.500000 0.940470
H1    H     H_    0.482957 0.346809 0.844394 0.126091
H2    H     H_    0.775923 0.378953 0.431607 0.127150
H3    H     H_    0.841341 0.081454 0.421421 0.162513
H4    H     H_    0.776163 0.619986 0.571697 0.124008
H5    H     H_    0.222882 0.350195 0.529753 0.133885
H6    H     H_    0.562183 0.249648 0.597393 0.186187
H7    H     H_    0.363303 0.751960 0.475831 0.125259
H8    H     H_    0.436578 0.248124 0.403146 0.179225
H9    H     H_    0.636443 0.752388 0.525416 0.137734
H10   H     H_    0.376369 0.269306 0.650511 0.154082
H11   H     H_    0.345319 0.382281 0.687512 0.117187
H12   H     H_    0.373681 0.191249 0.768480 0.159910
H13   H     H_    0.464581 0.652574 0.156287 0.122860
H14   H     H_    0.332693 0.303690 0.802958 0.149437
H15   H     H_    0.201044 0.295148 0.725461 0.134637
H16   H     H_    0.209736 0.189530 0.779282 0.145474
H17   H     H_    0.241509 0.181870 0.690354 0.131573
H18   H     H_    0.353338 0.707740 0.354264 0.154948
H19   H     H_    0.334024 0.595213 0.312188 0.111660
H20   H     H_    0.336275 0.797427 0.243154 0.164817
H21   H     H_    0.313153 0.684762 0.200081 0.153675
H22   H     H_    0.181229 0.658699 0.273307 0.135408
H23   H     H_    0.174754 0.773593 0.229838 0.145426
H24   H     H_    0.534938 0.351366 0.154809 0.129360
H25   H     H_    0.204206 0.769896 0.319583 0.149782
H26   H     H_    0.666350 0.372877 0.330492 0.138036
H27   H     H_    0.670923 0.345129 0.239588 0.113026
H28   H     H_    0.638463 0.198293 0.355492 0.162196
H29   H     H_    0.638282 0.172196 0.264671 0.154827
H30   H     H_    0.796598 0.234242 0.258299 0.143104
H31   H     H_    0.782625 0.129215 0.311618 0.138211
H32   H     H_    0.795604 0.246671 0.350823 0.164779
H33   H     H_    0.627267 0.729561 0.650521 0.160320
H34   H     H_    0.654496 0.613242 0.683662 0.110067
H35   H     H_    0.518006 0.655965 0.843715 0.122486
H36   H     H_    0.637584 0.801013 0.770311 0.166131
H37   H     H_    0.675213 0.684906 0.800793 0.147422
H38   H     H_    0.803405 0.691322 0.719908 0.146965
H39   H     H_    0.802289 0.793251 0.777750 0.143106
H40   H     H_    0.766584 0.808706 0.689993 0.168250
H41   H     H_    0.962261 0.624494 0.395104 0.125845
H42   H     H_    0.073940 0.647919 0.364896 0.109696
H43   H     H_    0.942742 0.800972 0.418784 0.178881
H44   H     H_    0.052352 0.823642 0.386025 0.156780
H45   H     H_    0.006205 0.754670 0.271810 0.144909
H46   H     H_    0.601877 0.611571 0.939343 0.091706
H47   H     H_    0.938443 0.856150 0.297071 0.141715
H48   H     H_    0.895803 0.734775 0.305104 0.144300
H49   H     H_    0.986189 0.467981 0.348182 0.108786
H50   H     H_    0.882021 0.406029 0.331123 0.112449
H51   H     H_    0.068931 0.315722 0.328365 0.181309
H52   H     H_    0.966686 0.251661 0.313298 0.171130
H53   H     H_    0.934077 0.358495 0.212540 0.139365
H54   H     H_    0.039005 0.297137 0.203568 0.146846
H55   H     H_    0.036732 0.423227 0.227696 0.142955
H56   H     H_    0.007671 0.521048 0.641662 0.126968
H57   H     H_    0.398812 0.391384 0.063700 0.105859
H58   H     H_    0.902885 0.566104 0.674291 0.113558
H59   H     H_    0.079526 0.678042 0.668817 0.171891
H60   H     H_    0.975976 0.724870 0.700742 0.168106
H61   H     H_    0.973538 0.595785 0.790866 0.143440
H62   H     H_    0.073034 0.667826 0.795948 0.145720
H63   H     H_    0.077414 0.548330 0.758659 0.142483
H64   H     H_    0.087373 0.362510 0.640052 0.097767
H65   H     H_    0.132377 0.254684 0.600230 0.112078
H66   H     H_    0.981711 0.180057 0.599499 0.173754
H67   H     H_    0.020446 0.209928 0.684366 0.103840
H68   H     H_    0.599240 0.613450 0.064641 0.102486
H69   H     H_    0.929125 0.361904 0.682868 0.118912
H70   H     H_    0.862320 0.255234 0.669941 0.135068
H71   H     H_    0.888933 0.331258 0.597940 0.195326
H72   H     H_    0.432530 0.012531 0.629777 0.110002
H73   H     H_    0.473041 0.103428 0.689141 0.150025
H74   H     H_    0.542868 0.894334 0.676855 0.201351
H75   H     H_    0.577812 0.983241 0.739093 0.168105
H76   H     H_    0.422991 0.989223 0.786083 0.133109
H77   H     H_    0.469122 0.868686 0.789258 0.163715
H78   H     H_    0.389015 0.898953 0.723808 0.152564
H79   H     H_    0.396898 0.392722 0.938401 0.091942
H80   H     H_    0.271330 0.987158 0.562968 0.135914
H81   H     H_    0.298080 0.860954 0.566303 0.106465
H82   H     H_    0.167359 0.958955 0.465791 0.176501
H83   H     H_    0.197365 0.832786 0.463813 0.166231
H84   H     H_    0.138039 0.810491 0.581836 0.168803
H85   H     H_    0.054687 0.860983 0.525766 0.188135
H86   H     H_    0.110876 0.938146 0.586524 0.125473
H87   H     H_    0.557939 0.012747 0.367494 0.093496
H88   H     H_    0.506501 0.095789 0.307318 0.148433
H89   H     H_    0.446048 0.886401 0.334639 0.201091
H90   H     H_    0.221273 0.650631 0.471113 0.127052
H91   H     H_    0.400855 0.967989 0.271429 0.166260
H92   H     H_    0.549118 0.973958 0.213025 0.132659
H93   H     H_    0.506324 0.852275 0.218366 0.170961
H94   H     H_    0.593044 0.890528 0.276254 0.152009
H95   H     H_    0.681769 0.027763 0.449956 0.131142
H96   H     H_    0.702387 0.900097 0.434121 0.108456
H97   H     H_    0.807642 0.024468 0.537391 0.190245
H98   H     H_    0.828883 0.900677 0.513279 0.165728
H99   H     H_    0.851939 0.958432 0.390026 0.138099
H100  H     H_    0.930904 0.005945 0.451141 0.150627
N1    N     N_R   0.500000 0.258690 0.500000 -0.298771
N2    N     N_R   0.500000 0.741310 0.500000 -0.271817
O1    O     O_R   0.371460 0.581430 0.500010 -0.522413
O2    O     O_3   0.453192 0.670448 0.288669 -0.564510
O3    O     O_3   0.546502 0.331379 0.287401 -0.563509
O4    O     O_3   0.530971 0.674589 0.712590 -0.561198
O5    O     O_3   0.050843 0.671157 0.469560 -0.544520
O6    O     O_3   0.948615 0.365760 0.420657 -0.528513
O7    O     O_3   0.948085 0.631114 0.584715 -0.535808
O8    O     O_3   0.047656 0.333439 0.538079 -0.518061
O9    O     O_3   0.563637 0.062014 0.615547 -0.531526
O10   O     O_3   0.341255 0.941243 0.478748 -0.537798
O11   O     O_3   0.427566 0.059592 0.389262 -0.530097
O12   O     O_R   0.628540 0.418570 0.499990 -0.497583
O13   O     O_3   0.655737 0.938729 0.532369 -0.542511
O14   O     O_R   0.628540 0.581430 0.499990 -0.521128
O15   O     O_R   0.371460 0.418570 0.500010 -0.506178
O16   O     O_R   0.500020 0.581470 0.400190 -0.460602
O17   O     O_R   0.499980 0.418530 0.599810 -0.483329
O18   O     O_R   0.499980 0.581470 0.599810 -0.460816
O19   O     O_R   0.500020 0.418530 0.400190 -0.473233
O20   O     O_3   0.472381 0.325971 0.712955 -0.571402

loop_
_geom_bond_atom_site_label_1
_geom_bond_atom_site_label_2
_ccdc_geom_bond_type
C49   H31   S    
C21   C26   A    
C34   C37   A    
C10   N2    A    
C41   C42   S    
C59   H54   S    
C57   H50   S    
C66   C68   S    
C3    C11   A    
C40   H11   S    
C4    C8    A    
C64   H66   S    
C50   O4    S    
C70   H81   S    
C51   H36   S    
Cu1   O16   S    
Cu1   Cu2   S    
C53   C54   S    
C58   H52   S    
C4    O10   S    
C54   H44   S    
C24   H35   S    
C3    O9    S    
C5    C11   A    
C3    C7    A    
C76   O13   S    
C42   H16   S    
C66   H73   S    
C41   H14   S    
C20   C25   A    
C59   H55   S    
C63   O8    S    
C23   C36   A    
C46   H23   S    
C18   O3    S    
C69   H78   S    
C50   H33   S    
C73   C74   S    
C23   C67   A    
C4    C13   A    
C7    H6    S    
C38   C45   A    
C65   H71   S    
C69   H77   S    
C52   H40   S    
C23   H90   S    
C41   H12   S    
C68   C69   S    
C55   H47   S    
C62   H63   S    
C12   C78   S    
C51   H37   S    
C31   C33   A    
C24   C25   A    
C45   C78   A    
C19   C27   A    
C62   H61   S    
C63   H64   S    
Cu2   O12   S    
C70   O10   S    
C5    O11   S    
C8    N2    A    
C16   C27   A    
C37   O6    S    
C14   O19   A    
C75   H92   S    
C72   H86   S    
C1    O15   A    
C34   H2    S    
C70   H80   S    
Cu1   O1    S    
C15   O17   A    
C44   H21   S    
C44   C46   S    
C50   C51   S    
C77   C79   S    
C58   H51   S    
C54   H43   S    
C77   H98   S    
C25   C35   S    
C71   H82   S    
C75   H93   S    
C36   O5    S    
C32   C35   A    
C40   O20   S    
C18   C28   A    
C43   H18   S    
C74   H91   S    
C76   H95   S    
C36   C80   A    
C42   H15   S    
Cu1   O14   S    
C66   H72   S    
C31   H68   S    
C44   H20   S    
C56   H5    S    
C21   H13   S    
C43   O2    S    
C58   C59   S    
C47   H27   S    
C46   H22   S    
Cu2   N1    S    
C40   H10   S    
C51   C52   S    
C60   C61   S    
C65   H69   S    
C43   C44   S    
C43   H19   S    
C5    C9    A    
C9    N1    A    
C19   O4    S    
C6    O13   S    
C52   H39   S    
C2    C38   A    
C26   C33   S    
C15   C27   S    
C47   C48   S    
C17   O2    S    
C16   C20   A    
C55   H48   S    
C32   H79   S    
C69   H76   S    
C39   C56   A    
C77   H97   S    
C76   C77   S    
C74   H89   S    
C70   C71   S    
C60   H58   S    
C49   H30   S    
C52   H38   S    
C61   H59   S    
C40   C41   S    
C55   H45   S    
C10   H9    S    
C47   H26   S    
C73   O11   S    
C46   H25   S    
C53   H41   S    
C72   H85   S    
C29   H46   S    
C73   H87   S    
C68   H75   S    
C79   H3    S    
C66   O9    S    
C49   H32   S    
C54   C55   S    
C48   C49   S    
C30   H57   S    
C30   C33   A    
C75   H94   S    
C18   C22   A    
C17   C28   A    
C72   H84   S    
C57   H49   S    
C62   H62   S    
C68   H74   S    
C53   H42   S    
C9    H8    S    
C6    C10   A    
Cu2   O17   S    
C47   O3    S    
Cu1   O18   S    
C8    H7    S    
C1    O1    A    
C15   O18   A    
C56   C67   A    
C29   C35   A    
C76   H96   S    
C79   H100  S    
C7    N1    A    
C64   H67   S    
C39   C80   A    
C65   H70   S    
C19   C24   A    
C73   H88   S    
C57   O6    S    
C29   C31   A    
C22   H24   S    
C42   H17   S    
C64   C65   S    
C6    C13   A    
C30   C32   A    
C39   O8    S    
C11   C13   S    
C2    C37   A    
C57   C58   S    
Cu2   O19   S    
C14   O16   A    
C60   O7    S    
C59   H53   S    
C1    C67   S    
C45   H4    S    
C50   H34   S    
C63   H65   S    
C61   C62   S    
C17   C21   A    
C2    C80   S    
C22   C26   A    
C63   C64   S    
C79   H99   S    
C61   H60   S    
Cu2   O15   S    
C48   H29   S    
C71   C72   S    
C74   C75   S    
C38   O7    S    
C71   H83   S    
C20   H1    S    
C12   O14   A    
C12   O12   A    
Cu1   N2    S    
C14   C28   S    
C48   H28   S    
C16   O20   S    
C53   O5    S    
C34   C78   A    
C60   H56   S    
