data_mof_unit_63687.cif
_audit_creation_date              2012-12-10T21:01:04-0500
_audit_creation_method            fapswitch 2.2
_symmetry_space_group_name_H-M    P1
_symmetry_Int_Tables_number       1
_space_group_crystal_system       triclinic
_cell_length_a                    15.846099
_cell_length_b                    15.08774
_cell_length_c                    10.551392
_cell_angle_alpha                 89.308663
_cell_angle_beta                  89.907735
_cell_angle_gamma                 89.965831
_cell_volume                      2522.45869571

loop_
_atom_site_label
_atom_site_type_symbol
_atom_type_description
_atom_site_fract_x
_atom_site_fract_y
_atom_site_fract_z
_atom_type_partial_charge
C1    C     C_R   0.338892 0.500022 0.499944 0.915409
C2    C     C_R   0.086864 0.500066 0.499790 0.154815
C3    C     C_R   0.500206 0.500672 0.256914 0.987205
C4    C     C_R   0.499794 0.499328 0.743086 0.987205
C5    C     C_1   0.250499 0.500065 0.499799 -0.116093
C6    C     C_1   0.749501 0.499935 0.500201 -0.116093
C7    C     C_R   0.491828 0.954108 0.386273 -0.127692
C8    C     C_R   0.508172 0.045892 0.613726 -0.127692
C9    C     C_R   0.508186 0.952184 0.613718 -0.142441
C10   C     C_R   0.491814 0.047816 0.386282 -0.142441
C11   C     C_R   0.500012 0.905032 0.499993 0.048168
C12   C     C_R   0.661107 0.499978 0.500055 0.915409
C13   C     C_R   0.499988 0.094968 0.500007 0.048168
C14   C     C_3   0.503202 0.584394 0.036549 0.414977
C15   C     C_3   0.496798 0.415606 0.963451 0.414977
C16   C     C_3   0.570379 0.537969 0.956409 0.368505
C17   C     C_3   0.429621 0.462031 0.043591 0.368505
C18   C     C_3   0.431736 0.544703 0.955974 -0.369906
C19   C     C_3   0.568264 0.455297 0.044026 -0.369907
C20   C     C_3   0.499752 0.497904 0.877332 -0.277081
C21   C     C_3   0.500247 0.502096 0.122668 -0.277081
C22   C     C_1   0.500008 0.807138 0.499991 0.120810
C23   C     C_1   0.824345 0.499922 0.500262 -0.038184
C24   C     C_1   0.499992 0.192862 0.500009 0.120810
C25   C     C_1   0.175655 0.500078 0.499738 -0.038185
C26   C     C_R   0.956155 0.571541 0.552154 -0.144550
C27   C     C_R   0.043845 0.428459 0.447846 -0.144550
C28   C     C_R   0.043662 0.571607 0.551943 -0.167933
C29   C     C_R   0.956338 0.428393 0.448057 -0.167933
C30   C     C_R   0.913135 0.499934 0.500210 0.154815
Cl1   Cl    Cl    0.507794 0.697328 0.083963 -0.533022
Cl2   Cl    Cl    0.492206 0.302672 0.916037 -0.533022
Cl3   Cl    Cl    0.663914 0.587731 0.894280 -0.539912
Cl4   Cl    Cl    0.336086 0.412269 0.105719 -0.539912
H1    H     H_    0.485394 0.083514 0.297116 0.164275
H2    H     H_    0.077839 0.373142 0.407543 0.163460
H3    H     H_    0.514606 0.916486 0.702883 0.164275
H4    H     H_    0.514577 0.080083 0.702895 0.172625
H5    H     H_    0.485423 0.919917 0.297105 0.172625
H6    H     H_    0.376238 0.580613 0.916832 0.209672
H7    H     H_    0.623761 0.419387 0.083168 0.209672
H8    H     H_    0.077514 0.626964 0.592115 0.154545
H9    H     H_    0.922486 0.373036 0.407884 0.154545
H10   H     H_    0.922161 0.626858 0.592457 0.163460
N1    N     N_1   0.500000 0.270550 0.500000 -0.066962
N2    N     N_1   0.500000 0.729450 0.500000 -0.066962
O1    O     O_R   0.378020 0.573650 0.500040 -0.622614
O2    O     O_R   0.621980 0.426350 0.499960 -0.622614
O3    O     O_R   0.621980 0.573650 0.499960 -0.595864
O4    O     O_R   0.378020 0.426350 0.500040 -0.595864
O5    O     O_R   0.499980 0.573650 0.313960 -0.582409
O6    O     O_R   0.500020 0.426350 0.686040 -0.582409
O7    O     O_R   0.500020 0.573650 0.686040 -0.600384
O8    O     O_R   0.499980 0.426350 0.313960 -0.600384
Zn1   Zn    Zn3+2 0.500000 0.598370 0.500000 1.050580
Zn2   Zn    Zn3+2 0.500000 0.401630 0.500000 1.050580

loop_
_geom_bond_atom_site_label_1
_geom_bond_atom_site_label_2
_ccdc_geom_bond_type
N2    Zn1   S    
C7    C10   A    
C7    C11   A    
O8    Zn2   S    
C12   O3    A    
C8    C13   A    
C27   H2    S    
C27   C29   A    
C29   C30   A    
C2    C28   A    
C1    O4    A    
C14   C18   S    
C11   C22   S    
O5    Zn1   S    
O2    Zn2   S    
C16   C20   S    
C14   Cl1   S    
C12   O2    A    
C9    H3    S    
C17   C18   S    
C26   H10   S    
C15   Cl2   S    
C29   H9    S    
C15   C19   S    
C9    C11   A    
C2    C27   A    
C8    H4    S    
C3    O8    A    
C4    O6    A    
C16   C19   S    
C5    C25   T    
C24   N1    T    
C14   C21   S    
C28   H8    S    
C19   C21   S    
C26   C30   A    
C2    C25   S    
C18   C20   S    
O7    Zn1   S    
C6    C12   S    
C15   C20   S    
C16   Cl3   S    
C10   H1    S    
C14   C16   S    
C3    C21   S    
C4    O7    A    
C17   Cl4   S    
C6    C23   T    
C4    C20   S    
C23   C30   S    
O6    Zn2   S    
C1    C5    S    
C18   H6    S    
N1    Zn2   S    
O1    Zn1   S    
C15   C17   S    
C7    H5    S    
C1    O1    A    
C3    O5    A    
C22   N2    T    
O3    Zn1   S    
C26   C28   A    
O4    Zn2   S    
C19   H7    S    
C13   C24   S    
C8    C9    A    
C10   C13   A    
C17   C21   S    
