data_mof_unit_49986.cif
_audit_creation_date              2012-12-10T17:00:47-0500
_audit_creation_method            fapswitch 2.2
_symmetry_space_group_name_H-M    P1
_symmetry_Int_Tables_number       1
_space_group_crystal_system       triclinic
_cell_length_a                    10.35142
_cell_length_b                    10.70226
_cell_length_c                    10.001708
_cell_angle_alpha                 91.451586
_cell_angle_beta                  102.1948
_cell_angle_gamma                 89.216325
_cell_volume                      1082.63572801

loop_
_atom_site_label
_atom_site_type_symbol
_atom_type_description
_atom_site_fract_x
_atom_site_fract_y
_atom_site_fract_z
_atom_type_partial_charge
C1    C     C_R   0.503356 0.262633 0.498763 0.890535
C2    C     C_2   0.461950 0.868322 0.500741 0.290474
C3    C     C_2   0.447441 0.066875 0.386835 -0.160799
C4    C     C_2   0.514090 0.130991 0.494871 -0.261560
C5    C     C_2   0.571030 0.575779 0.942430 -0.132426
C6    C     C_2   0.577560 0.569847 0.093879 -0.129261
C7    C     C_R   0.256015 0.498534 0.444674 0.806701
C8    C     C_R   0.491407 0.737455 0.500071 0.825071
C9    C     C_R   0.744152 0.498717 0.555265 0.752680
C10   C     C_2   0.112231 0.483661 0.419426 0.321059
C11   C     C_2   0.065167 0.386631 0.479087 0.189195
C12   C     C_2   0.888230 0.481062 0.578727 0.358789
C13   C     C_2   0.929193 0.391657 0.499467 -0.168427
C14   C     C_2   0.452737 0.932134 0.385348 -0.290699
H1    H     H_    0.859490 0.326373 0.438819 0.100567
H2    H     H_    0.451025 0.430329 0.885318 0.163798
H3    H     H_    0.649289 0.628570 0.160925 0.162884
H4    H     H_    0.427808 0.451691 0.084969 0.160197
H5    H     H_    0.451841 0.885111 0.287604 0.162438
H6    H     H_    0.390704 0.113421 0.297631 0.157362
H7    H     H_    0.578540 0.087693 0.581342 0.195758
H8    H     H_    0.630764 0.645446 0.907533 0.155636
N1    N     N_2   0.501330 0.501330 0.852460 -0.181616
N2    N     N_2   0.501370 0.501360 0.148130 -0.184271
O1    O     O_R   0.499980 0.319060 0.613030 -0.609287
O2    O     O_R   0.500020 0.319100 0.386910 -0.604566
O3    O     O_R   0.317800 0.500000 0.570840 -0.587479
O4    O     O_R   0.317840 0.500040 0.344720 -0.626362
O5    O     O_R   0.499980 0.680900 0.613090 -0.582302
O6    O     O_R   0.500020 0.680940 0.386970 -0.626853
O7    O     O_R   0.682160 0.499960 0.655280 -0.607019
O8    O     O_R   0.682200 0.500000 0.429160 -0.596125
Zn1   Zn    Zn3+2 0.499970 0.499970 0.650990 0.944168
Zn2   Zn    Zn3+2 0.500030 0.500030 0.349010 0.925178
C15   C     C_3   0.145259 0.269427 0.520427 -0.981422
H9    H     H_    0.082224 0.195622 0.548635 0.246740
H10   H     H_    0.187624 0.232693 0.433932 0.222799
H11   H     H_    0.226018 0.288760 0.610430 0.275063
O9    O     O_3   0.982368 0.556291 0.664284 -0.626303
C16   C     C_3   0.929594 0.665211 0.716642 0.070417
H12   H     H_    0.006902 0.702415 0.802127 0.154584
H13   H     H_    0.844932 0.645172 0.764363 0.145760
C17   C     C_3   0.896927 0.766863 0.608523 -0.339429
H14   H     H_    0.989852 0.798468 0.581529 0.231825
H15   H     H_    0.831678 0.729632 0.513724 0.230695
C18   C     C_3   0.827396 0.878372 0.661588 -0.985050
H16   H     H_    0.808363 0.951896 0.583287 0.265127
H17   H     H_    0.889306 0.918039 0.757075 0.271098
H18   H     H_    0.731540 0.849136 0.683217 0.287790
O10   O     O_3   0.027480 0.582895 0.372424 -0.664286
C19   C     C_3   0.050327 0.630121 0.248694 0.055251
H19   H     H_    0.952316 0.645997 0.180214 0.158180
H20   H     H_    0.103986 0.563761 0.191435 0.141858
C20   C     C_3   0.120921 0.755919 0.275716 -0.332578
H21   H     H_    0.058712 0.823259 0.321240 0.213262
H22   H     H_    0.216130 0.744418 0.349865 0.202684
C21   C     C_3   0.147561 0.809058 0.144006 -0.958851
H23   H     H_    0.214499 0.745593 0.100135 0.272593
H24   H     H_    0.195477 0.901622 0.166317 0.262093
H25   H     H_    0.053523 0.821198 0.067720 0.255173
O11   O     O_3   0.449954 0.925294 0.623768 -0.645733
C22   C     C_3   0.316913 0.921931 0.636249 0.095968
H26   H     H_    0.285224 0.823520 0.642519 0.151700
H27   H     H_    0.250819 0.967470 0.547866 0.141176
C23   C     C_3   0.305395 0.993347 0.767550 -0.299192
H28   H     H_    0.376993 0.953883 0.855513 0.229930
H29   H     H_    0.330266 0.093096 0.758561 0.226295
C24   C     C_3   0.166760 0.985374 0.795546 -1.003648
H30   H     H_    0.092718 0.021423 0.707767 0.272313
H31   H     H_    0.160774 0.042271 0.888457 0.270697
H32   H     H_    0.143922 0.886987 0.813404 0.271983

loop_
_geom_bond_atom_site_label_1
_geom_bond_atom_site_label_2
_ccdc_geom_bond_type
C7    C10   S    
C17   H14   S    
O7    Zn1   S    
C22   H26   S    
C19   C20   S    
C11   C13   S    
C1    O2    A    
C15   H9    S    
C5    N1    D    
C2    O11   S    
C23   C24   S    
C8    O6    A    
C1    C4    S    
C12   O9    S    
C16   H13   S    
O10   C19   S    
C6    N2    D    
C3    H6    S    
O3    Zn1   S    
C1    O1    A    
C4    H7    S    
C17   H15   S    
C18   H18   S    
C21   H23   S    
C5    C6    S    
C3    C14   S    
C24   H32   S    
H4    N2    S    
C8    O5    A    
C11   C15   S    
C16   H12   S    
C17   C18   S    
C7    O4    A    
H2    N1    S    
C20   H22   S    
C13   H1    S    
O11   C22   S    
C2    C14   D    
C9    C12   S    
C18   H17   S    
C21   H24   S    
C23   H29   S    
C10   C11   D    
O6    Zn2   S    
O4    Zn2   S    
C3    C4    D    
C10   O10   S    
O5    Zn1   S    
C15   H11   S    
C7    O3    A    
C12   C13   D    
N1    Zn1   S    
C24   H31   S    
C23   H28   S    
C2    C8    S    
O9    C16   S    
C6    H3    S    
C9    O7    A    
C18   H16   S    
C21   H25   S    
C22   H27   S    
C22   C23   S    
C15   H10   S    
C9    O8    A    
C20   H21   S    
C14   H5    S    
O2    Zn2   S    
C16   C17   S    
N2    Zn2   S    
C5    H8    S    
C19   H19   S    
O1    Zn1   S    
C24   H30   S    
C19   H20   S    
C20   C21   S    
O8    Zn2   S    
