data_mof_unit_33767.cif
_audit_creation_date              2012-12-10T19:45:48-0500
_audit_creation_method            fapswitch 2.2
_symmetry_space_group_name_H-M    P1
_symmetry_Int_Tables_number       1
_space_group_crystal_system       triclinic
_cell_length_a                    10.956036
_cell_length_b                    14.812811
_cell_length_c                    14.784102
_cell_angle_alpha                 64.649015
_cell_angle_beta                  105.567372
_cell_angle_gamma                 102.230035
_cell_volume                      2075.72939431

loop_
_atom_site_label
_atom_site_type_symbol
_atom_type_description
_atom_site_fract_x
_atom_site_fract_y
_atom_site_fract_z
_atom_type_partial_charge
C1    C     C_R   0.483360 0.119373 0.311416 0.888148
C2    C     C_R   0.516943 0.880625 0.688610 0.881613
C3    C     C_R   0.870254 0.000029 0.496181 -0.035078
C4    C     C_R   0.129712 0.000264 0.503470 -0.031701
C5    C     C_R   0.907546 0.938462 0.459407 0.056909
C6    C     C_R   0.092436 0.061826 0.540254 0.060251
C7    C     C_R   0.473016 0.186452 0.200563 -0.193157
C8    C     C_R   0.527332 0.813502 0.799482 -0.195975
C9    C     C_R   0.365260 0.225801 0.023326 -0.115396
C10   C     C_R   0.634704 0.774073 0.976766 -0.115793
C11   C     C_R   0.398523 0.155653 0.122408 0.294246
C12   C     C_R   0.601607 0.844270 0.877697 0.296081
C13   C     C_R   0.536094 0.285213 0.169828 -0.159525
C14   C     C_R   0.464201 0.714684 0.830132 -0.158627
C15   C     C_R   0.484665 0.359900 0.073876 0.032341
C16   C     C_R   0.515288 0.639989 0.926121 0.039040
C17   C     C_R   0.401016 0.328649 0.998112 0.004431
C18   C     C_R   0.598965 0.671223 0.001920 0.000954
C19   C     C_R   0.516959 0.464641 0.050634 0.107499
C20   C     C_R   0.483215 0.535223 0.949325 0.116645
C21   C     C_R   0.420130 0.499560 0.873003 -0.189286
C22   C     C_R   0.580451 0.500208 0.126943 -0.188124
C23   C     C_R   0.263049 0.999798 0.501725 0.864657
C24   C     C_R   0.736945 0.000255 0.498208 0.865151
C25   C     C_R   0.366206 0.400115 0.896896 -0.016949
C26   C     C_R   0.634082 0.599714 0.103079 -0.017721
C27   C     C_R   0.700726 0.277075 0.682888 0.205519
C28   C     C_R   0.299318 0.722911 0.317096 0.205534
C29   C     C_R   0.683743 0.204920 0.640780 0.432538
C30   C     C_R   0.316255 0.795045 0.359230 0.435895
C31   C     C_R   0.520029 0.287571 0.507187 -0.020520
C32   C     C_R   0.480154 0.712512 0.492709 -0.022045
C33   C     C_R   0.544820 0.369555 0.539097 -0.057773
C34   C     C_R   0.455423 0.630540 0.460786 -0.055882
C35   C     C_R   0.621223 0.355034 0.637082 -0.054830
C36   C     C_R   0.378891 0.644997 0.362847 -0.054905
C37   C     C_R   0.493121 0.463445 0.478861 0.074142
C38   C     C_R   0.507212 0.536679 0.521009 0.074618
C39   C     C_R   0.565068 0.511462 0.624214 -0.217634
C40   C     C_R   0.435194 0.488627 0.375683 -0.215728
C41   C     C_R   0.619122 0.421446 0.683176 -0.003482
C42   C     C_R   0.380944 0.578553 0.316763 -0.003504
C43   C     C_R   0.316587 0.142683 0.743988 0.298830
C44   C     C_R   0.682818 0.856074 0.256946 0.298367
C45   C     C_R   0.240738 0.079620 0.696159 -0.086354
C46   C     C_R   0.758335 0.919625 0.304306 -0.086724
C47   C     C_R   0.182669 0.123492 0.591076 -0.053286
C48   C     C_R   0.817410 0.876238 0.409194 -0.057963
C49   C     C_R   0.196034 0.228912 0.538334 0.265747
C50   C     C_R   0.805392 0.770814 0.462187 0.275614
C51   C     C_R   0.265962 0.289518 0.589219 -0.186787
C52   C     C_R   0.735398 0.709763 0.411823 -0.188762
C53   C     C_R   0.328966 0.246461 0.690259 -0.211087
C54   C     C_R   0.671491 0.752328 0.310984 -0.212869
C55   C     C_R   0.963801 0.062647 0.533597 -0.156135
C56   C     C_R   0.036159 0.937805 0.465880 -0.128132
Cu1   Cu    Cu3+1 0.466270 0.918260 0.475690 1.052053
Cu2   Cu    Cu3+1 0.533730 0.081740 0.524310 1.046853
H1    H     H_    0.388404 0.293950 0.727261 0.200688
H2    H     H_    0.612225 0.704476 0.274351 0.200266
H3    H     H_    0.313573 0.197560 0.966188 0.234657
H4    H     H_    0.686329 0.802287 0.033932 0.234680
H5    H     H_    0.407123 0.550379 0.793515 0.164023
H6    H     H_    0.593911 0.449257 0.206404 0.164484
H7    H     H_    0.553693 0.712620 0.557987 0.163055
H8    H     H_    0.446578 0.287508 0.441852 0.165525
H9    H     H_    0.562251 0.558900 0.662244 0.166911
H10   H     H_    0.438014 0.441194 0.337648 0.167742
H11   H     H_    0.273477 0.370428 0.549704 0.211550
H12   H     H_    0.728706 0.628878 0.451549 0.210908
H13   H     H_    0.937865 0.113127 0.558612 0.205798
H14   H     H_    0.062095 0.887338 0.440862 0.209177
N1    N     N_R   0.584450 0.204570 0.560790 -0.226006
N2    N     N_R   0.415550 0.795430 0.439210 -0.226696
O1    O     O_R   0.455540 0.022090 0.338120 -0.542162
O2    O     O_R   0.544460 0.977910 0.661880 -0.539833
O3    O     O_R   0.512510 0.160150 0.379180 -0.551736
O4    O     O_R   0.487490 0.839850 0.620820 -0.559205
O5    O     O_R   0.291160 0.930970 0.479480 -0.536222
O6    O     O_R   0.708840 0.069030 0.520520 -0.539957
O7    O     O_R   0.348130 0.069020 0.520540 -0.597339
O8    O     O_R   0.651870 0.930980 0.479460 -0.596445
C57   C     C_2   0.652618 0.393172 0.795462 0.901764
O9    O     O_2   0.703604 0.456826 0.829963 -0.536546
O10   O     O_R   0.620570 0.294646 0.861672 -0.715183
H15   H     H_    0.645304 0.285230 0.936104 0.362339
C58   C     C_2   0.347129 0.606661 0.204507 0.903633
O11   O     O_2   0.295971 0.542912 0.170172 -0.529256
O12   O     O_R   0.379078 0.705121 0.138127 -0.715310
H16   H     H_    0.354112 0.714415 0.063731 0.363051
Br1   Br    Br    0.187968 0.885379 0.307407 -0.375060
Br2   Br    Br    0.812005 0.114555 0.692595 -0.378732
Br3   Br    Br    0.849288 0.279112 0.789055 -0.307649
Br4   Br    Br    0.150734 0.720866 0.210948 -0.303015
Br5   Br    Br    0.408040 0.091512 0.882108 -0.311123
Br6   Br    Br    0.590618 0.906514 0.119003 -0.312234
C59   C     C_2   0.218123 0.970004 0.757365 0.904367
O13   O     O_2   0.226936 0.909255 0.724546 -0.605023
O14   O     O_R   0.186302 0.936121 0.852993 -0.649905
H17   H     H_    0.174192 0.860061 0.887630 0.368351
C60   C     C_2   0.779716 0.029262 0.242747 0.906839
O15   O     O_2   0.770250 0.089950 0.275413 -0.613183
O16   O     O_R   0.811088 0.063235 0.146947 -0.649092
H18   H     H_    0.822315 0.139296 0.112060 0.370707
Br7   Br    Br    0.119630 0.293484 0.396624 -0.455019
Br8   Br    Br    0.884393 0.706826 0.603396 -0.446688
C61   C     C_2   0.271900 0.376960 0.813526 0.846358
O17   O     O_2   0.277427 0.429763 0.724172 -0.607803
O18   O     O_R   0.171774 0.300059 0.835479 -0.698182
H19   H     H_    0.117651 0.290976 0.771933 0.378143
C62   C     C_2   0.728490 0.622869 0.186421 0.853735
O19   O     O_2   0.723305 0.569858 0.275796 -0.609436
O20   O     O_R   0.828348 0.700002 0.164408 -0.697507
H20   H     H_    0.882504 0.709074 0.227951 0.378312
C63   C     C_2   0.326357 0.699187 0.782747 0.897411
O21   O     O_2   0.287024 0.740042 0.690781 -0.525154
O22   O     O_R   0.240393 0.638048 0.845610 -0.715524
H21   H     H_    0.149893 0.632977 0.805821 0.382961
C64   C     C_2   0.674361 0.300165 0.216593 0.902554
O23   O     O_2   0.749960 0.350667 0.160984 -0.523092
O24   O     O_R   0.719445 0.256615 0.322013 -0.711277
H22   H     H_    0.814874 0.272624 0.342431 0.374061
Br9   Br    Br    0.642821 0.980420 0.863940 -0.284106
Br10  Br    Br    0.357252 0.019495 0.136245 -0.285291

loop_
_geom_bond_atom_site_label_1
_geom_bond_atom_site_label_2
_ccdc_geom_bond_type
C31   H8    S    
C58   O11   D    
C60   O15   D    
C27   C29   A    
C1    O3    A    
Cu1   O5    S    
C5    C56   A    
C36   C42   A    
C62   O19   D    
C18   C26   A    
C6    C55   A    
C59   O13   D    
C53   H1    S    
Cu2   O2    S    
C39   C41   A    
C54   H2    S    
O10   H15   S    
C15   C19   A    
C57   O9    D    
C9    H3    S    
C16   C20   A    
C37   C40   A    
C32   N2    A    
C38   C39   A    
C30   N2    A    
C31   N1    A    
C29   N1    A    
C63   O21   D    
C41   C57   S    
C28   Br4   S    
C45   C47   A    
C24   O8    A    
C21   C25   A    
Cu2   O3    S    
C59   O14   S    
C24   O6    A    
C3    C55   A    
C43   C53   A    
C19   C20   A    
C52   C54   A    
C49   C51   A    
C43   Br5   S    
C61   O17   D    
C31   C33   A    
Cu2   O6    S    
C40   C42   A    
C60   O16   S    
C1    C7    S    
C4    C56   A    
C61   O18   S    
C3    C24   S    
C10   H4    S    
C13   C64   S    
C44   C46   A    
C64   O24   S    
C46   C60   S    
C46   C48   A    
C6    C47   S    
C1    O1    A    
C19   C22   A    
C4    C6    A    
Cu2   O7    S    
C4    C23   S    
C49   Br7   S    
C27   C35   A    
C33   C37   A    
C51   C53   A    
C32   C34   A    
Cu1   N2    S    
C7    C11   A    
C37   C38   A    
C2    O4    A    
C9    C11   A    
C50   C52   A    
O14   H17   S    
C8    C12   A    
C62   O20   S    
C43   C45   A    
O24   H22   S    
C10   C12   A    
C9    C17   A    
C57   O10   S    
C13   C15   A    
C40   H10   S    
C14   C16   A    
C27   Br3   S    
C2    O2    A    
C25   C61   S    
O20   H20   S    
C15   C17   A    
C63   O22   S    
C8    C14   A    
C44   Br6   S    
C23   O7    A    
C56   H14   S    
C34   C38   A    
C39   H9    S    
Cu1   O4    S    
C2    C8    S    
C30   Br1   S    
C3    C5    A    
C64   O23   D    
C47   C49   A    
C17   C25   A    
Cu1   O1    S    
C28   C30   A    
C45   C59   S    
O22   H21   S    
C5    C48   S    
Cu1   Cu2   S    
C12   Br9   S    
C10   C18   A    
C48   C50   A    
C33   C35   A    
C34   C36   A    
C35   C41   A    
C21   H5    S    
C52   H12   S    
C22   H6    S    
C44   C54   A    
C7    C13   A    
C20   C21   A    
C28   C36   A    
C16   C18   A    
C22   C26   A    
O16   H18   S    
C50   Br8   S    
C58   O12   S    
Cu1   O8    S    
C42   C58   S    
C51   H11   S    
C11   Br10  S    
C23   O5    A    
O12   H16   S    
O18   H19   S    
C26   C62   S    
C29   Br2   S    
C55   H13   S    
C14   C63   S    
Cu2   N1    S    
C32   H7    S    
