data_mof_unit_58180.cif
_audit_creation_date              2012-10-26T18:34:24-0400
_audit_creation_method            fapswitch 2.2
_symmetry_space_group_name_H-M    P1
_symmetry_Int_Tables_number       1
_space_group_crystal_system       triclinic
_cell_length_a                    10.883817
_cell_length_b                    9.655273
_cell_length_c                    9.07832
_cell_angle_alpha                 89.999679
_cell_angle_beta                  95.247339
_cell_angle_gamma                 89.996002
_cell_volume                      950.008297788

loop_
_atom_site_label
_atom_site_type_symbol
_atom_type_description
_atom_site_fract_x
_atom_site_fract_y
_atom_site_fract_z
_atom_type_partial_charge
C1    C     C_R   0.263469 0.500005 0.513134 0.578219
C2    C     C_R   0.063412 0.627153 0.521763 -0.048191
C3    C     C_R   0.870985 0.499986 0.472115 0.031119
C4    C     C_R   0.129015 0.500015 0.527882 0.031117
C5    C     C_R   0.420711 0.074239 0.401423 0.141900
C6    C     C_R   0.579289 0.925761 0.598577 0.141899
C7    C     C_R   0.579285 0.074227 0.598581 0.141917
C8    C     C_R   0.420715 0.925773 0.401418 0.141919
C9    C     C_2   0.124217 0.239757 0.569241 0.243804
C10   C     C_2   0.875782 0.760243 0.430755 0.243805
C11   C     C_2   0.875848 0.239691 0.431053 0.243721
C12   C     C_R   0.736531 0.499995 0.486865 0.578220
C13   C     C_2   0.124151 0.760312 0.568937 0.243721
C14   C     C_3   0.331073 0.146258 0.287921 -0.322393
C15   C     C_3   0.668926 0.853742 0.712079 -0.322394
C16   C     C_3   0.668874 0.146236 0.712133 -0.322392
C17   C     C_3   0.331127 0.853763 0.287866 -0.322391
C18   C     C_R   0.499361 0.500000 0.220928 0.553604
C19   C     C_R   0.500638 0.500000 0.779072 0.553604
C20   C     C_1   0.499774 0.500000 0.065597 -0.018312
C21   C     C_1   0.500226 0.499999 0.934403 -0.018313
C22   C     C_R   0.063442 0.372870 0.521917 -0.048204
C23   C     C_R   0.936558 0.627131 0.478080 -0.048202
C24   C     C_R   0.936587 0.372848 0.478233 -0.048192
Cu1   Cu    Cu3+1 0.500000 0.640660 0.500000 0.991430
Cu2   Cu    Cu3+1 0.500000 0.359340 0.500000 0.991431
H1    H     H_    0.105362 0.145573 0.506188 0.075371
H2    H     H_    0.646022 0.879989 0.825398 0.124765
H3    H     H_    0.672562 0.258149 0.707553 0.192489
H4    H     H_    0.645858 0.120068 0.825427 0.124810
H5    H     H_    0.764819 0.113875 0.698589 0.085323
H6    H     H_    0.327438 0.741851 0.292447 0.192489
H7    H     H_    0.235182 0.886126 0.301407 0.085322
H8    H     H_    0.354145 0.879930 0.174572 0.124810
H9    H     H_    0.894634 0.854426 0.493812 0.075371
H10   H     H_    0.894705 0.145573 0.494228 0.075289
H11   H     H_    0.105293 0.854427 0.505758 0.075288
H12   H     H_    0.327449 0.258178 0.292422 0.192504
H13   H     H_    0.353976 0.120010 0.174602 0.124763
H14   H     H_    0.235135 0.113978 0.301614 0.085365
H15   H     H_    0.672551 0.741822 0.707578 0.192505
H16   H     H_    0.764864 0.886023 0.698389 0.085364
N1    N     N_R   0.500000 0.852070 0.500000 -0.207364
N2    N     N_R   0.500000 0.147930 0.500000 -0.207365
O1    O     O_R   0.319640 0.618740 0.499990 -0.496468
O2    O     O_2   0.806962 0.766219 0.316854 -0.460247
O3    O     O_2   0.807059 0.233597 0.317135 -0.460245
O4    O     O_2   0.192939 0.766410 0.682856 -0.460245
O5    O     O_R   0.680360 0.381260 0.500010 -0.496469
O6    O     O_R   0.680360 0.618740 0.500010 -0.496509
O7    O     O_R   0.319640 0.381260 0.499990 -0.496505
O8    O     O_R   0.500000 0.618760 0.288390 -0.500641
O9    O     O_R   0.500000 0.381240 0.711610 -0.500639
O10   O     O_R   0.500000 0.618760 0.711610 -0.500666
O11   O     O_R   0.500000 0.381240 0.288390 -0.500666
O12   O     O_2   0.193040 0.233783 0.683141 -0.460244

loop_
_geom_bond_atom_site_label_1
_geom_bond_atom_site_label_2
_ccdc_geom_bond_type
C10   O2    D    
C13   O4    D    
C2    C4    A    
C6    C7    A    
C10   C23   S    
C5    C8    A    
C4    C22   A    
C11   O3    D    
C8    C17   S    
C8    N1    A    
C1    C4    S    
Cu2   O11   S    
C19   O9    A    
C12   O5    A    
C5    C14   S    
Cu1   O8    S    
Cu2   N2    S    
C9    O12   D    
Cu2   O7    S    
C20   C21   T    
C16   H5    S    
C1    O7    A    
C9    H1    S    
C1    O1    A    
C3    C24   A    
C10   H9    S    
C17   H7    S    
C18   O11   A    
C19   O10   A    
Cu1   N1    S    
C19   C21   S    
C5    N2    A    
C18   C20   S    
C6    N1    A    
C14   H13   S    
C22   C24   A    
C9    C22   S    
C14   H12   S    
C17   H8    S    
C16   H4    S    
C18   O8    A    
C15   H2    S    
Cu2   O9    S    
Cu1   O1    S    
C11   C24   S    
C3    C23   A    
Cu1   O10   S    
C15   H15   S    
C16   H3    S    
Cu2   O5    S    
Cu1   Cu2   S    
C2    C23   A    
C17   H6    S    
C2    C13   S    
Cu1   O6    S    
C7    C16   S    
C14   H14   S    
C3    C12   S    
C6    C15   S    
C7    N2    A    
C13   H11   S    
C15   H16   S    
C12   O6    A    
C11   H10   S    
