data_mof_unit_24697.cif
_audit_creation_date              2013-03-05T15:47:42-0500
_audit_creation_method            fapswitch 2.2
_symmetry_space_group_name_H-M    P1
_symmetry_Int_Tables_number       1
_space_group_crystal_system       triclinic
_cell_length_a                    18.205463
_cell_length_b                    18.934544
_cell_length_c                    19.352355
_cell_angle_alpha                 110.444904
_cell_angle_beta                  109.734461
_cell_angle_gamma                 107.858849
_cell_volume                      5156.89136533

loop_
_atom_site_label
_atom_site_type_symbol
_atom_site_description
_atom_site_fract_x
_atom_site_fract_y
_atom_site_fract_z
_atom_type_partial_charge
O1    O     O_R   0.590580 0.537990 0.448200 -0.576852
O2    O     O_R   0.589760 0.642350 0.551790 -0.589997
C1    C     C_R   0.617923 0.618799 0.499267 0.755169
O3    O     O_R   0.409540 0.447820 0.357340 -0.532686
O4    O     O_R   0.408720 0.552180 0.460940 -0.599038
C2    C     C_R   0.381908 0.502601 0.381792 0.914694
Cu1   Cu    Cu3+1 0.500490 0.438210 0.438660 1.029051
Cu2   Cu    Cu3+1 0.499510 0.561790 0.561340 1.002084
O5    O     O_R   0.410240 0.357650 0.448210 -0.592483
O6    O     O_R   0.409420 0.462010 0.551800 -0.538576
O7    O     O_R   0.591280 0.447820 0.539060 -0.601441
O8    O     O_R   0.590460 0.552180 0.642660 -0.582918
C3    C     C_R   0.385028 0.381690 0.504111 0.887036
C4    C     C_R   0.619645 0.499107 0.618054 0.765201
C5    C     C_3   0.325700 0.582391 0.300797 0.186055
C6    C     C_3   0.232871 0.565844 0.286986 0.167409
C7    C     C_3   0.193783 0.504950 0.192052 -0.148858
C8    C     C_3   0.287497 0.522612 0.205380 -0.122900
C9    C     C_3   0.275417 0.445367 0.220526 -0.106982
C10   C     C_3   0.180603 0.427450 0.206042 -0.152267
C11   C     C_3   0.220814 0.489833 0.301455 0.264336
C12   C     C_3   0.314747 0.506561 0.316541 -0.152498
H1    H     H_    0.316167 0.540538 0.168050 0.222291
H2    H     H_    0.293252 0.395609 0.192867 0.223161
H3    H     H_    0.120351 0.363207 0.165806 0.177427
H4    H     H_    0.853525 0.550570 0.486474 0.131265
C13   C     C_R   0.600991 0.769944 0.513114 -0.208205
C14   C     C_R   0.597623 0.846541 0.534734 0.315151
C15   C     C_R   0.659014 0.911862 0.535716 -0.224003
C16   C     C_R   0.723007 0.901538 0.515103 0.252842
C17   C     C_R   0.735656 0.827488 0.504798 0.076641
C18   C     C_R   0.672837 0.760864 0.505009 -0.008977
C19   C     C_R   0.807659 0.817165 0.495988 -0.143517
C20   C     C_R   0.814292 0.741578 0.485109 0.063978
C21   C     C_R   0.756260 0.680132 0.493276 0.106060
C22   C     C_R   0.682943 0.687201 0.498400 -0.123782
C23   C     C_R   0.878698 0.725742 0.466324 -0.112214
C24   C     C_R   0.891419 0.656691 0.465386 -0.088883
C25   C     C_R   0.841378 0.602347 0.483894 -0.115119
C26   C     C_R   0.774847 0.613853 0.498158 -0.128611
H5    H     H_    0.544969 0.718013 0.502067 0.197883
H6    H     H_    0.654634 0.970419 0.548224 0.217733
H7    H     H_    0.919534 0.765726 0.451232 0.129651
H8    H     H_    0.941545 0.646438 0.451931 0.134981
H9    H     H_    0.739937 0.570988 0.514618 0.136024
C27   C     C_R   0.794276 0.640648 0.732657 -0.158167
C28   C     C_R   0.871313 0.716564 0.797144 -0.164980
C29   C     C_R   0.916436 0.724739 0.875598 -0.138149
C30   C     C_R   0.887319 0.654851 0.888813 0.309263
C31   C     C_R   0.821545 0.571139 0.816229 -0.019657
C32   C     C_R   0.766935 0.568323 0.742884 0.030869
C33   C     C_R   0.809119 0.491337 0.813609 -0.172234
C34   C     C_R   0.730333 0.410585 0.743068 0.035480
C35   C     C_R   0.665238 0.416556 0.682754 0.007966
C36   C     C_R   0.685265 0.494321 0.682029 -0.116300
C37   C     C_R   0.711629 0.324085 0.726780 0.093554
C38   C     C_R   0.630950 0.251193 0.655204 0.317912
C39   C     C_R   0.563471 0.262394 0.607282 0.190766
C40   C     C_R   0.580639 0.344068 0.621925 -0.279110
H10   H     H_    0.757263 0.638563 0.674220 0.133438
H11   H     H_    0.892777 0.771009 0.788054 0.192690
H12   H     H_    0.971411 0.787252 0.926678 0.160679
H13   H     H_    0.526749 0.349032 0.581933 0.156695
H14   H     H_    0.160658 0.139720 0.209557 0.196767
C41   C     C_R   0.405886 0.380638 0.667922 0.071005
C42   C     C_R   0.411514 0.369400 0.737688 0.185772
C43   C     C_R   0.333316 0.322707 0.734819 0.191923
C44   C     C_R   0.252157 0.279482 0.658671 0.208563
C45   C     C_R   0.254378 0.262781 0.582086 -0.094936
C46   C     C_R   0.327326 0.321771 0.585238 -0.034940
C47   C     C_R   0.187952 0.186650 0.504234 -0.037994
C48   C     C_R   0.188432 0.172450 0.428064 0.055909
C49   C     C_R   0.244820 0.241244 0.426453 -0.046204
C50   C     C_R   0.317780 0.315673 0.505825 -0.122774
C51   C     C_R   0.132631 0.090570 0.352749 -0.090775
C52   C     C_R   0.128683 0.078504 0.276501 -0.222937
C53   C     C_R   0.172802 0.148773 0.271565 -0.174891
C54   C     C_R   0.225802 0.231032 0.344355 0.366357
H15   H     H_    0.092891 0.034338 0.352094 0.151518
H16   H     H_    0.086546 0.015400 0.219861 0.163714
O9    O     O_R   0.951000 0.537990 0.093340 -0.587686
O10   O     O_R   0.055380 0.642340 0.093300 -0.575804
C55   C     C_R   0.003108 0.618080 0.122005 0.776229
O11   O     O_R   0.042560 0.447800 0.094700 -0.599782
O12   O     O_R   0.146930 0.552150 0.094670 -0.576099
C56   C     C_R   0.124183 0.501240 0.123083 0.830250
Cu3   Cu    Cu3+1 0.942070 0.438200 0.003850 0.969517
Cu4   Cu    Cu3+1 0.065670 0.561760 0.003800 1.026422
O13   O     O_R   0.952370 0.357620 0.914350 -0.603096
O14   O     O_R   0.056740 0.461970 0.914310 -0.533847
O15   O     O_R   0.860810 0.447810 0.912980 -0.548422
O16   O     O_R   0.965190 0.552160 0.912950 -0.573116
C57   C     C_R   0.007657 0.381921 0.887867 0.793764
C58   C     C_R   0.882229 0.495144 0.881012 0.806972
O17   O     O_R   0.053330 0.909870 0.463140 -0.551184
O18   O     O_R   0.948140 0.909840 0.357940 -0.579147
C59   C     C_R   0.002320 0.881237 0.383386 0.815348
O19   O     O_R   0.962430 0.909850 0.552620 -0.544422
O20   O     O_R   0.857240 0.909830 0.447420 -0.583732
C60   C     C_R   0.879449 0.885318 0.501995 0.848855
Cu5   Cu    Cu3+1 0.062280 0.000030 0.562300 1.178189
Cu6   Cu    Cu3+1 0.937720 1.000000 0.437720 0.950575
O21   O     O_R   0.051860 0.090180 0.642080 -0.526016
O22   O     O_R   0.946670 0.090160 0.536880 -0.605331
O23   O     O_R   0.142760 0.090200 0.552610 -0.517434
O24   O     O_R   0.037570 0.090170 0.447410 -0.595894
C61   C     C_R   0.989805 0.111639 0.616306 0.898515
C62   C     C_R   0.119467 0.119399 0.502005 0.884198
C63   C     C_R   0.166960 0.756194 0.267388 -0.131833
C64   C     C_R   0.248443 0.827142 0.328520 -0.222279
C65   C     C_R   0.252944 0.896044 0.388368 -0.113775
C66   C     C_R   0.176481 0.894922 0.390196 0.333950
C67   C     C_R   0.088284 0.821862 0.325225 -0.087496
C68   C     C_R   0.085944 0.753815 0.260867 0.035464
C69   C     C_R   0.003883 0.812037 0.320235 -0.149894
C70   C     C_R   0.920870 0.733582 0.254759 0.015942
C71   C     C_R   0.922122 0.673309 0.187639 -0.033950
C72   C     C_R   0.003689 0.683673 0.190947 -0.119962
C73   C     C_R   0.835621 0.709883 0.252112 0.066603
C74   C     C_R   0.763195 0.625470 0.193380 0.234790
C75   C     C_R   0.764578 0.572501 0.123085 0.259310
C76   C     C_R   0.840414 0.602123 0.116882 -0.292040
H17   H     H_    0.169994 0.702645 0.226596 0.178946
H18   H     H_    0.308917 0.828282 0.330618 0.167117
H19   H     H_    0.318030 0.950843 0.436892 0.210946
H20   H     H_    0.835315 0.564608 0.057299 0.204527
H21   H     H_    0.180676 0.254248 0.995114 0.228622
C77   C     C_R   0.921576 0.351357 0.717523 -0.301936
C78   C     C_R   0.868107 0.331637 0.635012 0.295659
C79   C     C_R   0.842309 0.253252 0.566297 0.294720
C80   C     C_R   0.877358 0.200271 0.580917 -0.245278
C81   C     C_R   0.936880 0.221894 0.663872 0.090063
C82   C     C_R   0.954652 0.296725 0.733305 0.048723
C83   C     C_R   0.975096 0.169455 0.680389 -0.087738
C84   C     C_R   0.014599 0.184461 0.764960 -0.081070
C85   C     C_R   0.046110 0.266558 0.832457 -0.050648
C86   C     C_R   0.006786 0.317067 0.817394 -0.055128
C87   C     C_R   0.025264 0.121516 0.785611 0.269681
C88   C     C_R   0.080802 0.146907 0.870917 0.263417
C89   C     C_R   0.130994 0.234124 0.932009 -0.271947
C90   C     C_R   0.117308 0.295288 0.912710 0.275063
H22   H     H_    0.937661 0.410745 0.769192 0.154196
H23   H     H_    0.850575 0.139608 0.525905 0.169737
N1    N     N_2   0.204504 0.628207 0.317226 -0.466732
H24   H     H_    0.136441 0.601871 0.291125 0.242821
C91   C     C_3   0.254196 0.689979 0.407412 -0.577927
H25   H     H_    0.214079 0.718896 0.425150 0.230570
H26   H     H_    0.315802 0.742930 0.422892 0.269087
H27   H     H_    0.271051 0.659453 0.445596 0.224723
N2    N     N_2   0.770169 0.965693 0.501987 -0.393894
H28   H     H_    0.798522 0.026785 0.552357 0.259625
C92   C     C_3   0.718042 0.958136 0.421590 -0.659841
H29   H     H_    0.762316 0.999865 0.408355 0.222512
H30   H     H_    0.667129 0.978163 0.423753 0.209960
H31   H     H_    0.684381 0.890807 0.368564 0.231237
N3    N     N_2   0.477882 0.191093 0.542548 -0.354994
H32   H     H_    0.426425 0.205290 0.536467 0.269822
C93   C     C_3   0.471454 0.146377 0.461236 -0.606825
H33   H     H_    0.484741 0.190266 0.435750 0.205483
H34   H     H_    0.403328 0.091026 0.415459 0.234530
H35   H     H_    0.519473 0.121179 0.467512 0.248386
N4    N     N_2   0.914759 0.669642 0.973585 -0.401408
H36   H     H_    0.869746 0.624323 0.977145 0.236896
C94   C     C_3   0.951171 0.756434 0.041800 -0.666216
H37   H     H_    0.957680 0.756269 0.100582 0.227552
H38   H     H_    0.906262 0.783589 0.024814 0.225559
H39   H     H_    0.018708 0.797871 0.056033 0.234670
N5    N     N_2   0.404422 0.665460 0.352574 -0.436200
H40   H     H_    0.414213 0.697036 0.412691 0.277135
C95   C     C_3   0.411821 0.718148 0.313701 -0.630508
H41   H     H_    0.468145 0.784026 0.361460 0.226944
H42   H     H_    0.349577 0.721986 0.288168 0.227194
H43   H     H_    0.425165 0.690708 0.261348 0.243544
N6    N     N_2   0.770403 0.307752 0.781176 -0.416883
H44   H     H_    0.797192 0.274320 0.753277 0.276903
C96   C     C_3   0.736985 0.273809 0.827513 -0.425538
H45   H     H_    0.792156 0.278305 0.879270 0.216487
H46   H     H_    0.685771 0.205146 0.785645 0.236904
H47   H     H_    0.708368 0.311305 0.856522 0.249660
N7    N     N_R   0.616491 0.165346 0.632985 0.113866
O25   O     O_R   0.543799 0.108233 0.620089 -0.266281
O26   O     O_R   0.673013 0.142284 0.619637 -0.419013
N8    N     N_2   0.476231 0.455110 0.685326 -0.410276
H48   H     H_    0.537833 0.459706 0.713484 0.282474
C97   C     C_3   0.476472 0.534082 0.732697 -0.503963
H49   H     H_    0.528881 0.589470 0.739706 0.228296
H50   H     H_    0.490472 0.546595 0.797474 0.229391
H51   H     H_    0.411142 0.530198 0.698853 0.227394
N9    N     N_R   0.496529 0.409557 0.812403 0.157859
O27   O     O_R   0.512390 0.463151 0.886449 -0.247181
O28   O     O_R   0.559698 0.394643 0.805747 -0.331729
N10   N     N_R   0.336496 0.317825 0.807941 0.203235
O29   O     O_R   0.308660 0.243387 0.803284 -0.269935
O30   O     O_R   0.352865 0.384593 0.873619 -0.200555
N11   N     N_R   0.170297 0.265661 0.660308 0.117302
O31   O     O_R   0.167232 0.277380 0.729409 -0.299454
O32   O     O_R   0.106689 0.263483 0.601168 -0.379354
N12   N     N_R   0.244246 0.303092 0.331718 0.115023
O33   O     O_R   0.244775 0.296163 0.262599 -0.385004
O34   O     O_R   0.238861 0.367506 0.378673 -0.387239
N13   N     N_R   0.690712 0.487981 0.058506 0.178906
O35   O     O_R   0.642983 0.441115 0.078690 -0.239887
O36   O     O_R   0.679926 0.452108 0.982397 -0.291865
N14   N     N_R   0.195885 0.969254 0.461730 0.102509
O37   O     O_R   0.221605 0.970268 0.533739 -0.294995
O38   O     O_R   0.231119 0.042193 0.465216 -0.425927
N15   N     N_2   0.816124 0.770683 0.298717 -0.398753
H52   H     H_    0.788520 0.752361 0.332016 0.272262
C98   C     C_3   0.764030 0.796850 0.247763 -0.527191
H53   H     H_    0.760984 0.852177 0.289451 0.219689
H54   H     H_    0.694880 0.743780 0.201630 0.231268
H55   H     H_    0.794959 0.816912 0.212502 0.219384
N16   N     N_R   0.684130 0.598854 0.199942 0.143838
O39   O     O_R   0.607728 0.575511 0.137984 -0.263395
O40   O     O_R   0.688132 0.596236 0.267347 -0.352178
N17   N     N_2   0.837265 0.389244 0.622166 -0.432600
H56   H     H_    0.842762 0.435076 0.674824 0.244974
C99   C     C_3   0.859547 0.421930 0.570433 -0.599187
H57   H     H_    0.902618 0.492881 0.609328 0.206272
H58   H     H_    0.797417 0.406851 0.517213 0.235610
H59   H     H_    0.895645 0.393689 0.543754 0.239847
N18   N     N_2   0.779511 0.226309 0.482043 -0.424166
H60   H     H_    0.786009 0.185836 0.435241 0.245901
C100  C     C_3   0.688262 0.194077 0.464052 -0.642336
H61   H     H_    0.644581 0.179006 0.399001 0.223398
H62   H     H_    0.681151 0.242885 0.509806 0.254178
H63   H     H_    0.666138 0.134427 0.467548 0.233789
N19   N     N_R   0.972758 0.031834 0.722941 0.127467
O41   O     O_R   0.886882 0.998431 0.679458 -0.410513
O42   O     O_R   0.008172 0.981405 0.719135 -0.283544
N20   N     N_R   0.087145 0.085182 0.896307 0.166763
O43   O     O_R   0.162778 0.103144 0.955244 -0.315848
O44   O     O_R   0.015224 0.017857 0.871468 -0.298182
N21   N     N_R   0.185470 0.384010 0.967124 0.136997
O45   O     O_R   0.251699 0.406456 0.038299 -0.373681
O46   O     O_R   0.197082 0.433912 0.935192 -0.279078
N22   N     N_2   0.185870 0.474427 0.354766 -0.354417
H64   H     H_    0.225924 0.520171 0.418447 0.262692
C101  C     C_3   0.092126 0.447400 0.323023 -0.592174
H65   H     H_    0.071079 0.425440 0.362670 0.235236
H66   H     H_    0.051879 0.392955 0.256390 0.231845
H67   H     H_    0.079100 0.501686 0.326603 0.200713
N23   N     N_R   0.529816 0.856670 0.552864 0.117510
O47   O     O_R   0.512442 0.918180 0.551898 -0.305588
O48   O     O_R   0.487618 0.806799 0.574214 -0.374070

loop_
_geom_bond_atom_site_label_1
_geom_bond_atom_site_label_2
_geom_bond_distance
_ccdc_geom_bond_type
C5    C8    1.537630 S    
C11   N22   1.447018 S    
Cu3   Cu4   2.703886 S    
C82   C86   1.411452 A    
C6    C11   1.525540 S    
Cu3   O15   1.986435 S    
C15   H6    1.083536 S    
C84   C87   1.428363 A    
C20   C23   1.422767 A    
C49   C50   1.439273 A    
Cu4   O14   1.982733 S    
C65   C66   1.398254 A    
O11   Cu3   1.967667 S    
N8    H48   1.027883 S    
C77   C78   1.395531 A    
C98   H55   1.111928 S    
N21   O45   1.298771 A    
N19   O42   1.301286 A    
C38   C39   1.393585 A    
C99   H57   1.111333 S    
Cu1   Cu2   2.699138 S    
C17   C18   1.421688 A    
C34   C35   1.421221 A    
C37   C38   1.424082 A    
Cu1   O7    1.984944 S    
H14   C53   1.082653 S    
C94   H38   1.111447 S    
C23   C24   1.391176 A    
C89   C90   1.399669 A    
O24   C62   1.291176 A    
C99   H59   1.111840 S    
C18   C22   1.429777 A    
C55   C72   1.465420 S    
C11   C12   1.541438 S    
C14   C15   1.378635 A    
C6    N1    1.448748 S    
O11   C56   1.293063 A    
C8    C9    1.555384 S    
C61   C83   1.504563 S    
O18   Cu6   1.972083 S    
C48   C51   1.419653 A    
C57   C86   1.473657 S    
O12   C56   1.297018 A    
C16   C17   1.446511 A    
Cu2   O6    1.986151 S    
O7    C4    1.291841 A    
H4    C25   1.082713 S    
C97   H50   1.110090 S    
C6    C7    1.531368 S    
C10   H3    1.110087 S    
C69   C70   1.452964 A    
C2    C12   1.474743 S    
C42   N9    1.436355 S    
C7    C10   1.545863 S    
C70   C71   1.410843 A    
N9    O28   1.301037 A    
C20   C21   1.407878 A    
N13   O35   1.301335 A    
C45   C47   1.411878 A    
O5    C3    1.306789 A    
C64   C65   1.365628 A    
C66   C67   1.460083 A    
C67   C68   1.422163 A    
C93   H35   1.109609 S    
C64   H18   1.081134 S    
N6    H44   1.028815 S    
C29   H12   1.080611 S    
C5    C12   1.537925 S    
C101  H65   1.110000 S    
C81   C82   1.418770 A    
N23   O48   1.301743 A    
C7    C8    1.543294 S    
C46   C50   1.445247 A    
C28   C29   1.385436 A    
C31   C33   1.437355 A    
C49   C54   1.433305 A    
C17   C19   1.438890 A    
C33   C58   1.476897 S    
N12   O33   1.301306 A    
C14   N23   1.440293 S    
C59   C69   1.462481 S    
C15   C16   1.397741 A    
C91   H26   1.107456 S    
C65   H19   1.084544 S    
C48   C49   1.407609 A    
N5    C95   1.445573 S    
C4    C36   1.454012 S    
Cu5   O21   1.971965 S    
C47   C62   1.459236 S    
C100  H61   1.110131 S    
C93   H34   1.110653 S    
N13   O36   1.301253 A    
N9    O27   1.300584 A    
N21   O46   1.301164 A    
O3    Cu1   1.968880 S    
N19   O41   1.298322 A    
O9    C55   1.296882 A    
N7    O26   1.300989 A    
C31   C32   1.402712 A    
N4    C94   1.451913 S    
C35   C40   1.411380 A    
C96   H47   1.112019 S    
Cu5   O23   1.992934 S    
C26   H9    1.079382 S    
O23   C62   1.298531 A    
O2    Cu2   1.981239 S    
C44   N11   1.445310 S    
C91   H25   1.110985 S    
C21   C26   1.421280 A    
C8    H1    1.107620 S    
Cu5   Cu6   2.694624 S    
N5    H40   1.025368 S    
C84   C85   1.407180 A    
C9    C12   1.548035 S    
C42   C43   1.397061 A    
C52   C53   1.381903 A    
N20   O44   1.301396 A    
C73   C74   1.418186 A    
C25   C26   1.391540 A    
C43   N10   1.433080 S    
C90   N21   1.440124 S    
C97   H51   1.111574 S    
C39   C40   1.380975 A    
C53   C54   1.403149 A    
C27   C32   1.414239 A    
N23   O47   1.301540 A    
C7    C56   1.459364 S    
C37   N6    1.420722 S    
O1    C1    1.307615 A    
C21   C22   1.413899 A    
C24   C25   1.385599 A    
C76   H20   1.076010 S    
Cu6   O22   1.988204 S    
C51   C52   1.384717 A    
N18   C100  1.446541 S    
C24   H8    1.082631 S    
C85   C90   1.416297 A    
O4    Cu2   1.984944 S    
C91   H27   1.108289 S    
C77   C82   1.415816 A    
C13   H5    1.069374 S    
C99   H58   1.109710 S    
O20   C60   1.289780 A    
C68   C72   1.411933 A    
C92   H31   1.111757 S    
C79   N18   1.424136 S    
Cu2   O8    1.968882 S    
O18   C59   1.301806 A    
C10   C11   1.540669 S    
O16   C58   1.316055 A    
C98   H53   1.107606 S    
C30   N4    1.434959 S    
C101  H66   1.110119 S    
Cu4   O16   1.967557 S    
C33   C34   1.460512 A    
N17   H56   1.030357 S    
C43   C44   1.403520 A    
C87   N19   1.432085 S    
C75   C76   1.385333 A    
N16   O39   1.301586 A    
C39   N3    1.424743 S    
C63   C68   1.422310 A    
N1    C91   1.446078 S    
C29   C30   1.412537 A    
N20   O43   1.301419 A    
C92   H30   1.111488 S    
C30   C31   1.436615 A    
O19   C60   1.307661 A    
N22   C101  1.445202 S    
C93   H33   1.111759 S    
N2    C92   1.451163 S    
C5    N5    1.441686 S    
O3    C2    1.300300 A    
C73   N15   1.416404 S    
H21   C89   1.082720 S    
C66   N14   1.423290 S    
C80   C81   1.418803 A    
C100  H63   1.111405 S    
C13   C14   1.389325 A    
C80   H23   1.068700 S    
C74   C75   1.393774 A    
O12   Cu4   1.986434 S    
O14   C57   1.294711 A    
N4    H36   1.029934 S    
C41   N8    1.418155 S    
C34   C37   1.456910 A    
Cu1   O5    1.981238 S    
C35   C36   1.410605 A    
C94   H37   1.104446 S    
C51   H15   1.081270 S    
C27   H10   1.082787 S    
C13   C18   1.422188 A    
O1    Cu1   1.986149 S    
C88   N20   1.437488 S    
C9    H2    1.110067 S    
C44   C45   1.420961 A    
C94   H39   1.109882 S    
C63   H17   1.076523 S    
C52   H16   1.082876 S    
C96   H46   1.107475 S    
N17   C99   1.450195 S    
N1    H24   1.030337 S    
O6    C3    1.300107 A    
C100  H62   1.110839 S    
C28   H11   1.082799 S    
C38   N7    1.438462 S    
O21   C61   1.316360 A    
C88   C89   1.393123 A    
O17   C59   1.295052 A    
C83   C84   1.425305 A    
O19   Cu5   1.974317 S    
C40   H13   1.079331 S    
N2    H28   1.030019 S    
C70   C73   1.454562 A    
C19   C60   1.464610 S    
N10   O29   1.301471 A    
C23   H7    1.080302 S    
C9    C10   1.555907 S    
C96   H45   1.108111 S    
C79   C80   1.400894 A    
C74   N16   1.437097 S    
N16   O40   1.300989 A    
C75   N13   1.441940 S    
C47   C48   1.406598 A    
C71   C72   1.412815 A    
O15   C58   1.293807 A    
N14   O38   1.298345 A    
O9    Cu3   1.982733 S    
C97   H49   1.108201 S    
O4    C2    1.294273 A    
C95   H42   1.109493 S    
C1    C22   1.472124 S    
C78   N17   1.427468 S    
O10   Cu4   1.977672 S    
N3    C93   1.445955 S    
C98   H54   1.109054 S    
C19   C20   1.421223 A    
O2    C1    1.292446 A    
C101  H67   1.108353 S    
C32   C36   1.395650 A    
C41   C42   1.413979 A    
O13   C57   1.310169 A    
C45   C46   1.415237 A    
N6    C96   1.455523 S    
C27   C28   1.385249 A    
C16   N2    1.414244 S    
C87   C88   1.413836 A    
N11   O31   1.300514 A    
O17   Cu5   1.988203 S    
O8    C4    1.297294 A    
O20   Cu6   1.993059 S    
N3    H32   1.032380 S    
N14   O37   1.302568 A    
N8    C97   1.453265 S    
C81   C83   1.437832 A    
O10   C55   1.300911 A    
C95   H41   1.109809 S    
Cu6   O24   1.974113 S    
C63   C64   1.373708 A    
C71   C76   1.417675 A    
N15   C98   1.454381 S    
Cu3   O13   1.977787 S    
N15   H52   1.027690 S    
C78   C79   1.401284 A    
C85   C86   1.409221 A    
N12   O34   1.296971 A    
C92   H29   1.108937 S    
C54   N12   1.428886 S    
N11   O32   1.302023 A    
C41   C46   1.441903 A    
N22   H64   1.029902 S    
C77   H22   1.079282 S    
N18   H60   1.031837 S    
O22   C61   1.302657 A    
N7    O25   1.301426 A    
C5    C6    1.528845 S    
N10   O30   1.301192 A    
C3    C50   1.476548 S    
C67   C69   1.454952 A    
C95   H43   1.109652 S    
