data_mof_unit_9138.cif
_audit_creation_date              2012-10-26T20:59:11-0400
_audit_creation_method            fapswitch 2.2
_symmetry_space_group_name_H-M    P1
_symmetry_Int_Tables_number       1
_space_group_crystal_system       triclinic
_cell_length_a                    15.908079
_cell_length_b                    9.097933
_cell_length_c                    7.824078
_cell_angle_alpha                 89.973143
_cell_angle_beta                  90.953318
_cell_angle_gamma                 92.558646
_cell_volume                      1131.09823536

loop_
_atom_site_label
_atom_site_type_symbol
_atom_type_description
_atom_site_fract_x
_atom_site_fract_y
_atom_site_fract_z
_atom_type_partial_charge
C1    C     C_1   0.499991 0.065395 0.500040 -0.054896
C2    C     C_3   0.986079 0.617197 0.590386 0.257961
C3    C     C_1   0.250262 0.477502 0.494892 -0.048795
C4    C     C_1   0.749776 0.519662 0.505917 -0.046169
C5    C     C_3   0.032301 0.484261 0.663567 0.238930
C6    C     C_3   0.967211 0.505649 0.346610 0.207704
C7    C     C_3   0.083591 0.475717 0.497610 -0.077494
C8    C     C_3   0.916085 0.512830 0.512847 -0.075785
C9    C     C_1   0.174843 0.469698 0.493322 -0.078350
C10   C     C_1   0.825132 0.523960 0.510731 -0.070913
C11   C     C_3   0.947328 0.185124 0.256867 0.018559
C12   C     C_1   0.500123 0.934615 0.499976 -0.054190
C13   C     C_3   0.933719 0.020593 0.283955 -0.382015
C14   C     C_3   0.047716 0.809771 0.745616 0.004137
C15   C     C_3   0.045080 0.975725 0.761134 -0.352742
C16   C     C_3   0.849192 0.236577 0.690709 -0.005676
C17   C     C_3   0.824942 0.092092 0.778755 -0.381578
C18   C     C_3   0.125382 0.712690 0.216573 -0.029470
C19   C     C_3   0.161759 0.857768 0.146910 -0.385820
C20   C     C_3   0.901427 0.644732 0.139044 0.020919
C21   C     C_3   0.838348 0.626309 0.991824 -0.345440
C22   C     C_3   0.130668 0.388329 0.851703 -0.013271
C23   C     C_R   0.499835 0.220148 0.500020 0.547903
C24   C     C_3   0.136468 0.318340 0.027165 -0.333039
C25   C     C_R   0.500229 0.779857 0.499984 0.549682
C26   C     C_R   0.339620 0.492395 0.498545 0.542826
C27   C     C_R   0.660382 0.507494 0.501505 0.538646
C28   C     C_3   0.962815 0.379714 0.586098 0.244554
C29   C     C_3   0.037183 0.608904 0.423820 0.215121
C30   C     C_3   0.013146 0.371410 0.419806 0.254160
Cu1   Cu    Cu3+1 0.500010 0.500000 0.669080 1.008485
Cu2   Cu    Cu3+1 0.499990 0.500000 0.330920 1.012167
H1    H     H_    0.950508 0.207527 0.117682 0.180726
H2    H     H_    0.033870 0.024911 0.633613 0.235074
H3    H     H_    0.817856 0.234187 0.562708 0.124555
H4    H     H_    0.826312 0.327474 0.770007 0.153144
H5    H     H_    0.852723 0.090303 0.909612 0.139853
H6    H     H_    0.755400 0.079885 0.788012 0.110017
H7    H     H_    0.847528 0.998076 0.704493 0.178532
H8    H     H_    0.090689 0.650673 0.114088 0.178022
H9    H     H_    0.179980 0.650022 0.256737 0.147835
H10   H     H_    0.199991 0.916568 0.247743 0.175644
H11   H     H_    0.202560 0.836581 0.036584 0.101391
H12   H     H_    0.890216 0.237463 0.304321 0.147058
H13   H     H_    0.110881 0.928893 0.104201 0.141831
H14   H     H_    0.952672 0.722767 0.098457 0.160850
H15   H     H_    0.868769 0.694085 0.248194 0.137137
H16   H     H_    0.784412 0.552705 0.030563 0.153619
H17   H     H_    0.814770 0.735085 0.954714 0.107459
H18   H     H_    0.868902 0.577593 0.880243 0.204717
H19   H     H_    0.187355 0.462648 0.836183 0.139724
H20   H     H_    0.130761 0.296587 0.757256 0.152984
H21   H     H_    0.088864 0.226374 0.036033 0.181439
H22   H     H_    0.199588 0.272964 0.046382 0.098763
H23   H     H_    0.988032 0.962515 0.236119 0.190017
H24   H     H_    0.126694 0.400460 0.128318 0.188453
H25   H     H_    0.876155 0.980184 0.213309 0.069194
H26   H     H_    0.925706 0.996016 0.421664 0.201262
H27   H     H_    0.104500 0.785892 0.670704 0.171363
H28   H     H_    0.055418 0.762963 0.874396 0.150987
H29   H     H_    0.994928 0.005000 0.850063 0.164433
H30   H     H_    0.106417 0.021157 0.811747 0.078466
N1    N     N_1   0.499990 0.500000 0.076820 -0.084023
N2    N     N_1   0.500010 0.500000 0.923180 -0.084067
O1    O     O_R   0.500000 0.288400 0.642760 -0.496345
O2    O     O_3   0.971502 0.751578 0.672469 -0.564155
O3    O     O_3   0.937188 0.250280 0.675730 -0.551381
O4    O     O_3   0.072307 0.741099 0.354095 -0.570832
O5    O     O_3   0.934290 0.506737 0.177778 -0.549392
O6    O     O_3   0.058084 0.471990 0.837166 -0.542566
O7    O     O_R   0.500000 0.711600 0.357240 -0.495473
O8    O     O_R   0.500000 0.288400 0.357240 -0.495008
O9    O     O_R   0.500000 0.711600 0.642760 -0.494713
O10   O     O_R   0.379080 0.500000 0.642760 -0.501772
O11   O     O_R   0.620920 0.500000 0.357240 -0.497553
O12   O     O_R   0.379070 0.500000 0.357190 -0.500064
O13   O     O_R   0.620930 0.500000 0.642810 -0.503361
O14   O     O_3   0.024030 0.236004 0.336664 -0.559957

loop_
_geom_bond_atom_site_label_1
_geom_bond_atom_site_label_2
_ccdc_geom_bond_type
C6    O5    S    
C7    C29   S    
Cu2   O11   S    
C21   H17   S    
Cu2   O8    S    
C14   H27   S    
C2    C29   S    
C16   H3    S    
Cu1   O9    S    
C13   H25   S    
C24   H22   S    
C29   O4    S    
Cu1   O1    S    
C18   C19   S    
C17   H7    S    
C18   H8    S    
C16   C17   S    
C26   O12   A    
C25   O7    A    
C15   H2    S    
C19   H10   S    
C21   H16   S    
C7    C30   S    
C1    C12   T    
C27   O11   A    
Cu1   N2    S    
C21   H18   S    
C19   H11   S    
Cu1   O13   S    
Cu2   O7    S    
C15   H29   S    
C11   H1    S    
C28   O3    S    
C18   H9    S    
C5    C7    S    
Cu1   O10   S    
C6    C8    S    
C13   H26   S    
C27   O13   A    
C24   H21   S    
C5    O6    S    
C3    C9    T    
C11   O14   S    
C5    C28   S    
Cu1   Cu2   S    
C14   O2    S    
C11   H12   S    
C16   O3    S    
C17   H5    S    
C6    C30   S    
C1    C23   S    
C8    C28   S    
C22   C24   S    
C20   O5    S    
C2    C5    S    
C4    C10   T    
C4    C27   S    
C22   H20   S    
C7    C9    S    
C23   O8    A    
C3    C26   S    
C2    C8    S    
Cu2   N1    S    
C2    O2    S    
Cu2   O12   S    
C19   H13   S    
C24   H24   S    
C14   H28   S    
C12   C25   S    
C23   O1    A    
C28   C30   S    
C16   H4    S    
C11   C13   S    
C26   O10   A    
C15   H30   S    
C25   O9    A    
C17   H6    S    
C20   H15   S    
N1    N2    T    
C30   O14   S    
C6    C29   S    
C20   C21   S    
C8    C10   S    
C14   C15   S    
C18   O4    S    
C22   O6    S    
C20   H14   S    
C22   H19   S    
C13   H23   S    
