data_mof_unit_58128.cif
_audit_creation_date              2012-12-10T17:19:26-0500
_audit_creation_method            fapswitch 2.2
_symmetry_space_group_name_H-M    P1
_symmetry_Int_Tables_number       1
_space_group_crystal_system       triclinic
_cell_length_a                    15.06261
_cell_length_b                    10.81968
_cell_length_c                    9.630931
_cell_angle_alpha                 90.636941
_cell_angle_beta                  89.955659
_cell_angle_gamma                 96.086651
_cell_volume                      1560.63327107

loop_
_atom_site_label
_atom_site_type_symbol
_atom_type_description
_atom_site_fract_x
_atom_site_fract_y
_atom_site_fract_z
_atom_type_partial_charge
C1    C     C_R   0.493158 0.262083 0.499090 0.778069
C2    C     C_R   0.909005 0.529984 0.626029 0.051678
C3    C     C_R   0.949990 0.445818 0.255773 -0.183809
C4    C     C_R   0.042591 0.448365 0.255041 -0.207075
C5    C     C_R   0.091359 0.477177 0.377011 0.100077
C6    C     C_R   0.046911 0.503985 0.501164 0.062409
C7    C     C_R   0.095755 0.532228 0.624325 0.092767
C8    C     C_R   0.051596 0.560347 0.746769 -0.256383
C9    C     C_R   0.958813 0.560195 0.748537 -0.017560
C10   C     C_R   0.183917 0.478784 0.377076 -0.239867
C11   C     C_R   0.232416 0.504956 0.499970 -0.065482
C12   C     C_R   0.329055 0.502463 0.500023 0.787549
C13   C     C_R   0.188282 0.532008 0.623061 -0.240171
C14   C     C_R   0.348523 0.104400 0.661205 0.141487
C15   C     C_R   0.310395 0.038577 0.774952 -0.127495
C16   C     C_R   0.327004 0.916832 0.796988 -0.178508
C17   C     C_R   0.380986 0.858797 0.705344 -0.186367
C18   C     C_R   0.429379 0.926727 0.599782 0.072703
C19   C     C_R   0.419255 0.055470 0.586318 0.067638
C20   C     C_R   0.477816 0.126803 0.494284 -0.097487
C21   C     C_R   0.527807 0.067840 0.397114 -0.191418
C22   C     C_R   0.527931 0.940963 0.397796 -0.184610
C23   C     C_R   0.494087 0.736705 0.501097 0.805576
C24   C     C_R   0.484186 0.869875 0.502536 -0.095456
C25   C     C_R   0.625773 0.685267 0.133974 -0.011314
C26   C     C_R   0.676066 0.771367 0.049819 -0.206179
C27   C     C_R   0.671845 0.763481 0.909212 -0.222216
C28   C     C_R   0.616184 0.671004 0.848036 -0.128009
C29   C     C_R   0.558180 0.585657 0.923779 0.193996
C30   C     C_R   0.560189 0.588217 0.074300 0.137152
C31   C     C_R   0.444358 0.418415 0.072302 0.052144
C32   C     C_R   0.444822 0.418639 0.924985 -0.093701
C33   C     C_R   0.670911 0.496727 0.500195 0.839805
C34   C     C_R   0.815833 0.526806 0.623690 -0.231639
C35   C     C_R   0.767914 0.497637 0.500831 -0.064857
C36   C     C_R   0.812705 0.471215 0.378490 -0.226122
C37   C     C_R   0.905222 0.472997 0.378151 0.114589
C38   C     C_R   0.953666 0.502333 0.501945 0.048548
Cu1   Cu    Cu3+1 0.499990 0.499990 0.640660 0.922861
Cu2   Cu    Cu3+1 0.500010 0.500010 0.359340 0.958737
H1    H     H_    0.780161 0.548030 0.717145 0.168356
H2    H     H_    0.261211 0.077708 0.839415 0.141208
H3    H     H_    0.292639 0.864244 0.879657 0.147533
H4    H     H_    0.382343 0.760589 0.719548 0.177513
H5    H     H_    0.566169 0.899752 0.318499 0.160756
H6    H     H_    0.723051 0.845355 0.092801 0.155800
H7    H     H_    0.713828 0.828506 0.846439 0.164541
H8    H     H_    0.622070 0.671764 0.739078 0.213326
H9    H     H_    0.775551 0.448688 0.283498 0.158008
H10   H     H_    0.399844 0.351647 0.868484 0.127333
H11   H     H_    0.913333 0.422399 0.160678 0.159361
H12   H     H_    0.076027 0.427346 0.159283 0.144581
H13   H     H_    0.217905 0.457467 0.281881 0.167055
H14   H     H_    0.225908 0.553338 0.717850 0.151807
H15   H     H_    0.089536 0.582922 0.841104 0.145274
H16   H     H_    0.569212 0.120688 0.321726 0.159493
N1    N     N_R   0.500860 0.501210 0.147910 -0.220322
N2    N     N_R   0.500890 0.501290 0.852040 -0.204105
O1    O     O_R   0.499990 0.319640 0.618810 -0.573228
O2    O     O_R   0.500000 0.319660 0.381240 -0.575428
O3    O     O_R   0.370250 0.499960 0.618800 -0.607331
O4    O     O_R   0.370260 0.499980 0.381230 -0.578425
O5    O     O_R   0.500000 0.680340 0.618760 -0.615446
O6    O     O_R   0.500010 0.680360 0.381190 -0.579534
O7    O     O_R   0.629740 0.500020 0.618770 -0.604141
O8    O     O_R   0.629750 0.500040 0.381200 -0.583683
C39   C     C_3   0.299552 0.210134 0.608638 -0.402091
C40   C     C_3   0.202777 0.165463 0.569783 -0.809675
H17   H     H_    0.200781 0.087372 0.493560 0.264727
H18   H     H_    0.163259 0.134847 0.662859 0.243793
H19   H     H_    0.170830 0.242424 0.522050 0.253115
H20   H     H_    0.299750 0.283372 0.690001 0.206654
H21   H     H_    0.329709 0.250964 0.513084 0.209441
C41   C     C_1   0.382842 0.328759 0.141716 0.275267
N3    N     N_1   0.333197 0.256357 0.196920 -0.317060
C42   C     C_1   0.656192 0.712263 0.273307 0.325981
N4    N     N_1   0.685030 0.742516 0.381509 -0.336930
C43   C     C_1   0.916824 0.592820 0.877003 0.210835
N5    N     N_1   0.883094 0.619293 0.979558 -0.296417

loop_
_geom_bond_atom_site_label_1
_geom_bond_atom_site_label_2
_ccdc_geom_bond_type
Cu2   O2    S    
C35   C36   A    
C32   N2    A    
C33   O7    A    
C7    C8    A    
C26   C27   A    
C29   C30   A    
C4    H12   S    
C18   C24   A    
C36   C37   A    
C39   H20   S    
C1    O1    A    
C5    C6    A    
C15   C16   A    
C30   N1    A    
Cu2   O4    S    
C34   C35   A    
C10   H13   S    
C40   H17   S    
C28   H8    S    
C19   C20   A    
C8    C9    A    
C23   C24   S    
C6    C38   A    
C39   H21   S    
C2    C34   A    
C23   O5    A    
Cu2   O8    S    
C21   C22   A    
Cu1   O7    S    
C34   H1    S    
C8    H15   S    
C33   O8    A    
Cu1   O3    S    
C41   N3    T    
C39   C40   S    
C42   N4    T    
C1    O2    A    
Cu1   Cu2   S    
C3    H11   S    
C43   N5    T    
C16   C17   A    
C31   C41   S    
C25   C26   A    
Cu1   N2    S    
C37   C38   A    
C12   O4    A    
C2    C38   A    
C31   C32   A    
C14   C39   S    
Cu1   O1    S    
C17   C18   A    
C20   C21   A    
C16   H3    S    
C32   H10   S    
C23   O6    A    
C22   C24   A    
C3    C4    A    
C13   H14   S    
C27   H7    S    
C25   C30   A    
C28   C29   A    
C1    C20   S    
Cu2   N1    S    
C14   C19   A    
C15   H2    S    
C4    C5    A    
C21   H16   S    
C11   C12   S    
C6    C7    A    
Cu1   O5    S    
Cu2   O6    S    
C25   C42   S    
C31   N1    A    
C17   H4    S    
C5    C10   A    
C12   O3    A    
C11   C13   A    
C40   H19   S    
C33   C35   S    
C9    C43   S    
C10   C11   A    
C26   H6    S    
C7    C13   A    
C22   H5    S    
C29   N2    A    
C3    C37   A    
C40   H18   S    
C27   C28   A    
C18   C19   A    
C14   C15   A    
C2    C9    A    
C36   H9    S    
