data_mof_unit_56149.cif
_audit_creation_date              2012-12-10T18:54:30-0500
_audit_creation_method            fapswitch 2.2
_symmetry_space_group_name_H-M    P1
_symmetry_Int_Tables_number       1
_space_group_crystal_system       triclinic
_cell_length_a                    10.700029
_cell_length_b                    10.20178
_cell_length_c                    22.958753
_cell_angle_alpha                 90.000063
_cell_angle_beta                  93.229294
_cell_angle_gamma                 90.000016
_cell_volume                      2502.18281557

loop_
_atom_site_label
_atom_site_type_symbol
_atom_type_description
_atom_site_fract_x
_atom_site_fract_y
_atom_site_fract_z
_atom_type_partial_charge
C1    C     C_R   0.260994 0.500276 0.499961 0.817631
C2    C     C_R   0.739006 0.500276 0.500039 0.817631
C3    C     C_R   0.597753 0.349665 0.252421 0.150761
C4    C     C_R   0.402246 0.349665 0.747579 0.150761
C5    C     C_R   0.615383 0.409156 0.307835 0.049405
C6    C     C_R   0.384616 0.409156 0.692165 0.049405
C7    C     C_R   0.519088 0.489935 0.327659 -0.094985
C8    C     C_R   0.480911 0.489935 0.672341 -0.094985
C9    C     C_R   0.422074 0.531444 0.289357 -0.304493
C10   C     C_R   0.577925 0.531445 0.710643 -0.304493
C11   C     C_R   0.423857 0.500251 0.230831 -0.130525
C12   C     C_R   0.576142 0.500251 0.769169 -0.130525
C13   C     C_R   0.509056 0.406874 0.211810 0.249161
C14   C     C_R   0.490943 0.406875 0.788189 0.249162
C15   C     C_R   0.063850 0.382514 0.501621 -0.221048
C16   C     C_R   0.935937 0.621010 0.500221 -0.209091
C17   C     C_R   0.936150 0.382514 0.498378 -0.221049
C18   C     C_R   0.064063 0.621010 0.499780 -0.209091
C19   C     C_R   0.872017 0.501342 0.499408 0.004245
C20   C     C_R   0.127983 0.501342 0.500592 0.004245
C21   C     C_R   0.554970 0.070710 0.546431 0.099549
C22   C     C_R   0.442961 0.927978 0.454412 0.097707
C23   C     C_R   0.445030 0.070710 0.453568 0.099548
C24   C     C_R   0.557039 0.927979 0.545588 0.097706
C25   C     C_R   0.503053 0.499099 0.389856 0.845114
C26   C     C_R   0.496947 0.499099 0.610144 0.845114
C27   C     C_R   0.603037 0.349245 0.879319 0.478541
C28   C     C_R   0.396962 0.349245 0.120680 0.478541
C29   C     C_R   0.383278 0.391911 0.878155 0.497684
C30   C     C_R   0.616721 0.391911 0.121845 0.497684
C31   C     C_R   0.382669 0.366274 0.937821 -0.006246
C32   C     C_R   0.617330 0.366274 0.062178 -0.006247
C33   C     C_R   0.498074 0.352653 0.969438 -0.024216
C34   C     C_R   0.501925 0.352653 0.030561 -0.024215
C35   C     C_R   0.609976 0.347427 0.940239 -0.003481
C36   C     C_R   0.390023 0.347427 0.059761 -0.003481
C37   C     C_R   0.270876 0.361805 0.967032 -0.167386
C38   C     C_R   0.729123 0.361806 0.032968 -0.167386
C39   C     C_R   0.274537 0.347187 0.027498 -0.163756
C40   C     C_R   0.725461 0.347187 0.972502 -0.163755
H1    H     H_    0.180757 0.369395 0.943300 0.187021
H2    H     H_    0.819241 0.369396 0.056700 0.187021
H3    H     H_    0.187074 0.343927 0.049025 0.187687
H4    H     H_    0.812925 0.343928 0.950974 0.187687
H5    H     H_    0.344253 0.585914 0.305003 0.170742
H6    H     H_    0.655746 0.585915 0.694997 0.170742
H7    H     H_    0.354312 0.543693 0.200658 0.175497
H8    H     H_    0.645686 0.543693 0.799343 0.175497
H9    H     H_    0.111186 0.289449 0.505065 0.153413
H10   H     H_    0.887615 0.714288 0.500640 0.157546
H11   H     H_    0.888813 0.289449 0.494934 0.153413
H12   H     H_    0.112385 0.714288 0.499361 0.157547
N1    N     N_R   0.491526 0.377172 0.849384 -0.345718
N2    N     N_R   0.508473 0.377173 0.150616 -0.345717
N3    N     N_R   0.500000 0.857200 0.500000 -0.129909
N4    N     N_R   0.500000 0.142800 0.500000 -0.117585
O1    O     O_R   0.316770 0.614620 0.500000 -0.633883
O2    O     O_R   0.683230 0.385380 0.500000 -0.633887
O3    O     O_R   0.683230 0.614620 0.500000 -0.633883
O4    O     O_R   0.316770 0.385380 0.500000 -0.633887
O5    O     O_R   0.499970 0.614690 0.416160 -0.626048
O6    O     O_R   0.500030 0.385310 0.583840 -0.619321
O7    O     O_R   0.500030 0.614690 0.583840 -0.626048
O8    O     O_R   0.499970 0.385310 0.416160 -0.619321
O9    O     O_2   0.707184 0.326906 0.850284 -0.578151
O10   O     O_2   0.292815 0.326906 0.149716 -0.578151
O11   O     O_2   0.277902 0.436743 0.849763 -0.593331
O12   O     O_2   0.722097 0.436744 0.150237 -0.593331
Zn1   Zn    Zn3+2 0.500000 0.653120 0.500000 0.912589
Zn2   Zn    Zn3+2 0.500000 0.346880 0.500000 0.914472
C41   C     C_3   0.663986 0.221586 0.238843 -0.438615
C42   C     C_3   0.569751 0.109592 0.227941 -0.363683
C43   C     C_3   0.636593 0.979162 0.219855 -0.853562
H13   H     H_    0.700333 0.986113 0.183425 0.269881
H14   H     H_    0.691451 0.951613 0.260537 0.255910
H15   H     H_    0.566811 0.901102 0.209281 0.257458
H16   H     H_    0.509124 0.101430 0.265515 0.224446
H17   H     H_    0.509109 0.129534 0.188114 0.246286
H18   H     H_    0.722340 0.231377 0.200875 0.243122
H19   H     H_    0.728898 0.191108 0.275575 0.200775
C44   C     C_3   0.336013 0.221586 0.761156 -0.438615
C45   C     C_3   0.430248 0.109592 0.772059 -0.363681
C46   C     C_3   0.363406 0.979162 0.780144 -0.853564
H20   H     H_    0.299663 0.986113 0.816573 0.269881
H21   H     H_    0.308550 0.951612 0.739461 0.255910
H22   H     H_    0.433188 0.901102 0.790718 0.257458
H23   H     H_    0.490877 0.101431 0.734486 0.224447
H24   H     H_    0.490888 0.129534 0.811886 0.246286
H25   H     H_    0.277658 0.231377 0.799124 0.243122
H26   H     H_    0.271101 0.191108 0.724424 0.200775
C47   C     C_3   0.739585 0.398745 0.343397 -0.427898
C48   C     C_3   0.848140 0.448977 0.307997 -0.312001
C49   C     C_3   0.959139 0.495790 0.347232 -0.880421
H27   H     H_    0.933115 0.584996 0.371474 0.266838
H28   H     H_    0.988994 0.418556 0.378835 0.276054
H29   H     H_    0.038951 0.520148 0.320289 0.253840
H30   H     H_    0.880141 0.369703 0.279217 0.234763
H31   H     H_    0.816278 0.532740 0.279888 0.252435
H32   H     H_    0.736991 0.459982 0.383105 0.211109
H33   H     H_    0.757301 0.296942 0.358774 0.186482
C50   C     C_3   0.260414 0.398746 0.656603 -0.427897
C51   C     C_3   0.151859 0.448977 0.692003 -0.312002
C52   C     C_3   0.040861 0.495790 0.652768 -0.880421
H34   H     H_    0.066885 0.584997 0.628526 0.266839
H35   H     H_    0.011006 0.418557 0.621165 0.276055
H36   H     H_    0.961049 0.520148 0.679710 0.253840
H37   H     H_    0.119858 0.369702 0.720782 0.234763
H38   H     H_    0.183721 0.532739 0.720112 0.252436
H39   H     H_    0.263009 0.459982 0.616895 0.211109
H40   H     H_    0.242699 0.296942 0.641225 0.186482
C53   C     C_3   0.612856 0.140026 0.601032 -0.356111
C54   C     C_3   0.740425 0.205013 0.593376 -0.278568
C55   C     C_3   0.839925 0.167806 0.641190 -0.965725
H41   H     H_    0.811423 0.202426 0.684370 0.286380
H42   H     H_    0.854594 0.060268 0.642757 0.264537
H43   H     H_    0.930535 0.213574 0.631932 0.260321
H44   H     H_    0.775264 0.174312 0.551021 0.220377
H45   H     H_    0.730161 0.312728 0.595697 0.250957
H46   H     H_    0.543768 0.198406 0.622757 0.200783
H47   H     H_    0.629256 0.075415 0.637790 0.204366
C56   C     C_3   0.368131 0.855766 0.405774 -0.350202
C57   C     C_3   0.434326 0.850432 0.346889 -0.340007
C58   C     C_3   0.339645 0.854789 0.294166 -0.917134
H48   H     H_    0.257831 0.791099 0.301362 0.260019
H49   H     H_    0.304961 0.955763 0.285741 0.265542
H50   H     H_    0.384557 0.820420 0.254541 0.262495
H51   H     H_    0.503902 0.930294 0.343259 0.200794
H52   H     H_    0.491853 0.762374 0.342892 0.256310
H53   H     H_    0.339242 0.757799 0.419167 0.239857
H54   H     H_    0.275543 0.904109 0.399732 0.175868
C59   C     C_3   0.387144 0.140025 0.398968 -0.356112
C60   C     C_3   0.259576 0.205012 0.406624 -0.278568
C61   C     C_3   0.160076 0.167805 0.358809 -0.965725
H55   H     H_    0.188579 0.202426 0.315629 0.286381
H56   H     H_    0.145407 0.060268 0.357242 0.264537
H57   H     H_    0.069465 0.213573 0.368067 0.260321
H58   H     H_    0.224736 0.174310 0.448979 0.220376
H59   H     H_    0.269840 0.312727 0.404303 0.250957
H60   H     H_    0.456232 0.198406 0.377243 0.200783
H61   H     H_    0.370744 0.075415 0.362209 0.204366
C62   C     C_3   0.631869 0.855766 0.594226 -0.350203
C63   C     C_3   0.565674 0.850433 0.653111 -0.340008
C64   C     C_3   0.660355 0.854790 0.705834 -0.917134
H62   H     H_    0.742169 0.791100 0.698638 0.260019
H63   H     H_    0.695040 0.955764 0.714259 0.265542
H64   H     H_    0.615443 0.820422 0.745459 0.262495
H65   H     H_    0.496099 0.930295 0.656741 0.200794
H66   H     H_    0.508146 0.762375 0.657108 0.256310
H67   H     H_    0.660758 0.757799 0.580833 0.239857
H68   H     H_    0.724457 0.904109 0.600268 0.175867

loop_
_geom_bond_atom_site_label_1
_geom_bond_atom_site_label_2
_ccdc_geom_bond_type
C64   H64   S    
C30   C32   A    
C9    H5    S    
C49   H27   S    
C8    C26   S    
C43   H13   S    
C11   H7    S    
C53   C54   S    
C56   H54   S    
C12   H8    S    
C17   H11   S    
C41   H18   S    
C44   C45   S    
C48   H31   S    
C58   H48   S    
C24   N3    A    
C30   N2    A    
C50   C51   S    
C16   H10   S    
C38   H2    S    
C54   H44   S    
C58   H49   S    
C60   H59   S    
C64   H62   S    
C48   H30   S    
O6    Zn2   S    
C53   H46   S    
C6    C50   S    
C57   H51   S    
C28   O10   S    
C54   C55   S    
C42   H17   S    
C59   H61   S    
C17   C19   A    
C29   O11   S    
C4    C44   S    
O7    Zn1   S    
C60   C61   S    
C10   H6    S    
C61   H57   S    
C31   C33   A    
C51   H38   S    
O8    Zn2   S    
C47   H33   S    
C18   C20   A    
C3    C13   A    
C55   H43   S    
C44   H25   S    
C26   O6    A    
C49   H28   S    
C37   H1    S    
C43   H14   S    
C41   H19   S    
C21   C53   S    
C62   H68   S    
C15   C20   A    
C18   H12   S    
C63   H66   S    
C23   N4    A    
C4    C6    A    
C1    O4    A    
C47   C48   S    
C5    C7    A    
C28   N2    A    
C2    O3    A    
O2    Zn2   S    
C58   H50   S    
C39   H3    S    
C27   C35   A    
C60   H58   S    
C31   C37   A    
C53   H47   S    
C25   O8    A    
C32   C34   A    
C3    C41   S    
C26   O7    A    
C42   H16   S    
C27   O9    S    
C1    O1    A    
C54   H45   S    
C46   H20   S    
O4    Zn2   S    
C24   C62   S    
C29   C31   A    
C46   H22   S    
C2    O2    A    
C33   C34   A    
C23   C59   S    
C51   H37   S    
C52   H35   S    
C25   O5    A    
C9    C11   A    
C56   C57   S    
C5    C47   S    
C10   C12   A    
O3    Zn1   S    
C44   H26   S    
C16   C18   A    
C46   H21   S    
C12   C14   A    
C49   H29   S    
C32   C38   A    
C61   H55   S    
C43   H15   S    
C59   C60   S    
C22   C56   S    
C55   H41   S    
O5    Zn1   S    
C64   H63   S    
C1    C20   S    
C2    C19   S    
C63   C64   S    
C63   H65   S    
C36   C39   A    
C56   H53   S    
C42   C43   S    
C3    C5    A    
C21   N4    A    
C6    C8    A    
C27   N1    A    
C15   C17   A    
C22   N3    A    
C13   N2    S    
N4    Zn2   S    
C7    C25   S    
O1    Zn1   S    
N3    Zn1   S    
C35   C40   A    
C50   H40   S    
C41   C42   S    
C37   C39   A    
C4    C14   A    
C62   C63   S    
C38   C40   A    
C11   C13   A    
C62   H67   S    
C29   N1    A    
C16   C19   A    
C45   H24   S    
C48   C49   S    
C33   C35   A    
C52   H36   S    
C34   C36   A    
C15   H9    S    
C57   H52   S    
C51   C52   S    
C59   H60   S    
C7    C9    A    
C40   H4    S    
C14   N1    S    
C28   C36   A    
C8    C10   A    
C45   C46   S    
C21   C24   A    
C52   H34   S    
C61   H56   S    
C22   C23   A    
C47   H32   S    
C57   C58   S    
C50   H39   S    
C30   O12   S    
C45   H23   S    
C55   H42   S    
