data_mof_unit_36500.cif
_audit_creation_date              2012-12-10T20:42:42-0500
_audit_creation_method            fapswitch 2.2
_symmetry_space_group_name_H-M    P1
_symmetry_Int_Tables_number       1
_space_group_crystal_system       triclinic
_cell_length_a                    8.874729
_cell_length_b                    10.715223
_cell_length_c                    9.899653
_cell_angle_alpha                 89.647443
_cell_angle_beta                  89.788489
_cell_angle_gamma                 90.624585
_cell_volume                      941.324129279

loop_
_atom_site_label
_atom_site_type_symbol
_atom_type_description
_atom_site_fract_x
_atom_site_fract_y
_atom_site_fract_z
_atom_type_partial_charge
C1    C     C_R   0.499431 0.260289 0.500239 0.870822
C2    C     C_R   0.416504 0.413850 0.929868 0.216723
C3    C     C_3   0.250104 0.394716 0.924052 -0.509761
C4    C     C_R   0.218876 0.500247 0.500174 0.934690
C5    C     C_3   0.248781 0.397336 0.077579 -0.515343
C6    C     C_R   0.497085 0.739635 0.499814 0.882832
C7    C     C_R   0.781133 0.500446 0.499908 0.943716
C8    C     C_1   0.065510 0.500483 0.500418 -0.215512
C9    C     C_1   0.934525 0.500543 0.500012 -0.205587
C10   C     C_R   0.542384 0.063372 0.616440 0.099601
C11   C     C_R   0.505706 0.128457 0.499169 -0.088409
C12   C     C_R   0.472609 0.936510 0.379207 -0.234989
C13   C     C_R   0.477686 0.064825 0.378437 -0.252557
C14   C     C_R   0.308770 0.877339 0.763647 0.206113
C15   C     C_R   0.196153 0.912692 0.671142 -0.169823
C16   C     C_R   0.051317 0.860532 0.679819 -0.164264
C17   C     C_R   0.016519 0.773998 0.781519 -0.091420
C18   C     C_R   0.126425 0.739551 0.874736 -0.135004
C19   C     C_R   0.271869 0.790437 0.865761 -0.130636
C20   C     C_R   0.706677 0.659533 0.133100 0.192936
C21   C     C_R   0.677189 0.787677 0.138825 -0.162395
C22   C     C_R   0.786025 0.870810 0.188313 -0.130135
C23   C     C_R   0.500068 0.871596 0.499311 -0.088381
C24   C     C_R   0.926815 0.826919 0.228217 -0.119835
C25   C     C_R   0.959999 0.700371 0.215639 -0.176309
C26   C     C_R   0.851424 0.617252 0.165543 -0.127604
C27   C     C_R   0.537397 0.935645 0.616899 0.065967
C28   C     C_3   0.468283 0.930671 0.756034 -0.198950
C29   C     C_3   0.476319 0.072578 0.755359 -0.515640
C30   C     C_R   0.415581 0.414526 0.071957 0.196309
C31   C     C_R   0.597103 0.574814 0.068990 -0.005621
C32   C     C_R   0.594985 0.575083 0.925620 -0.187841
H1    H     H_    0.451431 0.113552 0.285355 0.171507
H2    H     H_    0.190961 0.474468 0.876796 0.223980
H3    H     H_    0.220241 0.980175 0.592003 0.141657
H4    H     H_    0.965890 0.887459 0.607820 0.136352
H5    H     H_    0.904330 0.733953 0.788270 0.124703
H6    H     H_    0.098980 0.673199 0.953995 0.128839
H7    H     H_    0.355402 0.762209 0.938874 0.110368
H8    H     H_    0.570882 0.823125 0.102728 0.100399
H9    H     H_    0.761781 0.969405 0.194244 0.138256
H10   H     H_    0.011144 0.891244 0.266353 0.125865
H11   H     H_    0.070470 0.667035 0.243053 0.144982
H12   H     H_    0.219298 0.301862 0.882317 0.196255
H13   H     H_    0.879756 0.519926 0.152856 0.130790
H14   H     H_    0.190377 0.479904 0.119357 0.208712
H15   H     H_    0.215547 0.306424 0.124116 0.200354
H16   H     H_    0.439755 0.888817 0.287941 0.165944
H17   H     H_    0.547015 0.888945 0.830615 0.141405
H18   H     H_    0.365465 0.120051 0.756591 0.200797
H19   H     H_    0.559162 0.110530 0.828824 0.193995
H20   H     H_    0.668605 0.637518 0.869080 0.144519
N1    N     N_R   0.499010 0.499140 0.142800 -0.126312
N2    N     N_R   0.499010 0.499180 0.857150 -0.106801
O1    O     O_R   0.500020 0.316790 0.614690 -0.616541
O2    O     O_R   0.500000 0.316760 0.385350 -0.626883
O3    O     O_R   0.285350 0.500020 0.614650 -0.608927
O4    O     O_R   0.285340 0.499980 0.385310 -0.630190
O5    O     O_R   0.500000 0.683240 0.614650 -0.621185
O6    O     O_R   0.499980 0.683210 0.385310 -0.619584
O7    O     O_R   0.714660 0.500020 0.614690 -0.621048
O8    O     O_R   0.714650 0.499980 0.385350 -0.613632
Zn1   Zn    Zn3+2 0.500010 0.500020 0.653130 0.941278
Zn2   Zn    Zn3+2 0.499990 0.499980 0.346870 0.936454

loop_
_geom_bond_atom_site_label_1
_geom_bond_atom_site_label_2
_ccdc_geom_bond_type
C4    O3    A    
C10   C27   A    
C24   C25   A    
O2    Zn2   S    
C7    O8    A    
C13   H1    S    
C23   C27   A    
C24   H10   S    
C28   H17   S    
O5    Zn1   S    
C31   C32   A    
C12   C23   A    
C16   H4    S    
C12   H16   S    
C2    C30   A    
C25   H11   S    
C17   C18   A    
C18   H6    S    
C3    C5    S    
C20   C26   A    
C17   H5    S    
C21   C22   A    
C31   N1    A    
O4    Zn2   S    
C12   C13   A    
C11   C13   A    
C10   C29   S    
C3    H2    S    
C5    H14   S    
C19   H7    S    
C6    C23   S    
C6    O5    A    
C32   N2    A    
C28   C29   S    
N1    Zn2   S    
C1    O2    A    
O6    Zn2   S    
O3    Zn1   S    
C2    C3    S    
C29   H18   S    
C29   H19   S    
C30   N1    A    
C22   C24   A    
C3    H12   S    
C22   H9    S    
C16   C17   A    
C10   C11   A    
C4    O4    A    
C15   C16   A    
C5    H15   S    
C6    O6    A    
C27   C28   S    
C20   C21   A    
O7    Zn1   S    
C18   C19   A    
C2    N2    A    
C15   H3    S    
C4    C8    S    
C7    C9    S    
N2    Zn1   S    
C32   H20   S    
O8    Zn2   S    
C1    C11   S    
C26   H13   S    
C14   C28   S    
C25   C26   A    
C14   C15   A    
C14   C19   A    
C7    O7    A    
C5    C30   S    
O1    Zn1   S    
C8    C9    T    
C1    O1    A    
C20   C31   S    
C21   H8    S    
