data_mof_unit_24237.cif
_audit_creation_date              2012-12-11T14:56:07-0500
_audit_creation_method            fapswitch 2.2
_symmetry_space_group_name_H-M    P1
_symmetry_Int_Tables_number       1
_space_group_crystal_system       triclinic
_cell_length_a                    28.023992
_cell_length_b                    17.280083
_cell_length_c                    18.073241
_cell_angle_alpha                 90.125716
_cell_angle_beta                  138.074442
_cell_angle_gamma                 89.928985
_cell_volume                      5847.82199662

loop_
_atom_site_label
_atom_site_type_symbol
_atom_type_description
_atom_site_fract_x
_atom_site_fract_y
_atom_site_fract_z
_atom_type_partial_charge
C1    C     C_R   0.668043 0.922517 0.817161 -0.115517
C2    C     C_R   0.331956 0.077484 0.182838 -0.115521
C3    C     C_R   0.312661 0.899163 0.196408 -0.139758
C4    C     C_R   0.687339 0.100837 0.803592 -0.139759
C5    C     C_R   0.187529 0.398957 0.802831 -0.140331
C6    C     C_R   0.812472 0.601043 0.197167 -0.140333
C7    C     C_R   0.833308 0.423246 0.183261 -0.114702
C8    C     C_R   0.166691 0.576753 0.816739 -0.114702
C9    C     C_3   0.747449 0.348281 0.952446 -0.242158
C10   C     C_3   0.252550 0.651719 0.047554 -0.242158
C11   C     C_3   0.296606 0.299185 0.015095 -0.239244
C12   C     C_3   0.703404 0.700811 0.984896 -0.239241
C13   C     C_3   0.204862 0.799738 0.983159 -0.238797
C14   C     C_3   0.795138 0.200262 0.016841 -0.238798
C15   C     C_3   0.755377 0.847536 0.047823 -0.242653
C16   C     C_3   0.244614 0.152468 0.952180 -0.242655
C17   C     C_R   0.611501 0.853143 0.356220 0.130516
C18   C     C_R   0.388497 0.146859 0.643778 0.130515
C19   C     C_R   0.286142 0.755763 0.387811 0.137385
C20   C     C_R   0.713858 0.244237 0.612190 0.137386
C21   C     C_R   0.214272 0.255669 0.613737 0.138246
C22   C     C_R   0.785729 0.744330 0.386267 0.138242
C23   C     C_R   0.888534 0.353760 0.643765 0.130530
C24   C     C_R   0.111466 0.646240 0.356235 0.130529
C25   C     C_R   0.394379 0.249807 0.741463 -0.234717
C26   C     C_R   0.605621 0.750193 0.258537 -0.234717
C27   C     C_R   0.735636 0.373893 0.591466 -0.235483
C28   C     C_R   0.264364 0.626107 0.408534 -0.235482
C29   C     C_R   0.763741 0.874010 0.407012 -0.235533
C30   C     C_R   0.236260 0.125990 0.592992 -0.235533
C31   C     C_R   0.105781 0.749246 0.259262 -0.234627
C32   C     C_R   0.894219 0.250754 0.740738 -0.234627
C33   C     C_R   0.423734 0.211563 0.714876 -0.174192
C34   C     C_R   0.576265 0.788438 0.285122 -0.174194
C35   C     C_R   0.691185 0.321137 0.574939 -0.196175
C36   C     C_R   0.308815 0.678862 0.425061 -0.196176
C37   C     C_R   0.808235 0.821359 0.423333 -0.193245
C38   C     C_R   0.191766 0.178641 0.576672 -0.193229
C39   C     C_R   0.076192 0.710794 0.285201 -0.174324
C40   C     C_R   0.923807 0.289205 0.714799 -0.174325
C41   C     C_R   0.334489 0.110685 0.622125 -0.281714
C42   C     C_R   0.665511 0.889316 0.377874 -0.281714
C43   C     C_R   0.785438 0.224905 0.682166 -0.275709
C44   C     C_R   0.214562 0.775095 0.317835 -0.275709
C45   C     C_R   0.714176 0.724809 0.316269 -0.276006
C46   C     C_R   0.285825 0.275190 0.683734 -0.276009
C47   C     C_R   0.165768 0.610336 0.378353 -0.281616
C48   C     C_R   0.834233 0.389664 0.621647 -0.281617
C49   C     C_R   0.302079 0.151077 0.642141 0.192384
C50   C     C_R   0.697921 0.848924 0.357860 0.192384
C51   C     C_R   0.828863 0.276084 0.693540 0.188648
C52   C     C_R   0.171137 0.723916 0.306460 0.188648
C53   C     C_R   0.670762 0.775834 0.305245 0.189111
C54   C     C_R   0.329239 0.224166 0.694756 0.189113
C55   C     C_R   0.198374 0.650927 0.358965 0.192360
C56   C     C_R   0.801626 0.349073 0.641035 0.192361
C57   C     C_R   0.360834 0.070523 0.492973 -0.128068
C58   C     C_R   0.639166 0.929478 0.507026 -0.128068
C59   C     C_R   0.674131 0.104526 0.593098 -0.147211
C60   C     C_R   0.325868 0.895473 0.406902 -0.147210
C61   C     C_R   0.825781 0.604532 0.406557 -0.146216
C62   C     C_R   0.174220 0.395468 0.593444 -0.146216
C63   C     C_R   0.139047 0.570226 0.506836 -0.128859
C64   C     C_R   0.860953 0.429773 0.493164 -0.128859
C65   C     C_R   0.409345 0.803539 0.497985 -0.143173
C66   C     C_R   0.590654 0.196461 0.502015 -0.143174
C67   C     C_R   0.556979 0.835010 0.420285 -0.134197
C68   C     C_R   0.443021 0.164990 0.579714 -0.134195
C69   C     C_R   0.943151 0.335355 0.579858 -0.136106
C70   C     C_R   0.056849 0.664645 0.420143 -0.136104
C71   C     C_R   0.090823 0.303427 0.502459 -0.141238
C72   C     C_R   0.909178 0.696573 0.497542 -0.141240
C73   C     C_R   0.604694 0.193353 0.714445 -0.162763
C74   C     C_R   0.395306 0.806647 0.285555 -0.162764
C75   C     C_R   0.417114 0.168332 0.273131 -0.140804
C76   C     C_R   0.582885 0.831669 0.726869 -0.140812
C77   C     C_R   0.081844 0.668091 0.726109 -0.141158
C78   C     C_R   0.918156 0.331909 0.273891 -0.141158
C79   C     C_R   0.895154 0.693500 0.286324 -0.162704
C80   C     C_R   0.104847 0.306499 0.713675 -0.162704
C81   C     C_R   0.641477 0.863336 0.829411 0.044672
C82   C     C_R   0.358521 0.136665 0.170589 0.044675
C83   C     C_R   0.325108 0.823864 0.191809 0.058494
C84   C     C_R   0.674892 0.176136 0.808191 0.058494
C85   C     C_R   0.175224 0.323509 0.806846 0.059278
C86   C     C_R   0.824777 0.676490 0.193151 0.059277
C87   C     C_R   0.860330 0.364129 0.171382 0.043911
C88   C     C_R   0.139670 0.635871 0.828618 0.043911
C89   C     C_R   0.397711 0.127142 0.575861 0.061168
C90   C     C_R   0.602288 0.872859 0.424138 0.061169
C91   C     C_R   0.661347 0.183280 0.567359 0.071480
C92   C     C_R   0.338653 0.816720 0.432641 0.071480
C93   C     C_R   0.838417 0.683395 0.431817 0.071020
C94   C     C_R   0.161583 0.316604 0.568185 0.071018
C95   C     C_R   0.102135 0.626642 0.423945 0.061379
C96   C     C_R   0.897865 0.373357 0.576055 0.061380
C97   C     C_3   0.706015 0.280306 0.940820 -0.194941
C98   C     C_3   0.293985 0.719693 0.059180 -0.194940
C99   C     C_3   0.335937 0.228286 0.026153 -0.190996
C100  C     C_3   0.664059 0.771697 0.973830 -0.191002
C101  C     C_3   0.162927 0.731787 0.970942 -0.192245
C102  C     C_3   0.837073 0.268214 0.029057 -0.192245
C103  C     C_3   0.794179 0.776704 0.058224 -0.193515
C104  C     C_3   0.205825 0.223313 0.941788 -0.193510
C105  C     C_3   0.232398 0.705130 0.089326 0.090681
C106  C     C_3   0.767602 0.294871 0.910674 0.090681
C107  C     C_3   0.724452 0.749991 0.942545 0.106856
C108  C     C_3   0.275561 0.250021 0.057461 0.106857
C109  C     C_3   0.774367 0.253056 0.057196 0.107368
C110  C     C_3   0.225633 0.746943 0.942804 0.107367
C111  C     C_3   0.265055 0.202201 0.908435 0.091493
C112  C     C_3   0.734932 0.797786 0.091553 0.091488
C113  C     C_3   0.273145 0.771641 0.100965 0.148427
C114  C     C_3   0.726855 0.228358 0.899035 0.148426
C115  C     C_3   0.685597 0.819804 0.930519 0.144615
C116  C     C_3   0.314402 0.180196 0.069479 0.144612
C117  C     C_3   0.815797 0.320064 0.070384 0.145018
C118  C     C_3   0.184203 0.679936 0.929616 0.145019
C119  C     C_3   0.226877 0.271562 0.897957 0.147902
C120  C     C_3   0.773124 0.728437 0.102039 0.147905
H1    H     H_    0.716788 0.954575 0.882216 0.091735
H2    H     H_    0.283211 0.045426 0.117784 0.091732
H3    H     H_    0.261174 0.926690 0.143269 0.087926
H4    H     H_    0.738826 0.073310 0.856731 0.087926
H5    H     H_    0.238945 0.426700 0.855960 0.087588
H6    H     H_    0.761055 0.573300 0.144038 0.087591
H7    H     H_    0.784818 0.455473 0.117874 0.092568
H8    H     H_    0.215182 0.544526 0.882125 0.092568
H9    H     H_    0.784374 0.930805 0.444852 0.126655
H10   H     H_    0.215627 0.069195 0.555152 0.126654
H11   H     H_    0.082569 0.803578 0.214753 0.124935
H12   H     H_    0.917431 0.196421 0.785247 0.124935
H13   H     H_    0.417527 0.304239 0.786023 0.124890
H14   H     H_    0.582472 0.695762 0.213977 0.124890
H15   H     H_    0.714916 0.430590 0.553633 0.126935
H16   H     H_    0.285084 0.569410 0.446368 0.126935
H17   H     H_    0.321537 0.030658 0.468630 0.098930
H18   H     H_    0.678463 0.969343 0.531369 0.098931
H19   H     H_    0.725914 0.077238 0.656160 0.087992
H20   H     H_    0.274086 0.922762 0.343841 0.087992
H21   H     H_    0.774045 0.577076 0.343429 0.087739
H22   H     H_    0.225955 0.422924 0.656572 0.087739
H23   H     H_    0.178290 0.530283 0.531057 0.099159
H24   H     H_    0.821710 0.469717 0.468943 0.099159
H25   H     H_    0.434847 0.748305 0.518512 0.080642
H26   H     H_    0.565153 0.251695 0.481488 0.080642
H27   H     H_    0.520652 0.788514 0.365879 0.092857
H28   H     H_    0.479347 0.211487 0.634120 0.092856
H29   H     H_    0.979525 0.288994 0.634279 0.092610
H30   H     H_    0.020475 0.711006 0.365721 0.092609
H31   H     H_    0.065370 0.248185 0.482058 0.080606
H32   H     H_    0.934630 0.751815 0.517944 0.080606
H33   H     H_    0.580770 0.250322 0.686871 0.090558
H34   H     H_    0.419229 0.749678 0.313129 0.090558
H35   H     H_    0.447141 0.218931 0.291382 0.098897
H36   H     H_    0.552859 0.781069 0.708617 0.098900
H37   H     H_    0.052329 0.719300 0.707803 0.099231
H38   H     H_    0.947671 0.280700 0.292197 0.099231
H39   H     H_    0.919490 0.750285 0.313640 0.090261
H40   H     H_    0.080511 0.249714 0.686358 0.090261
H41   H     H_    0.652515 0.283242 0.905477 0.114765
H42   H     H_    0.347485 0.716757 0.094524 0.114764
H43   H     H_    0.389179 0.227835 0.060587 0.121166
H44   H     H_    0.610814 0.772134 0.939384 0.121163
H45   H     H_    0.109258 0.734275 0.934988 0.120692
H46   H     H_    0.890742 0.265725 0.065011 0.120692
H47   H     H_    0.847248 0.776745 0.092004 0.115282
H48   H     H_    0.152760 0.223285 0.908020 0.115286
H49   H     H_    0.729646 0.409314 0.926968 0.115399
H50   H     H_    0.270353 0.590686 0.073032 0.115400
H51   H     H_    0.316673 0.359590 0.040894 0.113246
H52   H     H_    0.683345 0.640403 0.959094 0.113246
H53   H     H_    0.186662 0.860605 0.956860 0.113212
H54   H     H_    0.813339 0.139395 0.043140 0.113213
H55   H     H_    0.775047 0.908102 0.072877 0.114905
H56   H     H_    0.224934 0.091904 0.927129 0.114903
H57   H     H_    0.690013 0.942215 0.425796 0.118640
H58   H     H_    0.309986 0.057786 0.574203 0.118640
H59   H     H_    0.195057 0.832790 0.284098 0.114226
H60   H     H_    0.804943 0.167209 0.715902 0.114226
H61   H     H_    0.305231 0.332982 0.717445 0.113939
H62   H     H_    0.694769 0.667018 0.282558 0.113940
H63   H     H_    0.809681 0.442460 0.573777 0.118607
H64   H     H_    0.190319 0.557540 0.426223 0.118607
H65   H     H_    0.530562 0.762368 0.258975 0.111969
H66   H     H_    0.469437 0.237634 0.741022 0.111968
H67   H     H_    0.362445 0.660127 0.474465 0.112880
H68   H     H_    0.637555 0.339873 0.525535 0.112880
H69   H     H_    0.138185 0.159765 0.527386 0.112040
H70   H     H_    0.861817 0.840234 0.472620 0.112044
H71   H     H_    0.969731 0.263377 0.741333 0.111908
H72   H     H_    0.030269 0.736622 0.258666 0.111908
N1    N     N_R   0.625380 0.928280 0.709340 -0.041346
N2    N     N_R   0.374620 0.071720 0.290660 -0.041346
N3    N     N_R   0.374620 0.928280 0.290660 -0.034367
N4    N     N_R   0.625380 0.071720 0.709340 -0.034367
N5    N     N_R   0.125380 0.428280 0.709340 -0.034270
N6    N     N_R   0.874620 0.571720 0.290660 -0.034270
N7    N     N_R   0.874620 0.428280 0.290660 -0.041753
N8    N     N_R   0.125380 0.571720 0.709340 -0.041753
N9    N     N_R   0.386100 0.070250 0.452470 -0.041966
N10   N     N_R   0.613900 0.929750 0.547530 -0.041966
N11   N     N_R   0.613900 0.070250 0.547530 -0.037052
N12   N     N_R   0.386100 0.929750 0.452470 -0.037052
N13   N     N_R   0.886100 0.570250 0.452470 -0.036686
N14   N     N_R   0.113900 0.429750 0.547530 -0.036686
N15   N     N_R   0.113900 0.570250 0.547530 -0.042206
N16   N     N_R   0.886100 0.429750 0.452470 -0.042206
N17   N     N_R   0.437800 0.869550 0.507970 -0.035930
N18   N     N_R   0.562200 0.130450 0.492030 -0.035930
N19   N     N_R   0.562200 0.869550 0.492030 -0.042557
N20   N     N_R   0.437800 0.130450 0.507970 -0.042556
N21   N     N_R   0.937800 0.369550 0.507970 -0.042664
N22   N     N_R   0.062200 0.630450 0.492030 -0.042664
N23   N     N_R   0.062200 0.369550 0.492030 -0.035715
N24   N     N_R   0.937800 0.630450 0.507970 -0.035715
N25   N     N_R   0.573690 0.128980 0.653840 -0.033865
N26   N     N_R   0.426310 0.871020 0.346160 -0.033865
N27   N     N_R   0.426310 0.128980 0.346160 -0.041620
N28   N     N_R   0.573690 0.871020 0.653840 -0.041620
N29   N     N_R   0.073690 0.628980 0.653840 -0.041874
N30   N     N_R   0.926310 0.371020 0.346160 -0.041874
N31   N     N_R   0.926310 0.628980 0.346160 -0.033844
N32   N     N_R   0.073690 0.371020 0.653840 -0.033844
Ni1   Ni    Ni4+2 0.616560 0.000000 0.627280 0.214371
Ni2   Ni    Ni4+2 0.383440 1.000000 0.372720 0.214371
Ni3   Ni    Ni4+2 0.116560 0.500000 0.627280 0.214304
Ni4   Ni    Ni4+2 0.883440 0.500000 0.372720 0.214305
Ni5   Ni    Ni4+2 0.497990 0.870580 0.500000 0.206570
Ni6   Ni    Ni4+2 0.502010 0.129420 0.500000 0.206572
Ni7   Ni    Ni4+2 0.997990 0.370580 0.500000 0.206222
Ni8   Ni    Ni4+2 0.002010 0.629420 0.500000 0.206223
N33   N     N_3   0.238033 0.684503 0.173548 -0.206799
H73   H     H_    0.290489 0.666224 0.243130 0.101548
H74   H     H_    0.205192 0.636467 0.144313 0.109845
N34   N     N_3   0.761966 0.315498 0.826451 -0.206799
H75   H     H_    0.709510 0.333776 0.756870 0.101547
H76   H     H_    0.794807 0.363535 0.855686 0.109845
N35   N     N_3   0.719164 0.724157 0.859783 -0.212248
H77   H     H_    0.668490 0.699955 0.794071 0.094079
H78   H     H_    0.755755 0.679088 0.895036 0.098417
N36   N     N_3   0.280862 0.275870 0.140233 -0.212247
H79   H     H_    0.331538 0.300070 0.205935 0.094071
H80   H     H_    0.244275 0.320944 0.104982 0.098416
N37   N     N_3   0.777661 0.230548 0.138630 -0.212412
H81   H     H_    0.827602 0.205387 0.205401 0.095103
H82   H     H_    0.739875 0.186803 0.102893 0.098516
N38   N     N_3   0.222340 0.769451 0.861371 -0.212413
H83   H     H_    0.172399 0.794612 0.794599 0.095103
H84   H     H_    0.260126 0.813196 0.897108 0.098516
N39   N     N_3   0.257500 0.178342 0.822914 -0.206084
H85   H     H_    0.204313 0.161818 0.753891 0.099263
H86   H     H_    0.288521 0.128679 0.851360 0.109179
N40   N     N_3   0.742475 0.821631 0.177064 -0.206086
H87   H     H_    0.795658 0.838165 0.246092 0.099275
H88   H     H_    0.711443 0.871286 0.148612 0.109182

loop_
_geom_bond_atom_site_label_1
_geom_bond_atom_site_label_2
_ccdc_geom_bond_type
N14   N23   A    
C78   C87   A    
N1    N28   A    
C103  H47   S    
N16   N21   A    
C98   C110  S    
C65   C92   A    
C9    C117  S    
C83   C113  S    
C9    H49   S    
N35   H77   S    
C70   H30   S    
C104  C108  S    
C31   C52   A    
N5    N32   A    
N22   Ni8   S    
C110  C118  S    
N4    N25   A    
C109  C117  S    
N39   H85   S    
C12   H52   S    
C71   C94   A    
N38   H83   S    
C112  C120  S    
C13   H53   S    
C64   N16   A    
C74   H34   S    
C13   C110  S    
C57   C89   A    
N28   Ni5   S    
C106  C114  S    
N23   Ni7   S    
C101  C118  S    
C46   H61   S    
C105  C113  S    
C81   C115  S    
C76   N28   A    
C87   C117  S    
C14   C109  S    
C19   C36   A    
C79   H39   S    
C79   C86   A    
C61   C93   A    
C80   H40   S    
C104  H48   S    
C21   C94   S    
C42   H57   S    
C1    C81   A    
C49   C54   A    
N34   H76   S    
C63   C95   A    
N3    Ni2   S    
C88   C118  S    
C24   C39   A    
C97   C109  S    
C23   C96   S    
C4    H4    S    
N13   Ni4   S    
C10   C98   S    
C51   C56   A    
C85   C119  S    
C4    N4    A    
C17   C42   A    
N40   H88   S    
C19   C92   S    
C77   H37   S    
N29   Ni8   S    
C12   C120  S    
C20   C35   A    
C8    H8    S    
C71   H31   S    
C21   C38   A    
C103  C120  S    
C77   C88   A    
C3    H3    S    
C35   H68   S    
C72   H32   S    
N12   N17   A    
C31   H11   S    
N36   H80   S    
N11   N18   A    
C67   N19   A    
C33   H66   S    
C75   N27   A    
C66   N18   A    
C25   H13   S    
N7    Ni4   S    
C74   C83   A    
C73   C84   A    
C65   N17   A    
C68   H28   S    
C52   C55   A    
C19   C44   A    
C104  C119  S    
C5    C85   A    
C16   H56   S    
C2    H2    S    
C37   H70   S    
C109  N37   S    
C102  H46   S    
C63   N15   A    
N37   H81   S    
C24   C47   A    
C46   C54   A    
C100  C115  S    
C73   H33   S    
C62   H22   S    
C16   C116  S    
C44   H59   S    
C41   C49   A    
C98   H42   S    
C28   C55   A    
N6    Ni4   S    
C45   H62   S    
C68   C89   A    
N10   Ni1   S    
C8    C88   A    
C29   C50   A    
C60   C92   A    
C58   N10   A    
C101  C105  S    
N9    Ni2   S    
C20   C91   S    
C29   H9    S    
C43   H60   S    
C50   C53   A    
C78   H38   S    
N38   H84   S    
C17   C90   S    
C57   H17   S    
C70   N22   A    
C26   H14   S    
C41   H58   S    
C69   N21   A    
C25   C54   A    
C6    H6    S    
N35   H78   S    
C11   C119  S    
C18   C41   A    
C99   C116  S    
C6    N6    A    
C8    N8    A    
C27   C56   A    
C98   C113  S    
C5    N5    A    
C64   H24   S    
C27   C35   A    
C9    C106  S    
C14   C114  S    
C22   C37   A    
C107  N35   S    
C76   H36   S    
N15   N22   A    
C3    N3    A    
C2    N2    A    
N8    Ni3   S    
C69   C96   A    
C1    N1    A    
N26   Ni5   S    
C80   C85   A    
C10   C118  S    
C75   H35   S    
N25   Ni6   S    
C80   N32   A    
N20   Ni6   S    
N34   H75   S    
C112  N40   S    
C4    C84   A    
C59   H19   S    
C38   H69   S    
C99   C111  S    
C74   N26   A    
C25   C33   A    
N36   H79   S    
N18   Ni6   S    
C73   N25   A    
C100  H44   S    
N7    N30   A    
N17   Ni5   S    
C34   H65   S    
C101  H45   S    
N33   H74   S    
C48   H63   S    
C107  C115  S    
N2    N27   A    
C102  C117  S    
C106  N34   S    
C78   N30   A    
C99   H43   S    
C72   C93   A    
N5    Ni3   S    
C111  C119  S    
N15   Ni3   S    
C60   N12   A    
C72   N24   A    
N39   H86   S    
C42   C50   A    
N30   Ni7   S    
C100  C112  S    
C97   H41   S    
C16   C104  S    
C62   C94   A    
C108  C116  S    
C67   H27   S    
C22   C93   S    
C15   C115  S    
C2    C82   A    
C60   H20   S    
N8    N29   A    
N27   Ni6   S    
C65   H25   S    
C68   N20   A    
C26   C53   A    
C11   H51   S    
N11   Ni1   S    
C20   C43   A    
N31   Ni8   S    
C47   C55   A    
C21   C46   A    
C59   C91   A    
C32   C51   A    
C61   H21   S    
C48   C56   A    
N4    Ni1   S    
C32   C40   A    
C84   C114  S    
C23   C48   A    
N19   Ni5   S    
C32   H12   S    
C26   C34   A    
C28   H16   S    
C18   C89   S    
C105  N33   S    
C15   C112  S    
C30   C49   A    
N13   N24   A    
C47   H64   S    
N21   Ni7   S    
C76   C81   A    
C12   C107  S    
C103  C107  S    
C75   C82   A    
C79   N31   A    
C66   C91   A    
C44   C52   A    
C110  N38   S    
C10   H50   S    
C108  N36   S    
C6    C86   A    
C15   H55   S    
C58   C90   A    
C36   H67   S    
C15   C103  S    
N2    Ni2   S    
N40   H87   S    
N37   H82   S    
N6    N31   A    
C16   C111  S    
C82   C116  S    
C14   H54   S    
N10   N19   A    
C30   H10   S    
N16   Ni4   S    
N12   Ni2   S    
C3    C83   A    
C39   H72   S    
C58   H18   S    
C40   H71   S    
C43   C51   A    
C71   N23   A    
C45   C53   A    
C11   C99   S    
N24   Ni8   S    
C31   C39   A    
C5    H5    S    
C70   C95   A    
C64   C96   A    
C67   C90   A    
C69   H29   S    
C7    N7    A    
C18   C33   A    
C1    H1    S    
C66   H26   S    
C12   C100  S    
C14   C102  S    
N1    Ni1   S    
C59   N11   A    
N32   Ni7   S    
C22   C45   A    
C7    C87   A    
C28   C36   A    
C11   C108  S    
C17   C34   A    
C102  C106  S    
C29   C37   A    
N14   Ni3   S    
C9    C97   S    
C24   C95   S    
C77   N29   A    
C10   C105  S    
C86   C120  S    
N9    N20   A    
C30   C38   A    
C7    H7    S    
C97   C114  S    
C27   H15   S    
C111  N39   S    
C13   C101  S    
C62   N14   A    
N3    N26   A    
C13   C113  S    
C23   C40   A    
N33   H73   S    
C61   N13   A    
C63   H23   S    
C57   N9    A    
