data_mof_unit_16548.cif
_audit_creation_date              2012-12-10T16:55:01-0500
_audit_creation_method            fapswitch 2.2
_symmetry_space_group_name_H-M    P1
_symmetry_Int_Tables_number       1
_space_group_crystal_system       triclinic
_cell_length_a                    9.775129
_cell_length_b                    10.90013
_cell_length_c                    15.639767
_cell_angle_alpha                 88.261292
_cell_angle_beta                  72.929048
_cell_angle_gamma                 89.182926
_cell_volume                      1592.24232988

loop_
_atom_site_label
_atom_site_type_symbol
_atom_type_description
_atom_site_fract_x
_atom_site_fract_y
_atom_site_fract_z
_atom_type_partial_charge
C1    C     C_R   0.998936 0.265588 0.504308 0.830162
C2    C     C_R   0.668275 0.521125 0.905893 0.123680
C3    C     C_R   0.757824 0.571928 0.951759 -0.026276
C4    C     C_R   0.520692 0.503115 0.950857 -0.056628
C5    C     C_R   0.469745 0.516627 0.044991 -0.030667
C6    C     C_R   0.561804 0.569708 0.089305 0.578790
C7    C     C_R   0.704003 0.595399 0.042502 -0.260052
C8    C     C_R   0.420836 0.480920 0.903612 -0.252693
C9    C     C_R   0.274883 0.471095 0.947366 0.528984
C10   C     C_R   0.225110 0.480870 0.040443 -0.079628
C11   C     C_R   0.323934 0.489665 0.090005 -0.071630
C12   C     C_R   0.916446 0.505965 0.671562 0.799234
C13   C     C_R   0.078256 0.479546 0.085203 -0.220402
C14   C     C_R   0.028976 0.487950 0.178054 0.323455
C15   C     C_R   0.273999 0.466043 0.182725 0.395834
C16   C     C_2   0.885065 0.932139 0.537221 0.383492
C17   C     C_2   0.000710 0.868771 0.488995 0.244707
C18   C     C_2   0.882014 0.066760 0.521879 -0.210718
C19   C     C_2   0.996445 0.134008 0.519386 -0.298337
C20   C     C_2   0.397142 0.436399 0.557663 0.598802
C21   C     C_2   0.558684 0.415795 0.541858 0.644035
C22   C     C_R   0.000400 0.734810 0.497489 0.780334
C23   C     C_R   0.083401 0.493621 0.327905 0.850769
C24   C     C_R   0.869110 0.524684 0.768770 -0.152209
C25   C     C_R   0.128127 0.483045 0.228849 -0.249517
C26   C     C_R   0.898962 0.604203 0.905354 -0.177491
C27   C     C_R   0.953759 0.584732 0.813761 0.438640
C28   C     C_R   0.729101 0.491451 0.815930 -0.278333
Cu1   Cu    Cu3+1 0.138640 0.500020 0.499980 1.096508
Cu2   Cu    Cu3+1 0.861360 0.499980 0.500020 1.061975
H1    H     H_    0.771468 0.637411 0.077290 0.189627
H2    H     H_    0.000867 0.475055 0.048063 0.209631
H3    H     H_    0.785409 0.109522 0.514000 0.209814
H4    H     H_    0.090097 0.091492 0.531932 0.157637
H5    H     H_    0.965354 0.648772 0.939716 0.175740
H6    H     H_    0.669033 0.441325 0.781124 0.145088
H7    H     H_    0.451012 0.479784 0.831614 0.172173
N1    N     N_2   0.346430 0.498660 0.500980 -0.056510
N2    N     N_2   0.652550 0.498630 0.501000 -0.016869
O1    O     O_R   0.117050 0.321960 0.499980 -0.585728
O2    O     O_R   0.882890 0.321920 0.500020 -0.537721
O3    O     O_R   0.052910 0.500040 0.629810 -0.504369
O4    O     O_R   0.818750 0.499990 0.629840 -0.584954
O5    O     O_R   0.117110 0.678080 0.499980 -0.577476
O6    O     O_R   0.882950 0.678040 0.500020 -0.561300
O7    O     O_R   0.181250 0.500010 0.370160 -0.489492
O8    O     O_R   0.947090 0.499960 0.370190 -0.557517
O9    O     O_3   0.774158 0.867683 0.598866 -0.577528
C29   C     C_3   0.668442 0.944637 0.652614 -0.281088
H8    H     H_    0.605159 0.990864 0.612302 0.166000
H9    H     H_    0.715790 0.012155 0.687620 0.149236
H10   H     H_    0.593365 0.886964 0.704810 0.207652
O10   O     O_3   0.103348 0.927712 0.419087 -0.596874
C30   C     C_3   0.242814 0.903361 0.424496 -0.294351
H11   H     H_    0.284120 0.816015 0.391738 0.191414
H12   H     H_    0.248870 0.902206 0.494594 0.161030
H13   H     H_    0.314375 0.977515 0.387236 0.201392
O11   O     O_3   0.303221 0.395786 0.637927 -0.568221
C31   C     C_3   0.272061 0.270115 0.634002 -0.269918
H14   H     H_    0.307486 0.217318 0.685332 0.145215
H15   H     H_    0.320809 0.227468 0.567836 0.159325
H16   H     H_    0.154313 0.259184 0.652161 0.170370
Cl1   Cl    Cl    0.455044 0.497140 0.390956 -0.427007
O12   O     O_3   0.605002 0.300926 0.561720 -0.612219
C32   C     C_3   0.594117 0.289765 0.653741 -0.352331
H17   H     H_    0.526449 0.360968 0.696303 0.162295
H18   H     H_    0.702564 0.290453 0.662379 0.187747
H19   H     H_    0.547717 0.199119 0.679544 0.153432
O13   O     O_3   0.594710 0.613222 0.511262 -0.531485
C33   C     C_3   0.654877 0.686165 0.433246 0.035119
H20   H     H_    0.742344 0.641027 0.381797 0.200811
H21   H     H_    0.693642 0.773498 0.451989 0.144572
H22   H     H_    0.569945 0.714170 0.402676 0.140718
Cl2   Cl    Cl    0.379518 0.367755 0.230112 -0.464814
Cl3   Cl    Cl    0.841516 0.493480 0.225102 -0.554942
O14   O     O_3   0.180384 0.456925 0.897877 -0.556870
C34   C     C_3   0.176085 0.331708 0.878932 -0.259292
H23   H     H_    0.137215 0.274778 0.941533 0.151911
H24   H     H_    0.282482 0.298081 0.838001 0.151182
H25   H     H_    0.099666 0.320417 0.839510 0.197964
Cl4   Cl    Cl    0.124205 0.645269 0.758233 -0.555390
O15   O     O_3   0.512157 0.604988 0.177261 -0.492697
C35   C     C_3   0.466688 0.728410 0.178440 -0.273613
H26   H     H_    0.376464 0.739865 0.148908 0.141634
H27   H     H_    0.556482 0.790377 0.143406 0.151152
H28   H     H_    0.427737 0.756555 0.248939 0.195878

loop_
_geom_bond_atom_site_label_1
_geom_bond_atom_site_label_2
_ccdc_geom_bond_type
C6    O15   S    
Cu1   O3    S    
C13   H2    S    
C24   C27   A    
C4    C8    A    
C16   O9    S    
O10   C30   S    
C26   C27   A    
C5    C11   A    
C12   O4    A    
C3    C7    A    
C5    C6    A    
C15   C25   A    
C18   C19   D    
C29   H8    S    
C21   O12   S    
C12   O3    A    
Cu2   O6    S    
C1    O1    A    
C11   C15   A    
C22   O5    A    
C8    C9    A    
C29   H9    S    
Cu1   N1    S    
Cu2   O2    S    
C33   H20   S    
C9    O14   S    
C9    C10   A    
C32   H19   S    
C31   H14   S    
C23   O7    A    
C13   C14   A    
C34   H24   S    
C30   H12   S    
C31   H15   S    
C23   O8    A    
Cu2   O8    S    
C27   Cl4   S    
C7    H1    S    
O14   C34   S    
C16   C17   D    
C32   H18   S    
O11   C31   S    
C34   H23   S    
C1    C19   S    
C10   C13   A    
C15   Cl2   S    
C2    C4    A    
Cu1   Cu2   S    
C20   N1    D    
C35   H26   S    
C21   N2    D    
C29   H10   S    
C35   H28   S    
C33   H22   S    
N2    O13   S    
C1    O2    A    
O9    C29   S    
C35   H27   S    
O15   C35   S    
Cu1   O5    S    
Cu2   O4    S    
C8    H7    S    
C20   O11   S    
C17   O10   S    
N1    Cl1   S    
C34   H25   S    
C30   H11   S    
C31   H16   S    
C3    C26   A    
C24   C28   A    
C4    C5    A    
C19   H4    S    
C33   H21   S    
C6    C7    A    
C12   C24   S    
C17   C22   S    
Cu1   O7    S    
O12   C32   S    
C2    C3    A    
C14   Cl3   S    
Cu1   O1    S    
Cu2   N2    S    
C23   C25   S    
C14   C25   A    
O13   C33   S    
C18   H3    S    
C10   C11   A    
C26   H5    S    
C22   O6    A    
C20   C21   S    
C28   H6    S    
C16   C18   S    
C32   H17   S    
C2    C28   A    
C30   H13   S    
