data_mof_unit_15783.cif
_audit_creation_date              2012-12-10T17:32:59-0500
_audit_creation_method            fapswitch 2.2
_symmetry_space_group_name_H-M    P1
_symmetry_Int_Tables_number       1
_space_group_crystal_system       triclinic
_cell_length_a                    12.329812
_cell_length_b                    13.32451
_cell_length_c                    14.2955
_cell_angle_alpha                 92.977321
_cell_angle_beta                  108.429771
_cell_angle_gamma                 116.674808
_cell_volume                      1938.23129711

loop_
_atom_site_label
_atom_site_type_symbol
_atom_type_description
_atom_site_fract_x
_atom_site_fract_y
_atom_site_fract_z
_atom_type_partial_charge
C1    C     C_R   0.651636 0.714000 0.509900 0.782866
C2    C     C_R   0.818347 0.452300 0.911774 -0.003585
C3    C     C_R   0.756099 0.450826 0.980025 0.013164
C4    C     C_R   0.914742 0.416334 0.936258 0.030753
C5    C     C_R   0.974073 0.415375 0.038429 0.029730
C6    C     C_R   0.909348 0.412918 0.104600 -0.194495
C7    C     C_R   0.798636 0.426034 0.074091 -0.170265
C8    C     C_R   0.950066 0.376863 0.862573 0.364528
C9    C     C_R   0.062297 0.364117 0.893980 -0.295020
C10   C     C_R   0.139393 0.389532 0.997042 0.074094
C11   C     C_R   0.095031 0.415257 0.070365 0.007404
C12   C     C_R   0.619193 0.516615 0.687594 0.830626
C13   C     C_R   0.259411 0.388621 0.027858 0.447796
C14   C     C_R   0.337802 0.419531 0.131419 -0.285238
C15   C     C_R   0.176555 0.447297 0.173373 -0.238316
C16   C     C_R   0.144502 0.963351 0.373769 -0.146569
C17   C     C_R   0.247244 0.162109 0.461673 -0.182151
C18   C     C_R   0.744310 0.916927 0.591542 -0.266478
C19   C     C_R   0.845632 0.029793 0.623867 -0.208119
C20   C     C_R   0.947374 0.065726 0.588652 0.459737
C21   C     C_R   0.940061 0.989934 0.508873 -0.015505
C22   C     C_R   0.833625 0.874704 0.474576 -0.048619
C23   C     C_R   0.344058 0.285123 0.483147 0.802799
C24   C     C_R   0.037921 0.021212 0.466257 0.007605
C25   C     C_R   0.036296 0.936373 0.401041 -0.020922
C26   C     C_R   0.926086 0.826714 0.362565 0.435113
C27   C     C_R   0.822862 0.799072 0.394881 -0.269673
C28   C     C_R   0.135632 0.134999 0.483401 -0.244497
C29   C     C_R   0.254280 0.072904 0.410363 0.375653
C30   C     C_R   0.740918 0.837150 0.521471 -0.074587
C31   C     C_R   0.256351 0.683557 0.663296 -0.234655
C32   C     C_R   0.654255 0.343471 0.363159 0.082820
C33   C     C_R   0.732080 0.309244 0.333484 -0.259685
C34   C     C_R   0.377615 0.478657 0.312785 0.821617
C35   C     C_R   0.867763 0.367399 0.385912 -0.175825
C36   C     C_R   0.927956 0.461719 0.468949 -0.014359
C37   C     C_R   0.844040 0.493733 0.496181 0.222950
C38   C     C_R   0.067644 0.526228 0.524845 -0.100265
C39   C     C_R   0.120015 0.619954 0.607800 0.067658
C40   C     C_R   0.037289 0.650854 0.634509 0.388086
C41   C     C_R   0.901659 0.587846 0.577898 -0.241117
C42   C     C_R   0.158942 0.502281 0.502067 0.067266
C43   C     C_R   0.339924 0.655622 0.636776 0.067717
C44   C     C_R   0.676287 0.511092 0.794517 -0.239649
C45   C     C_R   0.297650 0.450452 0.204143 -0.093301
C46   C     C_R   0.655674 0.478853 0.955590 -0.199083
C47   C     C_R   0.615281 0.509173 0.864235 0.326477
C48   C     C_R   0.787718 0.496653 0.824880 0.385638
Cu1   Cu    Cu3+1 0.416420 0.526630 0.522910 0.941502
Cu2   Cu    Cu3+1 0.583580 0.473370 0.477090 0.949487
H1    H     H_    0.750730 0.423150 0.126555 0.140436
H2    H     H_    0.146407 0.898788 0.326274 0.198457
H3    H     H_    0.122461 0.204490 0.508659 0.239076
H4    H     H_    0.672969 0.890298 0.626870 0.171841
H5    H     H_    0.849869 0.088529 0.681981 0.165165
H6    H     H_    0.735127 0.716830 0.357062 0.183546
H7    H     H_    0.444704 0.704758 0.679392 0.114332
H8    H     H_    0.149127 0.474128 0.230647 0.157611
H9    H     H_    0.299234 0.755597 0.726676 0.186513
H10   H     H_    0.127847 0.432882 0.440566 0.112631
H11   H     H_    0.549070 0.297651 0.322103 0.152809
H12   H     H_    0.922880 0.336983 0.359547 0.131039
H13   H     H_    0.687058 0.237311 0.269591 0.155591
H14   H     H_    0.842630 0.612889 0.600970 0.217629
H15   H     H_    0.430516 0.419727 0.154988 0.144028
H16   H     H_    0.090602 0.336863 0.837261 0.202951
H17   H     H_    0.609917 0.479747 0.008848 0.165583
H18   H     H_    0.940357 0.396936 0.179151 0.134084
N1    N     N_R   0.290690 0.566960 0.557640 -0.176205
N2    N     N_R   0.709100 0.433710 0.442970 -0.197451
O1    O     O_R   0.545970 0.684450 0.528810 -0.579371
O2    O     O_R   0.687130 0.639470 0.490120 -0.625804
O3    O     O_R   0.519670 0.535100 0.660030 -0.581695
O4    O     O_R   0.660830 0.490120 0.621340 -0.527984
O5    O     O_R   0.312870 0.360530 0.509880 -0.590497
O6    O     O_R   0.454030 0.315550 0.471190 -0.569049
O7    O     O_R   0.339170 0.509880 0.378660 -0.588970
O8    O     O_R   0.480330 0.464900 0.339970 -0.596544
O9    O     O_3   0.298953 0.358587 0.955973 -0.756237
H19   H     H_    0.382473 0.358562 0.990368 0.316327
O10   O     O_3   0.361483 0.090442 0.388427 -0.730333
H20   H     H_    0.439949 0.134384 0.451728 0.343009
O11   O     O_3   0.915527 0.748892 0.287646 -0.586911
C49   C     C_3   0.934905 0.661161 0.328686 0.064818
H21   H     H_    0.840075 0.579054 0.297480 0.166898
H22   H     H_    0.971017 0.678104 0.413047 0.123688
C50   C     C_3   0.035198 0.646586 0.297639 -0.791528
H23   H     H_    0.135103 0.720060 0.340834 0.234598
H24   H     H_    0.034893 0.566227 0.314481 0.198662
H25   H     H_    0.011811 0.642417 0.215441 0.273035
O12   O     O_3   0.052975 0.175008 0.635113 -0.613492
C51   C     C_3   0.149837 0.167283 0.714642 -0.030852
H26   H     H_    0.165232 0.094685 0.692428 0.147411
H27   H     H_    0.121711 0.156570 0.781610 0.181294
C52   C     C_3   0.279993 0.277998 0.744045 -0.595535
H28   H     H_    0.354708 0.276022 0.810983 0.209723
H29   H     H_    0.315415 0.286784 0.681134 0.223043
H30   H     H_    0.268265 0.353715 0.762031 0.299523
O13   O     O_3   0.091922 0.734906 0.723229 -0.576159
C53   C     C_3   0.032759 0.805139 0.717046 0.066086
H31   H     H_    0.937890 0.759342 0.727047 0.164014
H32   H     H_    0.018148 0.833301 0.644130 0.131868
C54   C     C_3   0.121353 0.911502 0.803663 -0.793684
H33   H     H_    0.215964 0.964163 0.795046 0.238896
H34   H     H_    0.072273 0.963753 0.803930 0.189081
H35   H     H_    0.141000 0.885492 0.877122 0.264402
O14   O     O_3   0.519085 0.539672 0.847693 -0.702039
H36   H     H_    0.548413 0.611606 0.822837 0.331577
O15   O     O_3   0.872453 0.539336 0.775024 -0.685605
H37   H     H_    0.963354 0.569559 0.824486 0.343797
O16   O     O_3   0.869207 0.343654 0.761226 -0.686313
H38   H     H_    0.908006 0.318352 0.720409 0.336081

loop_
_geom_bond_atom_site_label_1
_geom_bond_atom_site_label_2
_ccdc_geom_bond_type
C50   H23   S    
C13   O9    S    
C26   O11   S    
C12   O4    A    
C52   H28   S    
C17   C29   A    
C19   C20   A    
C49   C50   S    
C23   O6    A    
C4    C8    A    
C40   O13   S    
O10   H20   S    
C52   H30   S    
C26   C27   A    
C1    O1    A    
C31   C43   A    
C51   H26   S    
C36   C37   A    
C49   H22   S    
C32   H11   S    
C38   C42   A    
C3    C7    A    
Cu2   O4    S    
C34   O7    A    
C38   C39   A    
C18   C19   A    
C31   H9    S    
Cu2   O2    S    
C9    H16   S    
C53   H31   S    
C21   C22   A    
C11   C15   A    
O11   C49   S    
Cu1   O7    S    
C8    C9    A    
O14   H36   S    
Cu1   O5    S    
C18   C30   A    
C13   C14   A    
C54   H35   S    
C9    C10   A    
C44   C47   A    
C51   C52   S    
C6    H18   S    
C48   O15   S    
C43   N1    A    
Cu1   N1    S    
C37   N2    A    
C37   C41   A    
Cu2   O8    S    
C53   H32   S    
C14   C45   A    
C20   O12   S    
C1    O2    A    
C16   H2    S    
C49   H21   S    
C8    O16   S    
C42   H10   S    
C39   C40   A    
C18   H4    S    
C27   H6    S    
C32   N2    A    
C2    C48   A    
C16   C29   A    
C53   C54   S    
C35   C36   A    
C2    C4    A    
C29   O10   S    
Cu2   O6    S    
O13   C53   S    
C33   H13   S    
C51   H27   S    
C54   H34   S    
C34   C45   S    
C17   C23   S    
C24   C25   A    
C40   C41   A    
C47   O14   S    
C22   C27   A    
C50   H24   S    
C15   H8    S    
Cu1   O3    S    
C50   H25   S    
C15   C45   A    
O12   C51   S    
C19   H5    S    
C16   C25   A    
C46   C47   A    
C22   C30   A    
O16   H38   S    
C17   C28   A    
C24   C28   A    
C23   O5    A    
C4    C5    A    
C10   C13   A    
C28   H3    S    
C52   H29   S    
C5    C11   A    
C6    C7    A    
C3    C46   A    
C32   C33   A    
C36   C38   A    
C2    C3    A    
C25   C26   A    
C7    H1    S    
C46   H17   S    
C12   C44   S    
O15   H37   S    
C34   O8    A    
C5    C6    A    
C1    C30   S    
C33   C35   A    
C14   H15   S    
C31   C39   A    
C35   H12   S    
C42   N1    A    
Cu2   N2    S    
C10   C11   A    
C43   H7    S    
O9    H19   S    
C20   C21   A    
Cu1   Cu2   S    
Cu1   O1    S    
C21   C24   A    
C54   H33   S    
C41   H14   S    
C12   O3    A    
C44   C48   A    
