data_mof_unit_62253.cif
_audit_creation_date              2013-03-05T16:21:39-0500
_audit_creation_method            fapswitch 2.2
_symmetry_space_group_name_H-M    P1
_symmetry_Int_Tables_number       1
_space_group_crystal_system       triclinic
_cell_length_a                    18.789176
_cell_length_b                    18.805935
_cell_length_c                    18.664869
_cell_angle_alpha                 109.537137
_cell_angle_beta                  109.12514
_cell_angle_gamma                 109.678268
_cell_volume                      5081.4634118

loop_
_atom_site_label
_atom_site_type_symbol
_atom_site_description
_atom_site_fract_x
_atom_site_fract_y
_atom_site_fract_z
_atom_type_partial_charge
O1    O     O_R   0.908050 0.460100 0.051390 -0.604043
O2    O     O_R   0.908730 0.356680 0.948620 -0.584287
C1    C     C_R   0.882148 0.379947 0.002501 0.936381
O3    O     O_R   0.908630 0.551710 0.960350 -0.639793
O4    O     O_R   0.909310 0.448290 0.857570 -0.559120
C2    C     C_R   0.884984 0.503853 0.879514 0.839229
Zn1   Zn    Zn3+2 0.999540 0.569060 0.068630 1.138011
Zn2   Zn    Zn3+2 0.000460 0.430940 0.931370 1.206462
O5    O     O_R   0.091270 0.643320 0.051380 -0.593852
O6    O     O_R   0.091950 0.539900 0.948610 -0.569894
O7    O     O_R   0.090690 0.551710 0.142430 -0.573524
O8    O     O_R   0.091370 0.448290 0.039650 -0.567224
C3    C     C_R   0.119351 0.619734 0.999237 0.920896
C4    C     C_R   0.120513 0.501586 0.119415 0.959620
C5    C     C_2   0.756361 0.583277 0.758515 0.243509
C6    C     C_2   0.677870 0.510909 0.698279 0.148907
C7    C     C_2   0.817264 0.580555 0.829366 -0.244161
C8    C     C_2   0.836810 0.516484 0.810327 0.149568
H1    H     H_    0.841535 0.627892 0.896602 0.193451
C9    C     C_R   0.765191 0.330977 0.034628 0.059360
C10   C     C_R   0.822866 0.314683 0.009983 -0.208528
C11   C     C_R   0.820640 0.234244 0.991350 0.251146
C12   C     C_R   0.751860 0.167648 0.985478 0.298509
C13   C     C_R   0.686889 0.182453 0.997718 -0.166592
C14   C     C_R   0.697353 0.265470 0.026977 -0.056543
C15   C     C_3   0.636565 0.297623 0.997706 0.256686
C16   C     C_3   0.712642 0.371114 0.007499 -0.419513
H2    H     H_    0.614663 0.320085 0.045092 0.114506
H3    H     H_    0.704441 0.369629 0.945120 0.240292
H4    H     H_    0.736066 0.436055 0.062104 0.201332
C17   C     C_R   0.183355 0.504922 0.257064 0.007426
C18   C     C_R   0.188389 0.504427 0.184635 -0.154111
C19   C     C_R   0.260297 0.503380 0.176234 0.436944
C20   C     C_R   0.323973 0.503337 0.241351 -0.145248
H5    H     H_    0.379889 0.503878 0.236071 0.199242
C21   C     C_R   0.313944 0.500378 0.311848 -0.088426
C22   C     C_R   0.242399 0.500558 0.316869 -0.016616
C23   C     C_3   0.198727 0.500035 0.370563 -0.473636
C24   C     C_3   0.130197 0.504321 0.301404 0.691944
H6    H     H_    0.174218 0.437605 0.371010 0.239425
H7    H     H_    0.238989 0.559817 0.436210 0.211891
C25   C     C_R   0.257806 0.752654 0.073570 -0.025035
C26   C     C_R   0.183059 0.684398 0.996637 -0.163602
C27   C     C_R   0.173060 0.680314 0.916629 0.390409
C28   C     C_R   0.238663 0.745229 0.917666 -0.198119
H8    H     H_    0.230823 0.743007 0.856648 0.199653
C29   C     C_R   0.314131 0.812565 0.997599 -0.097709
C30   C     C_R   0.321379 0.813304 0.073871 0.022667
C31   C     C_3   0.377057 0.864611 0.171059 -0.489420
C32   C     C_3   0.304495 0.794337 0.171028 0.592965
H9    H     H_    0.439915 0.865142 0.193170 0.240223
H10   H     H_    0.383039 0.930010 0.198706 0.217923
O9    O     O_R   0.549120 0.460050 0.405790 -0.604470
O10   O     O_R   0.445680 0.356610 0.405790 -0.591457
C33   C     C_R   0.498214 0.380165 0.378310 0.960911
O11   O     O_R   0.639540 0.551640 0.587850 -0.569687
O12   O     O_R   0.536110 0.448210 0.587860 -0.555964
C34   C     C_R   0.615904 0.504251 0.621346 0.924862
Zn3   Zn    Zn3+2 0.565860 0.568990 0.496810 1.113764
Zn4   Zn    Zn3+2 0.427730 0.430860 0.496820 1.134782
O13   O     O_R   0.547900 0.643240 0.587840 -0.611112
O14   O     O_R   0.444470 0.539800 0.587850 -0.594387
O15   O     O_R   0.457480 0.551640 0.405780 -0.630613
O16   O     O_R   0.354050 0.448210 0.405780 -0.605315
C35   C     C_R   0.496225 0.619672 0.616491 0.852753
C36   C     C_R   0.377861 0.500256 0.377835 0.899029
O17   O     O_R   0.449170 0.908380 0.857510 -0.621629
O18   O     O_R   0.551950 0.908320 0.960240 -0.588639
C37   C     C_R   0.501036 0.880461 0.879898 0.917466
O19   O     O_R   0.540220 0.091590 0.948580 -0.579358
O20   O     O_R   0.643000 0.091540 0.051310 -0.587756
C38   C     C_R   0.619995 0.118585 0.998480 0.944773
Zn5   Zn    Zn3+2 0.431370 0.999990 0.931350 1.082594
Zn6   Zn    Zn3+2 0.568630 0.999910 0.068550 1.098153
O21   O     O_R   0.448050 0.091580 0.039660 -0.613824
O22   O     O_R   0.550830 0.091520 0.142390 -0.627034
O23   O     O_R   0.357000 0.908370 0.948590 -0.621035
O24   O     O_R   0.459780 0.908310 0.051320 -0.596707
C39   C     C_R   0.499097 0.119772 0.120089 0.886202
C40   C     C_R   0.380036 0.879785 0.999805 0.906547
C41   C     C_R   0.438261 0.274860 0.228442 0.056004
C42   C     C_R   0.500276 0.313955 0.315664 -0.246062
C43   C     C_R   0.551714 0.277479 0.341292 0.288169
C44   C     C_R   0.547814 0.209943 0.275787 -0.233606
H11   H     H_    0.589996 0.184166 0.294252 0.217017
C45   C     C_R   0.495025 0.181070 0.187196 -0.165223
C46   C     C_R   0.436577 0.210127 0.164820 0.091803
C47   C     C_3   0.417821 0.243743 0.102872 -0.410646
C48   C     C_3   0.418942 0.315148 0.173255 0.190876
H12   H     H_    0.472462 0.268673 0.090250 0.173862
H13   H     H_    0.352897 0.196871 0.043110 0.258885
H14   H     H_    0.472629 0.381947 0.200564 0.130068
C49   C     C_R   0.500779 0.679925 0.755954 0.056739
C50   C     C_R   0.493853 0.684001 0.681085 -0.108502
C51   C     C_R   0.478780 0.747159 0.666647 -0.162362
H15   H     H_    0.468475 0.747853 0.606317 0.174615
C52   C     C_R   0.479662 0.811357 0.731927 -0.123637
H16   H     H_    0.470332 0.861667 0.721627 0.188442
C53   C     C_R   0.497874 0.813114 0.811958 -0.126879
C54   C     C_R   0.503736 0.744576 0.821439 0.019391
C55   C     C_3   0.572367 0.746307 0.892113 0.206264
C56   C     C_3   0.569196 0.674534 0.819233 0.139596
H17   H     H_    0.635151 0.808870 0.930449 0.131191
H18   H     H_    0.630000 0.695737 0.815307 0.114233
N1    N     N_R   0.782715 0.662563 0.755321 0.205752
O25   O     O_R   0.798389 0.732308 0.819144 -0.355665
O26   O     O_R   0.812045 0.670451 0.702597 -0.271973
Cl1   Cl    Cl    0.274131 0.503683 0.087370 -0.436315
Cl2   Cl    Cl    0.025016 0.408941 0.237697 -0.509810
Cl3   Cl    Cl    0.127784 0.603367 0.342361 -0.466902
Cl4   Cl    Cl    0.078471 0.598666 0.815435 -0.481637
Cl5   Cl    Cl    0.637650 0.422685 0.717301 -0.447054
N2    N     N_R   0.331357 0.740212 0.201209 0.206392
O27   O     O_R   0.310824 0.721817 0.255431 -0.319099
O28   O     O_R   0.375696 0.709532 0.173779 -0.331373
Cl6   Cl    Cl    0.248363 0.834831 0.219312 -0.470321
N3    N     N_R   0.610397 0.310188 0.431742 0.225510
O29   O     O_R   0.652608 0.393066 0.488275 -0.337706
O30   O     O_R   0.629912 0.258736 0.455795 -0.290622
Cl7   Cl    Cl    0.314271 0.305328 0.143908 -0.517713
Cl8   Cl    Cl    0.533000 0.715755 0.958477 -0.410486
Cl9   Cl    Cl    0.527166 0.569126 0.809603 -0.401563
N4    N     N_R   0.816015 0.462586 0.721952 0.250722
O31   O     O_R   0.831539 0.497690 0.675431 -0.257477
O32   O     O_R   0.788420 0.379564 0.690580 -0.250943
N5    N     N_R   0.886637 0.219866 0.977636 0.256936
O33   O     O_R   0.968486 0.274130 0.035770 -0.314483
O34   O     O_R   0.865348 0.153860 0.906030 -0.267633
Cl10  Cl    Cl    0.745563 0.065377 0.959665 -0.483968
Cl11  Cl    Cl    0.550988 0.226213 0.886281 -0.475242

loop_
_geom_bond_atom_site_label_1
_geom_bond_atom_site_label_2
_geom_bond_distance
_ccdc_geom_bond_type
C46   C47   1.494227 S    
C49   C50   1.390971 A    
C16   H3    1.112615 S    
C51   H15   1.083679 S    
O22   C39   1.277109 A    
C41   C42   1.388557 A    
O9    Zn3   2.017510 S    
N4    O31   1.301738 A    
O10   Zn4   2.013999 S    
C28   H8    1.083789 S    
Zn1   O7    2.016954 S    
N1    O26   1.300793 A    
C13   C38   1.424427 S    
C15   C16   1.521864 S    
N5    O33   1.301088 A    
Zn6   O22   2.020251 S    
C43   C44   1.397624 A    
C21   C22   1.378868 A    
C44   C45   1.405325 A    
N3    O30   1.301492 A    
C23   C24   1.543086 S    
O7    C4    1.276589 A    
C21   C36   1.412000 S    
N4    O32   1.301462 A    
C9    C14   1.366834 A    
O18   Zn6   2.011018 S    
C5    C6    1.352616 D    
C12   Cl10  1.770551 S    
Zn4   O14   2.017594 S    
C20   H5    1.083950 S    
O5    C3    1.275814 A    
C24   Cl3   1.784130 S    
C17   C18   1.382959 A    
C17   C24   1.490936 S    
O18   C37   1.278805 A    
C31   H9    1.111400 S    
C29   C30   1.379796 A    
C12   C13   1.410349 A    
C47   H13   1.111702 S    
O17   Zn5   2.020253 S    
O11   C34   1.292431 A    
C20   C21   1.405109 A    
C15   Cl11  1.789041 S    
C8    N4    1.446947 S    
C41   C48   1.492984 S    
C47   C48   1.520658 S    
C28   C29   1.407464 A    
O15   C36   1.273500 A    
C55   H17   1.112185 S    
C10   C11   1.416693 A    
C16   H4    1.111546 S    
C33   C42   1.416856 S    
Zn5   O21   2.011020 S    
C19   Cl1   1.762510 S    
C29   C40   1.417977 S    
O3    Zn1   2.007545 S    
C52   C53   1.404964 A    
C52   H16   1.083556 S    
O9    C33   1.276827 A    
C2    C8    1.458548 S    
Zn3   O13   2.014126 S    
C55   C56   1.529887 S    
C13   C14   1.388136 A    
C23   H7    1.111787 S    
O3    C2    1.291156 A    
C45   C46   1.391157 A    
O12   Zn4   2.013701 S    
C25   C30   1.342202 A    
C14   C15   1.498620 S    
C55   Cl8   1.789325 S    
C17   C22   1.339651 A    
O1    C1    1.279297 A    
O16   C36   1.276579 A    
C26   C27   1.414574 A    
C22   C23   1.489237 S    
O20   Zn6   2.017263 S    
C53   C54   1.392919 A    
C48   Cl7   1.784317 S    
Zn2   O8    2.007542 S    
C31   H10   1.111733 S    
O19   Zn5   2.019769 S    
C7    C8    1.345407 D    
O24   C40   1.275521 A    
C6    C34   1.455767 S    
C44   H11   1.083245 S    
C48   H14   1.112138 S    
C56   H18   1.112283 S    
C49   C54   1.375248 A    
C41   C46   1.369559 A    
C25   C32   1.493479 S    
C37   C53   1.428775 S    
C35   C50   1.419546 S    
C47   H12   1.112436 S    
C31   C32   1.546236 S    
C1    C10   1.436116 S    
C25   C26   1.383352 A    
C3    C26   1.418170 S    
C27   C28   1.401851 A    
C6    Cl5   1.781923 S    
N2    O27   1.301110 A    
O23   C40   1.272552 A    
Zn1   O5    2.016888 S    
O10   C33   1.273910 A    
C30   C31   1.490652 S    
N5    O34   1.301075 A    
O14   C35   1.275232 A    
O1    Zn1   2.020304 S    
C15   H2    1.111639 S    
O2    Zn2   2.016886 S    
C4    C18   1.415813 S    
O6    C3    1.274286 A    
C49   C56   1.493577 S    
O4    Zn2   2.016954 S    
C51   C52   1.389914 A    
C5    C7    1.467661 S    
C9    C16   1.493646 S    
N1    O25   1.300417 A    
Zn3   O15   2.013618 S    
O11   Zn3   2.010974 S    
Zn4   O16   2.010973 S    
C32   N2    1.466746 S    
C18   C19   1.416027 A    
C43   N3    1.439838 S    
O2    C1    1.278413 A    
O8    C4    1.272441 A    
O20   C38   1.273589 A    
N3    O29   1.300303 A    
C23   H6    1.111527 S    
C5    N1    1.433007 S    
O12   C34   1.276876 A    
O4    C2    1.275377 A    
C54   C55   1.494101 S    
C7    H1    1.086150 S    
C19   C20   1.398964 A    
C32   Cl6   1.791419 S    
C50   C51   1.397915 A    
C11   N5    1.436600 S    
C27   Cl4   1.762541 S    
O13   C35   1.278294 A    
C24   Cl2   1.784151 S    
C9    C10   1.391327 A    
Zn2   O6    2.020304 S    
C42   C43   1.412979 A    
Zn6   O24   2.019765 S    
Zn5   O23   2.017136 S    
C11   C12   1.405697 A    
O19   C38   1.276098 A    
O17   C37   1.274551 A    
C56   Cl9   1.788796 S    
O21   C39   1.279184 A    
C39   C45   1.435282 S    
N2    O28   1.301814 A    
