data_mof_unit_9520.cif
_audit_creation_date              2012-12-11T15:31:36-0500
_audit_creation_method            fapswitch 2.2
_symmetry_space_group_name_H-M    P1
_symmetry_Int_Tables_number       1
_space_group_crystal_system       triclinic
_cell_length_a                    6.942393
_cell_length_b                    14.854363
_cell_length_c                    21.351115
_cell_angle_alpha                 74.654699
_cell_angle_beta                  90.374807
_cell_angle_gamma                 90.842292
_cell_volume                      2123.09397679

loop_
_atom_site_label
_atom_site_type_symbol
_atom_type_description
_atom_site_fract_x
_atom_site_fract_y
_atom_site_fract_z
_atom_type_partial_charge
O1    O     O_R   0.648150 0.130050 0.214300 -0.543593
O2    O     O_R   0.351850 0.869950 0.785700 -0.544294
O3    O     O_R   0.320490 0.006660 0.340150 -0.522695
O4    O     O_R   0.679510 0.993340 0.659850 -0.527720
O5    O     O_R   0.146100 0.869940 0.285700 -0.537249
O6    O     O_R   0.853900 0.130060 0.714300 -0.540813
C1    C     C_R   0.489266 0.002401 0.366909 0.795678
C2    C     C_R   0.510879 0.999676 0.632843 0.808367
O7    O     O_R   0.318690 0.137980 0.218120 -0.546311
O8    O     O_R   0.681310 0.862020 0.781880 -0.546269
O9    O     O_R   0.144280 0.002190 0.162800 -0.550463
O10   O     O_R   0.855720 0.997810 0.837200 -0.550139
C3    C     C_R   0.488853 0.175446 0.205707 0.694181
C4    C     C_R   0.511155 0.824560 0.794316 0.693491
O11   O     O_R   0.649960 0.997790 0.337200 -0.507541
O12   O     O_R   0.350040 0.002210 0.662800 -0.500758
O13   O     O_3   0.479300 0.955290 0.231990 -0.390893
O14   O     O_3   0.520700 0.044710 0.768010 -0.392661
V1    V     V_3+5 0.206040 0.008290 0.253340 1.518597
V2    V     V_3+5 0.793960 0.991710 0.746660 1.515046
O15   O     O_R   0.814320 0.993320 0.159850 -0.552494
O16   O     O_R   0.185680 0.006680 0.840150 -0.552640
C5    C     C_R   0.982537 0.998368 0.132805 0.642612
C6    C     C_R   0.017464 0.001625 0.867196 0.643865
O17   O     O_R   0.816120 0.862000 0.281880 -0.540254
O18   O     O_R   0.183880 0.138000 0.718120 -0.541565
C7    C     C_R   0.984572 0.824333 0.293163 0.755447
C8    C     C_R   0.015794 0.175208 0.705357 0.755086
V3    V     V_3+5 0.705540 0.991700 0.246660 1.493825
V4    V     V_3+5 0.294460 0.008300 0.753340 1.501372
O19   O     O_3   0.982150 0.044700 0.268010 -0.348282
O20   O     O_3   0.017850 0.955300 0.731990 -0.349105
C9    C     C_R   0.995242 0.723081 0.321122 -0.113015
C10   C     C_R   0.006364 0.275548 0.675215 -0.110530
C11   C     C_R   0.083242 0.571801 0.308892 -0.149836
C12   C     C_R   0.926410 0.428346 0.685571 -0.149074
C13   C     C_R   0.070630 0.668022 0.283466 -0.188841
C14   C     C_R   0.936367 0.332627 0.712154 -0.190652
C15   C     C_R   0.939980 0.681558 0.385939 -0.073988
C16   C     C_R   0.059368 0.314045 0.609580 -0.084876
C17   C     C_R   0.992281 0.587671 0.415815 0.043761
C18   C     C_R   0.013255 0.408870 0.578866 0.040428
C19   C     C_R   0.043630 0.531211 0.374670 0.125909
C20   C     C_R   0.965210 0.466903 0.619602 0.126129
C21   C     C_R   0.994470 0.547474 0.484587 0.063551
C22   C     C_R   0.012696 0.448951 0.509858 0.063725
C23   C     C_R   0.019091 0.394024 0.465105 -0.122454
C24   C     C_R   0.989135 0.603108 0.528789 -0.109745
C25   C     C_R   0.048038 0.434577 0.399297 -0.166927
C26   C     C_R   0.962011 0.563413 0.594557 -0.165378
H1    H     H_    0.067678 0.389951 0.367150 0.130430
H2    H     H_    0.943017 0.608732 0.626304 0.132598
H3    H     H_    0.897628 0.303337 0.762617 0.106229
H4    H     H_    0.111271 0.699132 0.233405 0.106058
H5    H     H_    0.128757 0.529367 0.277603 0.117798
H6    H     H_    0.884016 0.472183 0.716299 0.117235
H7    H     H_    0.001585 0.319252 0.479753 0.169343
H8    H     H_    0.005139 0.678050 0.513476 0.164748
C27   C     C_3   0.918585 0.921586 0.991443 -0.138236
C28   C     C_3   0.081418 0.078392 0.008562 -0.137994
C29   C     C_3   0.094335 0.925594 0.035848 -0.144274
C30   C     C_3   0.905667 0.074384 0.964159 -0.144091
H9    H     H_    0.172047 0.864209 0.065776 0.098930
H10   H     H_    0.827948 0.135769 0.934235 0.099209
H11   H     H_    0.851327 0.856909 0.984002 0.094770
H12   H     H_    0.148675 0.143069 0.016004 0.094746
C31   C     C_3   0.990788 0.998901 0.062163 0.003866
C32   C     C_3   0.009214 0.001078 0.937842 0.003405
C33   C     C_3   0.814846 0.994902 0.018541 -0.118317
C34   C     C_3   0.185157 0.005076 0.981465 -0.118357
H13   H     H_    0.661953 0.990617 0.034096 0.104148
H14   H     H_    0.338050 0.009360 0.965911 0.104069
C35   C     C_3   0.679297 0.004647 0.477992 0.781101
C36   C     C_3   0.320404 0.999865 0.521691 0.826931
C37   C     C_3   0.591783 0.080159 0.506752 -0.317672
C38   C     C_3   0.407861 0.924204 0.492978 -0.345271
H15   H     H_    0.669097 0.143527 0.512353 0.179780
H16   H     H_    0.332053 0.860407 0.487424 0.200784
C39   C     C_3   0.503318 0.001377 0.562403 -0.284808
C40   C     C_3   0.496469 0.002842 0.437206 -0.317189
C41   C     C_3   0.592577 0.926891 0.533708 -0.185643
C42   C     C_3   0.407169 0.077492 0.465930 -0.147297
C43   C     C_R   0.504828 0.276496 0.178117 -0.035379
C44   C     C_R   0.495198 0.723522 0.821940 -0.035111
C45   C     C_R   0.615488 0.427143 0.187501 -0.172742
C46   C     C_R   0.384868 0.572835 0.812548 -0.171947
C47   C     C_R   0.580937 0.332620 0.215524 -0.171060
C48   C     C_R   0.419568 0.667339 0.784500 -0.170748
C49   C     C_R   0.464815 0.314896 0.112175 -0.219560
C50   C     C_R   0.534764 0.685190 0.887924 -0.219619
C51   C     C_R   0.504541 0.410383 0.081747 0.085998
C52   C     C_R   0.495119 0.589695 0.918353 0.085924
C53   C     C_R   0.580056 0.466161 0.121103 0.140885
C54   C     C_R   0.419874 0.533879 0.878981 0.140895
C55   C     C_R   0.476065 0.451726 0.013702 0.059128
C56   C     C_R   0.523503 0.548367 0.986405 0.059186
C57   C     C_R   0.596640 0.600507 0.028113 -0.192248
C58   C     C_R   0.403004 0.399575 0.971990 -0.192157
C59   C     C_R   0.623565 0.560112 0.093918 -0.205732
C60   C     C_R   0.376288 0.439940 0.906173 -0.205581
H17   H     H_    0.681216 0.602925 0.123818 0.121680
H18   H     H_    0.318802 0.397103 0.876264 0.121372
H19   H     H_    0.589437 0.732853 0.914196 0.090356
H20   H     H_    0.409751 0.267281 0.085927 0.090415
H21   H     H_    0.384783 0.697011 0.733766 0.152551
H22   H     H_    0.616204 0.302889 0.266209 0.153398
H23   H     H_    0.674639 0.469448 0.217492 0.123796
H24   H     H_    0.326011 0.530488 0.782541 0.123178
H25   H     H_    0.636022 0.673237 0.011593 0.117532
H26   H     H_    0.363657 0.326841 0.988504 0.117515
F1    F     F_    0.864620 0.007513 0.454267 -0.583447
F2    F     F_    0.135377 0.997591 0.545536 -0.570572
C61   C     C_2   0.694400 0.842139 0.572903 0.849616
O21   O     O_2   0.865029 0.831481 0.563593 -0.509689
O22   O     O_R   0.592911 0.775973 0.620310 -0.679466
H27   H     H_    0.676455 0.722107 0.643964 0.275898
C62   C     C_2   0.305709 0.162104 0.426655 0.840744
O23   O     O_2   0.135162 0.172907 0.435918 -0.503280
O24   O     O_R   0.407434 0.227872 0.379069 -0.686372
H28   H     H_    0.324006 0.281460 0.354972 0.273809
C63   C     C_2   0.189310 0.260352 0.578199 0.731546
O25   O     O_2   0.150878 0.179391 0.579233 -0.525277
O26   O     O_R   0.355460 0.303661 0.546740 -0.653198
H29   H     H_    0.432348 0.260847 0.526843 0.289179
C64   C     C_2   0.801043 0.730663 0.417085 0.721818
O27   O     O_2   0.654920 0.690038 0.442118 -0.550488
O28   O     O_R   0.837614 0.822582 0.418352 -0.627205
H30   H     H_    0.727656 0.847831 0.438865 0.307415

loop_
_geom_bond_atom_site_label_1
_geom_bond_atom_site_label_2
_ccdc_geom_bond_type
C29   C34   S    
C43   C47   A    
C15   C64   S    
O13   V3    S    
C52   C54   A    
C55   C56   A    
C4    C44   S    
O4    C2    A    
V1    O19   S    
C55   C58   A    
O26   H29   S    
C23   C25   A    
C21   C22   A    
C7    C9    S    
C16   C63   S    
C47   H22   S    
O9    V1    S    
C9    C15   A    
C44   C50   A    
C58   H26   S    
C11   C13   A    
C38   H16   S    
O3    C1    A    
C62   O24   S    
C36   F2    S    
C46   C48   A    
C23   H7    S    
O12   V4    S    
O22   H27   S    
C52   C56   A    
C28   C30   S    
C18   C22   A    
C5    C31   S    
C33   H13   S    
O7    C3    A    
C30   H10   S    
C46   C54   A    
O5    C7    A    
C45   C53   A    
O7    V1    S    
O6    C8    A    
C28   C31   S    
O8    V2    S    
C25   H1    S    
C2    C39   S    
C26   H2    S    
O3    V1    S    
O14   V4    S    
C28   C34   S    
C49   C51   A    
C11   C19   A    
C53   C59   A    
C24   C26   A    
C28   H12   S    
C2    O12   A    
C35   C37   S    
C18   C20   A    
C36   C42   S    
C35   C41   S    
C57   C59   A    
O11   V3    S    
C45   C47   A    
O17   V3    S    
C43   C49   A    
C27   C29   S    
C11   H5    S    
C44   C48   A    
C35   F1    S    
C40   C42   S    
O8    C4    A    
C39   C41   S    
C19   C25   A    
C1    O11   A    
O15   V3    S    
C9    C13   A    
C30   C33   S    
C31   C33   S    
C12   H6    S    
C27   C32   S    
C51   C53   A    
C57   H25   S    
C29   C31   S    
C50   C52   A    
C54   C60   A    
C56   C57   A    
O10   V2    S    
C60   H18   S    
C37   H15   S    
C63   O25   D    
C36   C38   S    
C27   C33   S    
C13   H4    S    
C59   H17   S    
O18   V4    S    
C58   C60   A    
C36   C39   S    
O15   C5    A    
C49   H20   S    
C64   O27   D    
O16   C6    A    
C12   C20   A    
O1    C3    A    
O28   H30   S    
C61   O21   D    
V2    O20   S    
C21   C24   A    
C20   C26   A    
O10   C6    A    
C22   C23   A    
O16   V4    S    
C10   C14   A    
C29   H9    S    
C46   H24   S    
C17   C19   A    
C38   C40   S    
C16   C18   A    
C38   C41   S    
O24   H28   S    
C37   C42   S    
C24   H8    S    
O5    V1    S    
O17   C7    A    
O6    V2    S    
C3    C43   S    
O18   C8    A    
C30   C32   S    
O2    V4    S    
C12   C14   A    
V3    O19   S    
C62   O23   D    
C27   H11   S    
V4    O20   S    
C48   H21   S    
O1    V3    S    
C14   H3    S    
O9    C5    A    
O13   V1    S    
C35   C40   S    
O14   V2    S    
O2    C4    A    
C50   H19   S    
C63   O26   S    
C6    C32   S    
C8    C10   S    
O4    V2    S    
C15   C17   A    
C51   C55   A    
C32   C34   S    
C41   C61   S    
C64   O28   S    
C17   C21   A    
C10   C16   A    
C34   H14   S    
C42   C62   S    
C45   H23   S    
C37   C39   S    
C1    C40   S    
C61   O22   S    
