data_mof_unit_27057.cif
_audit_creation_date              2012-12-11T16:14:54-0500
_audit_creation_method            fapswitch 2.2
_symmetry_space_group_name_H-M    P1
_symmetry_Int_Tables_number       1
_space_group_crystal_system       triclinic
_cell_length_a                    13.501961
_cell_length_b                    13.575669
_cell_length_c                    28.454156
_cell_angle_alpha                 90.335481
_cell_angle_beta                  90.058242
_cell_angle_gamma                 60.050371
_cell_volume                      4519.0395819

loop_
_atom_site_label
_atom_site_type_symbol
_atom_type_description
_atom_site_fract_x
_atom_site_fract_y
_atom_site_fract_z
_atom_type_partial_charge
C1    C     C_R   0.279695 0.620526 0.566566 0.541173
C2    C     C_1   0.636967 0.634023 0.612384 -0.016626
C3    C     C_3   0.729269 0.723019 0.757466 0.044129
C4    C     C_3   0.671534 0.685947 0.794659 0.046323
C5    C     C_3   0.766291 0.611252 0.730397 -0.007469
C6    C     C_3   0.653434 0.670217 0.702907 0.012143
C7    C     C_3   0.709317 0.573545 0.768012 -0.115523
C8    C     C_3   0.595774 0.632950 0.740024 -0.118632
C9    C     C_1   0.683134 0.693949 0.845184 -0.002101
C10   C     C_1   0.644825 0.654431 0.652762 -0.065090
C11   C     C_1   0.632480 0.233785 0.612132 -0.033585
C12   C     C_R   0.621596 0.600988 0.566714 0.542941
C13   C     C_R   0.750768 0.088146 0.720020 -0.120454
C14   C     C_R   0.764769 0.069283 0.768304 -0.109411
C15   C     C_R   0.608473 0.260075 0.783155 -0.078855
C16   C     C_R   0.593508 0.280707 0.734610 0.037289
C17   C     C_R   0.665257 0.192896 0.702940 0.012078
C18   C     C_R   0.693141 0.154861 0.799831 0.006546
C19   C     C_1   0.701082 0.130912 0.849140 -0.044844
C20   C     C_1   0.651329 0.209733 0.653002 -0.082609
C21   C     C_1   0.708408 0.102839 0.889556 0.004593
C22   C     C_1   0.233682 0.635933 0.612862 -0.022488
C23   C     C_R   0.600897 0.279166 0.565928 0.538935
C24   C     C_R   0.182082 0.570494 0.727602 -0.076700
C25   C     C_R   0.167648 0.576445 0.776236 -0.060255
C26   C     C_R   0.170792 0.753416 0.777839 -0.098509
C27   C     C_R   0.185995 0.747979 0.728993 0.014355
C28   C     C_R   0.189671 0.656349 0.703687 0.044236
C29   C     C_R   0.162315 0.667725 0.801336 0.048033
C30   C     C_1   0.138097 0.679464 0.850659 -0.034460
C31   C     C_1   0.208483 0.645784 0.653780 -0.065550
C32   C     C_1   0.108330 0.697044 0.891047 0.006552
C33   C     C_1   0.637734 0.632739 0.388584 0.002980
C34   C     C_R   0.276603 0.621179 0.434443 0.546786
C35   C     C_R   0.735959 0.687494 0.279919 -0.123353
C36   C     C_R   0.743976 0.695381 0.231304 -0.120119
C37   C     C_R   0.585040 0.661656 0.220051 -0.127089
C38   C     C_R   0.577011 0.653859 0.268641 -0.114841
C39   C     C_R   0.652222 0.666975 0.298589 0.034204
C40   C     C_R   0.668379 0.682677 0.201374 0.037095
C41   C     C_1   0.677190 0.692639 0.151663 -0.055670
C42   C     C_1   0.646512 0.651965 0.348107 -0.041891
C43   C     C_1   0.692880 0.702785 0.110863 -0.012961
C44   C     C_1   0.643199 0.209858 0.392504 -0.009111
C45   C     C_R   0.620854 0.600456 0.434206 0.545728
C46   C     C_R   0.610678 0.097605 0.286442 -0.013501
C47   C     C_R   0.620475 0.071853 0.238077 -0.019058
C48   C     C_R   0.799928 0.076857 0.235461 -0.000359
C49   C     C_R   0.792270 0.098753 0.284363 0.004962
C50   C     C_R   0.694968 0.113332 0.308953 -0.027561
C51   C     C_R   0.714267 0.063386 0.212829 -0.020305
C52   C     C_1   0.722050 0.042401 0.163039 -0.060364
C53   C     C_1   0.671430 0.161144 0.355506 -0.070103
C54   C     C_1   0.728811 0.024311 0.121618 -0.006192
C55   C     C_1   0.223030 0.640268 0.389934 0.071144
C56   C     C_R   0.600977 0.276591 0.433995 0.549821
C57   C     C_R   0.209267 0.723077 0.272803 0.009733
C58   C     C_R   0.203714 0.717870 0.223949 -0.145368
C59   C     C_R   0.110399 0.605667 0.229985 -0.149526
C60   C     C_R   0.115957 0.607245 0.279049 0.001429
C61   C     C_R   0.167155 0.665295 0.300679 0.059153
C62   C     C_R   0.155007 0.659548 0.202818 0.008567
C63   C     C_1   0.133665 0.671347 0.153580 -0.067547
C64   C     C_1   0.191199 0.653350 0.350009 0.082029
C65   C     C_1   0.104295 0.691587 0.113468 -0.024331
C66   C     C_R   0.720831 0.055182 0.935251 0.563769
C67   C     C_3   0.616040 0.781797 0.729832 -0.013293
C68   C     C_R   0.730606 0.717877 0.932181 0.555515
C69   C     C_R   0.057868 0.729199 0.936577 0.552889
C70   C     C_R   0.737395 0.999413 0.072811 0.564095
C71   C     C_R   0.725295 0.717464 0.064876 0.534190
C72   C     C_R   0.053746 0.727564 0.068585 0.533117
C73   C     C_3   0.557832 0.745349 0.767526 -0.121204
C74   C     C_1   0.699824 0.702846 0.885963 0.019382
Cr1   Cr    Cr6+3 0.413560 0.417690 0.499580 1.033584
Cr2   Cr    Cr6+3 0.418030 0.668340 0.500400 1.043726
Cr3   Cr    Cr6+3 0.668390 0.413960 0.499990 1.041229
Cr4   Cr    Cr6+3 0.919710 0.916540 0.003080 1.030160
Cr5   Cr    Cr6+3 0.665300 0.919470 0.999630 1.031349
Cr6   Cr    Cr6+3 0.916060 0.665490 0.000390 1.031111
H1    H     H_    0.472160 0.797788 0.783698 0.111594
H2    H     H_    0.189444 0.497829 0.708762 0.120992
H3    H     H_    0.160128 0.510301 0.794186 0.116387
H4    H     H_    0.165905 0.824320 0.797576 0.106949
H5    H     H_    0.795070 0.696714 0.302786 0.137173
H6    H     H_    0.808778 0.711726 0.217050 0.113493
H7    H     H_    0.526352 0.651725 0.197187 0.103568
H8    H     H_    0.513015 0.636359 0.282873 0.115367
H9    H     H_    0.234295 0.762526 0.202152 0.092079
H10   H     H_    0.069100 0.564193 0.212776 0.099610
H11   H     H_    0.540506 0.596189 0.732012 0.163742
H12   H     H_    0.744840 0.489038 0.784817 0.110924
H13   H     H_    0.805971 0.020661 0.695982 0.110781
H14   H     H_    0.830320 0.987342 0.781058 0.150245
H15   H     H_    0.553147 0.325065 0.808090 0.156686
O1    O     O_R   0.503010 0.303330 0.550820 -0.517877
O2    O     O_R   0.522480 0.657560 0.452870 -0.491015
O3    O     O_R   0.693670 0.502790 0.448900 -0.502025
O4    O     O_R   0.656970 0.319650 0.452000 -0.498486
O5    O     O_3   0.499990 0.499990 0.499990 -0.255970
O6    O     O_R   0.035380 0.825870 0.952240 -0.507844
O7    O     O_R   0.818010 0.012400 0.954990 -0.487874
O8    O     O_R   0.644810 0.033340 0.949080 -0.499066
O9    O     O_R   0.674910 0.816000 0.950960 -0.492482
O10   O     O_R   0.827060 0.642880 0.947470 -0.501633
O11   O     O_R   0.013800 0.673690 0.954100 -0.486669
O12   O     O_R   0.320040 0.522690 0.547470 -0.500626
O13   O     O_R   0.031250 0.825430 0.055080 -0.523802
O14   O     O_R   0.814180 0.011990 0.050320 -0.491095
O15   O     O_R   0.640680 0.032900 0.051920 -0.506825
O16   O     O_R   0.671090 0.815590 0.046300 -0.512879
O17   O     O_R   0.822940 0.642440 0.050310 -0.508286
O18   O     O_R   0.009970 0.673280 0.049430 -0.497556
O19   O     O_3   0.833690 0.833830 0.001040 -0.272653
O20   O     O_R   0.303930 0.694040 0.551750 -0.502934
O21   O     O_R   0.523510 0.657900 0.548240 -0.503144
O22   O     O_R   0.694770 0.503160 0.551780 -0.500565
O23   O     O_R   0.657990 0.319990 0.547370 -0.489811
O24   O     O_R   0.501900 0.302960 0.447930 -0.499086
O25   O     O_R   0.319020 0.522350 0.452090 -0.495568
O26   O     O_R   0.302820 0.693680 0.448870 -0.483273
C75   C     C_2   0.502439 0.393278 0.717700 0.187897
H16   H     H_    0.486925 0.410313 0.680431 0.114003
O27   O     O_2   0.443394 0.469124 0.745430 -0.546160
C76   C     C_R   0.199008 0.837983 0.705534 0.024301
C77   C     C_R   0.300169 0.810872 0.681214 -0.077553
C78   C     C_R   0.312211 0.896372 0.659441 -0.092956
C79   C     C_R   0.223669 0.009341 0.661884 -0.101043
C80   C     C_R   0.123065 0.036967 0.686198 -0.115457
C81   C     C_R   0.110847 0.951793 0.708179 -0.105619
H17   H     H_    0.369639 0.723785 0.679255 0.121388
H18   H     H_    0.390268 0.875089 0.640769 0.129560
H19   H     H_    0.233065 0.075481 0.645010 0.114490
H20   H     H_    0.054336 0.124331 0.687952 0.114148
H21   H     H_    0.032421 0.974291 0.726870 0.103600
C82   C     C_R   0.509055 0.113752 0.313218 0.039609
C83   C     C_R   0.520930 0.034572 0.347486 -0.096243
C84   C     C_R   0.425147 0.048462 0.372075 -0.097197
C85   C     C_R   0.317266 0.141584 0.362758 -0.073252
C86   C     C_R   0.304997 0.221021 0.328856 -0.089581
C87   C     C_R   0.400522 0.207369 0.304132 -0.080989
H22   H     H_    0.604037 0.961725 0.354722 0.113372
H23   H     H_    0.434510 0.986896 0.398267 0.124460
H24   H     H_    0.243176 0.152160 0.381790 0.134807
H25   H     H_    0.221440 0.293017 0.321675 0.131480
H26   H     H_    0.390075 0.269298 0.277882 0.108236
C88   C     C_R   0.563753 0.897825 0.707871 0.029130
C89   C     C_R   0.465572 0.990515 0.727384 -0.076842
C90   C     C_R   0.415656 0.097026 0.705889 -0.112911
C91   C     C_R   0.462720 0.111636 0.664660 -0.100571
C92   C     C_R   0.560863 0.020155 0.645276 -0.104737
C93   C     C_R   0.612013 0.914027 0.667054 -0.107800
H27   H     H_    0.427184 0.980970 0.759097 0.106924
H28   H     H_    0.339943 0.168045 0.721003 0.104128
H29   H     H_    0.423504 0.193932 0.647872 0.115750
H30   H     H_    0.597510 0.031458 0.613374 0.117395
H31   H     H_    0.688078 0.844264 0.651636 0.093009
C94   C     C_R   0.530541 0.057608 0.213707 0.032014
C95   C     C_R   0.507813 0.971645 0.227507 -0.074163
C96   C     C_R   0.423043 0.958792 0.204868 -0.091706
C97   C     C_R   0.360941 0.030944 0.168098 -0.097101
C98   C     C_R   0.381691 0.117728 0.154509 -0.103840
C99   C     C_R   0.465561 0.131684 0.177408 -0.088523
H32   H     H_    0.555365 0.915076 0.255912 0.128174
H33   H     H_    0.405540 0.892785 0.215727 0.107778
H34   H     H_    0.296693 0.019579 0.150244 0.103389
H35   H     H_    0.332668 0.174299 0.126288 0.112062
H36   H     H_    0.479939 0.200076 0.166874 0.114388
C100  C     C_R   0.889784 0.080196 0.206560 0.088478
C101  C     C_R   0.973456 0.981813 0.183646 -0.056599
C102  C     C_R   0.052340 0.987492 0.153620 -0.100451
C103  C     C_R   0.047982 0.091309 0.146315 -0.101173
C104  C     C_R   0.965967 0.189244 0.169557 -0.098194
C105  C     C_R   0.886848 0.183940 0.199536 -0.057565
H37   H     H_    0.975755 0.901689 0.188424 0.118061
H38   H     H_    0.115945 0.911802 0.135570 0.117859
H39   H     H_    0.107425 0.096199 0.122327 0.099970
H40   H     H_    0.962769 0.269547 0.163870 0.110587
H41   H     H_    0.822150 0.260787 0.216645 0.104103
C106  C     C_2   0.883911 0.107861 0.310195 0.231812
H42   H     H_    0.865730 0.152388 0.343621 0.118365
O28   O     O_2   0.981894 0.062389 0.295413 -0.481109
C107  C     C_2   0.259425 0.790494 0.292413 0.243265
H43   H     H_    0.302399 0.820289 0.269101 0.093206
O29   O     O_2   0.251284 0.816460 0.333938 -0.482595
C108  C     C_2   0.066547 0.547667 0.305565 0.189519
H44   H     H_    0.036884 0.497655 0.286603 0.100758
O30   O     O_2   0.056088 0.554686 0.348247 -0.515202
C109  C     C_R   0.881249 0.537101 0.707613 0.039252
C110  C     C_R   0.952318 0.424301 0.722123 -0.085365
C111  C     C_R   0.055927 0.354747 0.699017 -0.122816
C112  C     C_R   0.088772 0.396623 0.660988 -0.114673
C113  C     C_R   0.019359 0.509126 0.646729 -0.108073
C114  C     C_R   0.916539 0.579427 0.670184 -0.091385
H45   H     H_    0.927990 0.389510 0.751058 0.100431
H46   H     H_    0.110637 0.268196 0.710503 0.098804
H47   H     H_    0.168758 0.342448 0.643034 0.106179
H48   H     H_    0.045495 0.542016 0.617634 0.116332
H49   H     H_    0.863638 0.666202 0.658651 0.087530
C115  C     C_2   0.804975 0.772886 0.765990 0.219562
H50   H     H_    0.838316 0.797279 0.736353 0.085997
O31   O     O_2   0.829627 0.786073 0.805888 -0.516829

loop_
_geom_bond_atom_site_label_1
_geom_bond_atom_site_label_2
_ccdc_geom_bond_type
C103  H39   S    
C58   C62   A    
C15   C18   A    
C30   C32   T    
C102  C103  A    
C63   C65   T    
Cr1   O12   S    
C77   C78   A    
C21   C66   S    
Cr4   O7    S    
C33   C45   S    
C100  C101  A    
C14   C18   A    
C88   C89   A    
C83   H22   S    
C2    C12   S    
C79   C80   A    
Cr2   O20   S    
C23   O23   A    
C97   C98   A    
C7    C8    S    
C104  C105  A    
C103  C104  A    
C26   C27   A    
C62   C63   S    
C66   O7    A    
C13   C17   A    
C33   C42   T    
C104  H40   S    
C19   C21   T    
C37   C38   A    
C98   C99   A    
C37   C40   A    
Cr3   O22   S    
C84   H23   S    
C107  O29   D    
C15   H15   S    
C5    C6    S    
C101  C102  A    
C68   C74   S    
C15   C16   A    
Cr6   O11   S    
C17   C20   S    
C23   O1    A    
Cr3   O5    S    
Cr4   O13   S    
C18   C19   S    
C46   C47   A    
C24   H2    S    
C111  H46   S    
Cr1   O5    S    
C16   C75   S    
C70   O15   A    
C75   H16   S    
C78   H18   S    
C76   C81   A    
C48   C51   A    
C35   C36   A    
C52   C54   T    
C115  H50   S    
C71   O16   A    
C48   C49   A    
C60   C108  S    
C92   C93   A    
C78   C79   A    
Cr3   O4    S    
C67   C73   S    
C59   C60   A    
C97   H34   S    
C49   C106  S    
C1    C22   S    
C13   C14   A    
C71   O17   A    
Cr4   O6    S    
C34   O25   A    
C41   C43   T    
Cr5   O8    S    
Cr4   O19   S    
C4    C7    S    
C89   H27   S    
C44   C53   T    
C73   H1    S    
C106  O28   D    
Cr1   O1    S    
C39   C42   S    
C101  H37   S    
C25   C29   A    
C85   C86   A    
C11   C20   T    
C50   C53   S    
C22   C31   T    
C111  C112  A    
C72   O13   A    
C36   C40   A    
Cr1   O24   S    
C24   C25   A    
Cr3   O23   S    
C5    C7    S    
C98   H35   S    
C16   C17   A    
C47   C51   A    
C36   H6    S    
Cr2   O2    S    
C112  H47   S    
Cr6   O10   S    
C51   C52   S    
C38   H8    S    
C60   C61   A    
C59   H10   S    
C94   C95   A    
C61   C64   S    
C35   C39   A    
C90   H28   S    
C110  C111  A    
C29   C30   S    
C70   O14   A    
C85   H24   S    
C44   C56   S    
C95   C96   A    
C54   C70   S    
C100  C105  A    
C55   C64   T    
Cr6   O17   S    
C3    C115  S    
C109  C114  A    
C107  H43   S    
Cr3   O3    S    
C8    H11   S    
C92   H30   S    
C89   C90   A    
C4    C73   S    
C110  H45   S    
C1    O12   A    
C94   C99   A    
C40   C41   S    
C81   H21   S    
Cr6   O19   S    
C49   C50   A    
C34   O26   A    
C91   H29   S    
C67   C88   S    
C76   C77   A    
C56   O24   A    
Cr5   O9    S    
C68   O10   A    
Cr2   O26   S    
C108  O30   D    
C3    C4    S    
C2    C10   T    
C68   O9    A    
C57   C107  S    
C106  H42   S    
C25   H3    S    
C80   C81   A    
C102  H38   S    
C93   H31   S    
C6    C67   S    
C59   C62   A    
C43   C71   S    
Cr5   O15   S    
C95   H32   S    
C66   O8    A    
C37   H7    S    
C28   C31   S    
C3    C67   S    
Cr1   O25   S    
C24   C28   A    
C82   C83   A    
C3    C5    S    
C86   H25   S    
C6    C10   S    
C6    C8    S    
C69   O11   A    
C57   C61   A    
C32   C69   S    
C114  H49   S    
C69   O6    A    
Cr2   O5    S    
C65   C72   S    
C83   C84   A    
C46   C50   A    
Cr5   O16   S    
C45   O3    A    
C112  C113  A    
C96   H33   S    
C88   C93   A    
C108  H44   S    
C5    C109  S    
C45   O2    A    
C90   C91   A    
C96   C97   A    
C26   H4    S    
C27   C76   S    
C57   C58   A    
C38   C39   A    
C77   H17   S    
C86   C87   A    
C7    H12   S    
C72   O18   A    
C11   C23   S    
C8    C73   S    
Cr2   O21   S    
C82   C87   A    
C99   H36   S    
Cr4   O14   S    
C109  C110  A    
C58   H9    S    
C80   H20   S    
C84   C85   A    
C46   C82   S    
C48   C100  S    
C35   H5    S    
C34   C55   S    
Cr6   O18   S    
C26   C29   A    
C115  O31   D    
C113  C114  A    
C9    C74   T    
Cr5   O19   S    
C13   H13   S    
C27   C28   A    
C87   H26   S    
C91   C92   A    
C12   O22   A    
C1    O20   A    
C56   O4    A    
C4    C9    S    
C79   H19   S    
C75   O27   D    
C105  H41   S    
C14   H14   S    
C113  H48   S    
C12   O21   A    
C47   C94   S    
