data_mof_unit_37350.cif
_audit_creation_date              2012-12-10T19:08:04-0500
_audit_creation_method            fapswitch 2.2
_symmetry_space_group_name_H-M    P1
_symmetry_Int_Tables_number       1
_space_group_crystal_system       triclinic
_cell_length_a                    9.0763
_cell_length_b                    10.84551
_cell_length_c                    9.564288
_cell_angle_alpha                 90.515335
_cell_angle_beta                  90.263723
_cell_angle_gamma                 90.325968
_cell_volume                      941.417283436

loop_
_atom_site_label
_atom_site_type_symbol
_atom_type_description
_atom_site_fract_x
_atom_site_fract_y
_atom_site_fract_z
_atom_type_partial_charge
C1    C     C_R   0.496648 0.262359 0.499150 0.873970
C2    C     C_R   0.477199 0.933592 0.371406 -0.254488
C3    C     C_R   0.481172 0.870611 0.499313 -0.145431
C4    C     C_R   0.461729 0.937989 0.622901 -0.076589
C5    C     C_3   0.542059 0.933736 0.759685 -0.366137
C6    C     C_3   0.542058 0.074278 0.757814 1.132724
C7    C     C_R   0.626753 0.522046 0.074319 0.195346
C8    C     C_R   0.379779 0.461599 0.072457 0.725826
C9    C     C_R   0.379567 0.462925 0.924234 -0.084483
C10   C     C_R   0.627320 0.520484 0.927361 0.288780
C11   C     C_3   0.725492 0.630852 0.922385 -0.477254
C12   C     C_R   0.220729 0.499987 0.499788 0.844625
C13   C     C_3   0.722376 0.634014 0.081345 -0.464856
C14   C     C_R   0.496927 0.737632 0.500354 0.819397
C15   C     C_R   0.779259 0.500140 0.500221 0.839873
C16   C     C_1   0.065553 0.500093 0.499727 -0.126064
C17   C     C_1   0.934427 0.500153 0.500293 -0.148953
C18   C     C_R   0.461960 0.065133 0.621221 -0.078701
C19   C     C_R   0.480803 0.129192 0.496608 -0.239348
C20   C     C_R   0.476940 0.062054 0.369506 0.646398
Cu1   Cu    Cu3+1 0.499990 0.499980 0.640670 1.004660
Cu2   Cu    Cu3+1 0.500010 0.500020 0.359330 1.054651
H1    H     H_    0.671473 0.710790 0.873618 0.200978
H2    H     H_    0.831391 0.614776 0.129613 0.224994
H3    H     H_    0.664192 0.715618 0.124954 0.213013
H4    H     H_    0.482208 0.884249 0.272588 0.196511
H5    H     H_    0.653560 0.892684 0.750994 0.147474
H6    H     H_    0.281436 0.433825 0.868383 0.182777
H7    H     H_    0.835842 0.608311 0.879498 0.215106
N1    N     N_R   0.500920 0.500930 0.147930 -0.253835
N2    N     N_R   0.500930 0.500890 0.852020 -0.232354
O1    O     O_R   0.500000 0.319640 0.618810 -0.537881
O2    O     O_R   0.500020 0.319680 0.381230 -0.500856
O3    O     O_R   0.288380 0.499980 0.618770 -0.604676
O4    O     O_R   0.288400 0.500020 0.381190 -0.508167
O5    O     O_R   0.499980 0.680320 0.618770 -0.587654
O6    O     O_R   0.500000 0.680360 0.381190 -0.601767
O7    O     O_R   0.711600 0.499980 0.618810 -0.572518
O8    O     O_R   0.711620 0.500020 0.381230 -0.578930
F1    F     F_    0.482322 0.118939 0.243728 -0.592646
C21   C     C_1   0.450076 0.879893 0.870259 0.384121
N3    N     N_1   0.378035 0.837299 0.957174 -0.261548
F2    F     F_    0.458380 0.130353 0.861077 -0.616453
F3    F     F_    0.681896 0.124875 0.745878 -0.656304
F4    F     F_    0.257577 0.419846 0.137694 -0.623332

loop_
_geom_bond_atom_site_label_1
_geom_bond_atom_site_label_2
_ccdc_geom_bond_type
C7    C10   A    
C15   O7    A    
C2    C20   A    
C11   C13   S    
C21   N3    T    
C19   C20   A    
C4    C18   A    
C2    C3    A    
C9    H6    S    
C8    N1    A    
C2    H4    S    
Cu1   O5    S    
C6    F3    S    
Cu1   Cu2   S    
C12   O4    A    
C14   O6    A    
Cu2   O4    S    
Cu1   N2    S    
C15   O8    A    
C16   C17   T    
C3    C14   S    
C20   F1    S    
Cu2   O8    S    
C11   H1    S    
C6    F2    S    
C14   O5    A    
C5    C6    S    
C6    C18   S    
Cu1   O1    S    
C1    C19   S    
C10   C11   S    
C9    N2    A    
C1    O2    A    
C3    C4    A    
C7    C13   S    
C11   H7    S    
C7    N1    A    
C18   C19   A    
C15   C17   S    
Cu2   O2    S    
C5    C21   S    
C8    F4    S    
C8    C9    A    
Cu1   O3    S    
Cu2   N1    S    
C5    H5    S    
Cu2   O6    S    
C12   O3    A    
C10   N2    A    
C1    O1    A    
Cu1   O7    S    
C12   C16   S    
C13   H2    S    
C4    C5    S    
C13   H3    S    
