data_mof_unit_8889.cif
_audit_creation_date              2012-10-26T21:13:41-0400
_audit_creation_method            fapswitch 2.2
_symmetry_space_group_name_H-M    P1
_symmetry_Int_Tables_number       1
_space_group_crystal_system       triclinic
_cell_length_a                    9.075164
_cell_length_b                    10.819879
_cell_length_c                    9.549358
_cell_angle_alpha                 89.897758
_cell_angle_beta                  90.023583
_cell_angle_gamma                 90.04401
_cell_volume                      937.670396672

loop_
_atom_site_label
_atom_site_type_symbol
_atom_type_description
_atom_site_fract_x
_atom_site_fract_y
_atom_site_fract_z
_atom_type_partial_charge
C1    C     C_R   0.502186 0.262395 0.500115 0.541402
C2    C     C_R   0.621881 0.537157 0.926195 0.130038
C3    C     C_3   0.696121 0.659946 0.918370 -0.261429
C4    C     C_R   0.220683 0.500119 0.499951 0.549638
C5    C     C_3   0.694127 0.661151 0.078042 -0.005079
C6    C     C_R   0.501927 0.737715 0.499971 0.550451
C7    C     C_R   0.779310 0.500253 0.500027 0.559501
C8    C     C_1   0.065541 0.500334 0.499911 -0.069650
C9    C     C_1   0.934432 0.500389 0.499985 -0.058852
C10   C     C_R   0.506295 0.063796 0.626114 0.055047
C11   C     C_R   0.515368 0.129383 0.500563 -0.012979
C12   C     C_R   0.542986 0.936125 0.375923 -0.167313
C13   C     C_R   0.543454 0.064840 0.375900 -0.172810
C14   C     C_3   0.913461 0.772220 0.156772 -0.313916
C15   C     C_3   0.593730 0.110819 0.913563 -0.278470
C16   C     C_R   0.514728 0.870969 0.500522 0.000105
C17   C     C_R   0.505378 0.936290 0.626214 -0.012002
C18   C     C_3   0.391342 0.928955 0.739240 -0.245851
C19   C     C_3   0.391427 0.069695 0.738817 0.018735
C20   C     C_R   0.621828 0.537244 0.073521 0.181532
C21   C     C_R   0.386312 0.450182 0.074417 -0.022697
C22   C     C_R   0.386338 0.450129 0.925650 0.002204
Cu1   Cu    Cu3+1 0.499990 0.499980 0.640670 0.942090
Cu2   Cu    Cu3+1 0.500010 0.500020 0.359330 0.944594
H1    H     H_    0.559154 0.113163 0.277614 0.133499
H2    H     H_    0.807971 0.653106 0.871536 0.132473
H3    H     H_    0.907277 0.585844 0.101536 0.250425
H4    H     H_    0.018828 0.758484 0.213874 0.150073
H5    H     H_    0.843740 0.836507 0.218547 0.149625
H6    H     H_    0.937451 0.813485 0.052605 0.129473
H7    H     H_    0.366929 0.113865 0.950739 0.238113
H8    H     H_    0.611685 0.162416 0.012529 0.129550
H9    H     H_    0.669178 0.150289 0.833654 0.169914
H10   H     H_    0.620609 0.012059 0.932049 0.119991
H11   H     H_    0.625021 0.732335 0.871232 0.125041
H12   H     H_    0.622394 0.733419 0.124245 0.140616
H13   H     H_    0.557950 0.888540 0.277631 0.120445
H14   H     H_    0.285856 0.888645 0.701407 0.109962
H15   H     H_    0.434184 0.886270 0.836878 0.134917
H16   H     H_    0.285777 0.110562 0.701980 0.120906
H17   H     H_    0.293224 0.411396 0.129794 0.119466
H18   H     H_    0.293333 0.411202 0.870348 0.125148
N1    N     N_R   0.500920 0.500930 0.147930 -0.245967
N2    N     N_R   0.500930 0.500890 0.852020 -0.231621
N3    N     N_2   0.839934 0.654630 0.140305 -0.492978
N4    N     N_2   0.441377 0.124662 0.870080 -0.501048
O1    O     O_R   0.500000 0.319640 0.618810 -0.478439
O2    O     O_R   0.500020 0.319680 0.381230 -0.511609
O3    O     O_R   0.288380 0.499980 0.618770 -0.507517
O4    O     O_R   0.288400 0.500020 0.381190 -0.504311
O5    O     O_R   0.499980 0.680320 0.618770 -0.503115
O6    O     O_R   0.500000 0.680360 0.381190 -0.504817
O7    O     O_R   0.711600 0.499980 0.618810 -0.503480
O8    O     O_R   0.711620 0.500020 0.381230 -0.469024

loop_
_geom_bond_atom_site_label_1
_geom_bond_atom_site_label_2
_ccdc_geom_bond_type
Cu2   O6    S    
Cu2   O8    S    
C18   H15   S    
C1    O2    A    
C6    O5    A    
C2    C20   A    
C10   C19   S    
C15   H10   S    
Cu1   O5    S    
C7    O8    A    
C3    H11   S    
C4    O3    A    
C4    C8    S    
C6    O6    A    
H3    N3    S    
C17   C18   S    
C18   H14   S    
C19   N4    S    
C15   H8    S    
C5    C20   S    
C21   C22   A    
C11   C13   A    
C13   H1    S    
C22   H18   S    
C14   H6    S    
C21   H17   S    
Cu1   O7    S    
C14   N3    S    
C2    C3    S    
Cu2   O4    S    
Cu1   O3    S    
Cu1   O1    S    
C10   C11   A    
C7    O7    A    
Cu1   Cu2   S    
C6    C16   S    
C10   C17   A    
Cu2   O2    S    
C5    H12   S    
C20   N1    A    
C12   C13   A    
C18   C19   S    
C19   H16   S    
C4    O4    A    
C12   H13   S    
C7    C9    S    
Cu2   N1    S    
C1    O1    A    
C14   H5    S    
C15   N4    S    
C14   H4    S    
C21   N1    A    
C5    N3    S    
C15   H9    S    
C3    H2    S    
C22   N2    A    
Cu1   N2    S    
C12   C16   A    
C16   C17   A    
C2    N2    A    
C8    C9    T    
C3    C5    S    
H7    N4    S    
C1    C11   S    
