data_mof_unit_19378.cif
_audit_creation_date              2012-12-10T18:04:28-0500
_audit_creation_method            fapswitch 2.2
_symmetry_space_group_name_H-M    P1
_symmetry_Int_Tables_number       1
_space_group_crystal_system       triclinic
_cell_length_a                    19.482655
_cell_length_b                    17.6007
_cell_length_c                    12.575048
_cell_angle_alpha                 89.965998
_cell_angle_beta                  99.35793
_cell_angle_gamma                 90.01608
_cell_volume                      4254.70227553

loop_
_atom_site_label
_atom_site_type_symbol
_atom_type_description
_atom_site_fract_x
_atom_site_fract_y
_atom_site_fract_z
_atom_type_partial_charge
C1    C     C_R   0.412448 0.104327 0.444644 0.847868
C2    C     C_R   0.408068 0.900593 0.441500 0.858930
C3    C     C_R   0.912450 0.604329 0.444646 0.847881
C4    C     C_R   0.908068 0.400593 0.441500 0.858937
C5    C     C_R   0.712498 0.253681 0.518124 0.091774
C6    C     C_R   0.748751 0.787331 0.543000 0.081020
C7    C     C_R   0.212496 0.753682 0.518122 0.091774
C8    C     C_R   0.248756 0.287344 0.542984 0.080979
C9    C     C_R   0.694176 0.312136 0.587028 0.076258
C10   C     C_R   0.781196 0.784573 0.653119 0.065297
C11   C     C_R   0.194176 0.812136 0.587028 0.076258
C12   C     C_R   0.281221 0.284624 0.653094 0.065324
C13   C     C_R   0.222950 0.884624 0.579749 -0.259226
C14   C     C_R   0.348048 0.253152 0.677366 -0.235577
C15   C     C_R   0.722948 0.384625 0.579745 -0.259232
C16   C     C_R   0.848027 0.753112 0.677393 -0.235635
C17   C     C_R   0.273233 0.896670 0.515209 -0.173953
C18   C     C_R   0.378749 0.219613 0.597126 -0.164142
C19   C     C_R   0.773232 0.396670 0.515205 -0.173947
C20   C     C_R   0.878741 0.719596 0.597150 -0.164072
C21   C     C_R   0.684872 0.181527 0.525139 -0.244662
C22   C     C_R   0.681440 0.815155 0.518223 -0.252259
C23   C     C_R   0.184870 0.681530 0.525136 -0.244679
C24   C     C_R   0.181437 0.315152 0.518223 -0.252247
C25   C     C_R   0.613831 0.224885 0.652985 -0.175793
C26   C     C_R   0.679481 0.846000 0.704332 -0.187401
C27   C     C_R   0.113830 0.724885 0.652981 -0.175801
C28   C     C_R   0.179512 0.346049 0.704327 -0.187485
C29   C     C_R   0.354610 0.844538 0.403632 -0.114208
C30   C     C_R   0.366391 0.168538 0.412101 -0.121786
C31   C     C_R   0.854611 0.344536 0.403633 -0.114201
C32   C     C_R   0.866401 0.668549 0.412111 -0.121789
C33   C     C_R   0.644091 0.993000 0.135785 -0.279166
C34   C     C_R   0.144091 0.492999 0.135785 -0.279177
C35   C     C_R   0.378668 0.997093 0.761990 -0.020802
C36   C     C_R   0.878668 0.497095 0.761989 -0.020827
C37   C     C_R   0.353310 0.979156 0.855604 -0.215646
C38   C     C_R   0.853309 0.479162 0.855604 -0.215701
C39   C     C_R   0.590762 0.899048 0.557558 0.872718
C40   C     C_R   0.589352 0.102287 0.556622 0.857591
C41   C     C_R   0.090762 0.399049 0.557558 0.872705
C42   C     C_R   0.089352 0.602287 0.556622 0.857586
C43   C     C_R   0.399913 0.966700 0.951174 0.005161
C44   C     C_R   0.899910 0.466708 0.951174 0.005163
C45   C     C_R   0.472129 0.982889 0.953199 -0.091116
C46   C     C_R   0.972128 0.482893 0.953199 -0.091123
C47   C     C_R   0.495216 0.993878 0.853679 0.213349
C48   C     C_R   0.995215 0.493879 0.853679 0.213353
C49   C     C_R   0.522355 0.988740 0.047845 -0.057166
C50   C     C_R   0.022354 0.488743 0.047845 -0.057170
C51   C     C_R   0.594799 0.990841 0.041182 0.192056
C52   C     C_R   0.094798 0.490842 0.041182 0.192049
C53   C     C_R   0.616485 0.993955 0.940541 0.053281
C54   C     C_R   0.116484 0.493958 0.940542 0.053241
C55   C     C_R   0.566331 0.997363 0.848543 -0.236216
C56   C     C_R   0.066330 0.497365 0.848544 -0.236224
C57   C     C_R   0.503305 0.999333 0.149043 -0.056397
C58   C     C_R   0.003305 0.499335 0.149044 -0.056412
C59   C     C_R   0.621290 0.995969 0.234015 -0.001250
C60   C     C_R   0.121290 0.495968 0.234015 -0.001248
C61   C     C_R   0.645986 0.296460 0.658116 -0.016167
C62   C     C_R   0.745039 0.812337 0.734865 0.010495
C63   C     C_R   0.145983 0.796460 0.658110 -0.016154
C64   C     C_R   0.245087 0.312422 0.734841 0.010611
C65   C     C_R   0.632296 0.168831 0.584364 -0.099449
C66   C     C_R   0.649320 0.849518 0.595769 -0.099322
C67   C     C_R   0.132295 0.668832 0.584363 -0.099448
C68   C     C_R   0.149326 0.349527 0.595771 -0.099253
C69   C     C_R   0.366527 0.791979 0.324822 -0.163279
C70   C     C_R   0.339408 0.178404 0.302494 -0.172881
C71   C     C_R   0.866530 0.291976 0.324825 -0.163288
C72   C     C_R   0.839434 0.678438 0.302502 -0.172888
C73   C     C_R   0.323020 0.729658 0.302271 -0.120947
C74   C     C_R   0.287206 0.231233 0.271179 -0.122079
C75   C     C_R   0.823023 0.229655 0.302275 -0.120949
C76   C     C_R   0.787242 0.731280 0.271192 -0.122106
C77   C     C_R   0.270745 0.716475 0.363342 -0.186270
C78   C     C_R   0.257839 0.270010 0.348987 -0.198891
C79   C     C_R   0.770748 0.216472 0.363345 -0.186259
C80   C     C_R   0.757866 0.770043 0.349002 -0.198864
C81   C     C_R   0.259178 0.768133 0.445332 0.096724
C82   C     C_R   0.282738 0.258558 0.460338 0.096329
C83   C     C_R   0.759180 0.268131 0.445334 0.096723
C84   C     C_R   0.782746 0.758564 0.460354 0.096323
C85   C     C_R   0.295897 0.837070 0.454847 0.095415
C86   C     C_R   0.343433 0.215469 0.490150 0.078595
C87   C     C_R   0.795897 0.337068 0.454846 0.095416
C88   C     C_R   0.843436 0.715468 0.490167 0.078583
H1    H     H_    0.573105 0.213331 0.700110 0.191335
H2    H     H_    0.653329 0.872183 0.764639 0.182758
H3    H     H_    0.073104 0.713331 0.700106 0.191326
H4    H     H_    0.153376 0.372250 0.764638 0.182647
H5    H     H_    0.699527 0.993086 0.134611 0.164028
H6    H     H_    0.199526 0.493084 0.134611 0.164037
H7    H     H_    0.450391 0.009159 0.160325 0.133086
H8    H     H_    0.950391 0.509163 0.160327 0.133098
H9    H     H_    0.343073 0.002819 0.687066 0.143338
H10   H     H_    0.843073 0.502820 0.687064 0.143343
H11   H     H_    0.297988 0.969504 0.851155 0.182293
H12   H     H_    0.797987 0.469513 0.851155 0.182293
H13   H     H_    0.584287 0.002845 0.773464 0.208488
H14   H     H_    0.084286 0.502846 0.773464 0.208486
H15   H     H_    0.207612 0.932868 0.623330 0.131195
H16   H     H_    0.376897 0.251656 0.758171 0.149933
H17   H     H_    0.707609 0.432871 0.623320 0.131187
H18   H     H_    0.876881 0.751620 0.758194 0.149886
H19   H     H_    0.701616 0.134037 0.481547 0.145863
H20   H     H_    0.652819 0.811919 0.437373 0.158861
H21   H     H_    0.201613 0.634041 0.481542 0.145866
H22   H     H_    0.152802 0.311893 0.437384 0.158846
H23   H     H_    0.410563 0.797898 0.282788 0.153484
H24   H     H_    0.357618 0.144208 0.241109 0.168901
H25   H     H_    0.910565 0.297896 0.282792 0.153482
H26   H     H_    0.857651 0.644254 0.241112 0.168892
H27   H     H_    0.739135 0.166645 0.342697 0.134977
H28   H     H_    0.716932 0.809801 0.319870 0.138108
H29   H     H_    0.239132 0.666648 0.342693 0.134978
H30   H     H_    0.216897 0.309757 0.319852 0.138114
H31   H     H_    0.331636 0.689674 0.240387 0.149101
H32   H     H_    0.267375 0.239844 0.186488 0.178412
H33   H     H_    0.831640 0.189670 0.240392 0.149100
H34   H     H_    0.767425 0.739911 0.186500 0.178388
H35   H     H_    0.293447 0.953688 0.511348 0.155852
H36   H     H_    0.430754 0.197224 0.620029 0.174052
H37   H     H_    0.793446 0.453687 0.511343 0.155849
H38   H     H_    0.930748 0.697214 0.620056 0.174056
H39   H     H_    0.658329 0.996360 0.308130 0.133090
H40   H     H_    0.158329 0.496357 0.308130 0.133093
N1    N     N_R   0.552340 1.000000 0.237260 -0.100147
N2    N     N_R   0.052340 0.500000 0.237260 -0.100148
N3    N     N_R   0.448170 0.000000 0.762060 -0.122771
N4    N     N_R   0.948170 0.500000 0.762060 -0.122768
O1    O     O_R   0.448200 0.076800 0.373930 -0.605810
O2    O     O_R   0.448200 0.923200 0.373930 -0.611449
O3    O     O_R   0.948200 0.576800 0.373930 -0.605811
O4    O     O_R   0.948200 0.423200 0.373930 -0.611444
O5    O     O_R   0.414750 0.076790 0.542400 -0.626497
O6    O     O_R   0.414750 0.923210 0.542400 -0.605207
O7    O     O_R   0.914750 0.576790 0.542400 -0.626508
O8    O     O_R   0.914750 0.423210 0.542400 -0.605203
O9    O     O_R   0.585240 0.923200 0.457600 -0.617229
O10   O     O_R   0.585240 0.076800 0.457600 -0.605250
O11   O     O_R   0.085240 0.423200 0.457600 -0.617231
O12   O     O_R   0.085240 0.576800 0.457600 -0.605252
O13   O     O_R   0.551780 0.923190 0.626070 -0.626511
O14   O     O_R   0.551780 0.076810 0.626070 -0.646674
O15   O     O_R   0.051780 0.423190 0.626070 -0.626494
O16   O     O_R   0.051780 0.576810 0.626070 -0.646681
Zn1   Zn    Zn3+2 0.522330 0.000000 0.387520 0.944127
Zn2   Zn    Zn3+2 0.022330 0.500000 0.387520 0.944124
Zn3   Zn    Zn3+2 0.477660 0.000000 0.612480 0.928662
Zn4   Zn    Zn3+2 0.977660 0.500000 0.612480 0.928656
N5    N     N_3   0.689193 0.999231 0.932289 -0.457161
H41   H     H_    0.696059 0.006710 0.852181 0.179160
H42   H     H_    0.712222 0.947288 0.957239 0.228242
N6    N     N_3   0.189193 0.499233 0.932291 -0.457179
H43   H     H_    0.196059 0.506719 0.852184 0.179126
H44   H     H_    0.212219 0.447289 0.957232 0.228191
C89   C     C_2   0.373244 0.925121 0.038931 0.377642
H45   H     H_    0.408247 0.891348 0.096223 0.064809
O17   O     O_2   0.311620 0.926777 0.046978 -0.555758
C90   C     C_2   0.873238 0.425136 0.038934 0.377641
H46   H     H_    0.908236 0.391352 0.096216 0.064808
O18   O     O_2   0.811618 0.426818 0.046999 -0.555749
C91   C     C_2   0.627846 0.352894 0.737254 0.414151
H47   H     H_    0.660187 0.402118 0.760101 0.063950
O19   O     O_2   0.576493 0.344171 0.780230 -0.563750
C92   C     C_2   0.774019 0.808189 0.851623 0.354493
H48   H     H_    0.829501 0.806844 0.879780 0.074414
O20   O     O_2   0.735367 0.806084 0.918890 -0.589228
C93   C     C_2   0.127835 0.852897 0.737233 0.414164
H49   H     H_    0.160190 0.902103 0.760113 0.063964
O21   O     O_2   0.076457 0.844199 0.780150 -0.563750
C94   C     C_2   0.274125 0.308376 0.851584 0.354340
H50   H     H_    0.329637 0.307281 0.879688 0.074417
O22   O     O_2   0.235499 0.306098 0.918887 -0.589080

loop_
_geom_bond_atom_site_label_1
_geom_bond_atom_site_label_2
_ccdc_geom_bond_type
C83   C87   A    
C93   H49   S    
C53   N5    S    
C91   H47   S    
C73   H31   S    
C79   H27   S    
C11   C13   A    
C14   C18   A    
N3    Zn3   S    
C72   C76   A    
C42   O16   A    
O9    Zn1   S    
C32   C72   A    
C15   C19   A    
C93   O21   D    
C5    C9    A    
C2    O2    A    
C2    C29   S    
C9    C61   A    
O10   Zn1   S    
C57   N1    A    
N6    H43   S    
C28   C68   A    
C41   O11   A    
C77   H29   S    
C36   N4    A    
C54   N6    S    
C12   C64   A    
C22   H20   S    
C92   O20   D    
C59   H39   S    
C40   O14   A    
C6    C22   A    
C72   H26   S    
O7    Zn4   S    
C49   C57   A    
C71   H25   S    
C23   C67   A    
C29   C69   A    
C58   H8    S    
C70   C74   A    
C22   C66   A    
O12   Zn2   S    
C94   H50   S    
C14   H16   S    
C17   H35   S    
O11   Zn2   S    
C39   O9    A    
C44   C46   A    
C49   C51   A    
C40   O10   A    
N2    Zn2   S    
C50   C52   A    
C76   C80   A    
C89   O17   D    
C27   H3    S    
C45   C49   A    
C8    C12   A    
C13   H15   S    
O8    Zn4   S    
C29   C85   A    
C16   H18   S    
C4    O4    A    
C21   C65   A    
C53   C55   A    
C91   O19   D    
C34   C60   A    
C10   C62   A    
C44   C90   S    
C1    O1    A    
C30   C70   A    
C52   C54   A    
C41   C68   S    
C90   O18   D    
C45   C47   A    
C23   H21   S    
C46   C48   A    
C3    O3    A    
C6    C84   A    
C80   C84   A    
C2    O6    A    
O16   Zn4   S    
C60   H40   S    
C24   H22   S    
C38   H12   S    
C60   N2    A    
O1    Zn1   S    
C25   C61   A    
C25   H1    S    
C82   C86   A    
O2    Zn1   S    
C19   H37   S    
C47   N3    A    
C51   C53   A    
C5    C21   A    
C26   C66   A    
C37   C43   A    
C7    C11   A    
C38   C44   A    
C4    O8    A    
C78   C82   A    
C63   C93   S    
C89   H45   S    
C41   O15   A    
C77   C81   A    
C26   H2    S    
C16   C20   A    
C39   O13   A    
C50   C58   A    
C25   C65   A    
C28   H4    S    
C18   C86   A    
C69   C73   A    
C43   C45   A    
N5    H42   S    
C21   H19   S    
C27   C63   A    
C28   C64   A    
C92   H48   S    
C7    C81   A    
C12   C14   A    
C40   C65   S    
C42   O12   A    
C42   C67   S    
N4    Zn4   S    
C39   C66   S    
C17   C85   A    
C31   C87   A    
C30   C86   A    
C64   C94   S    
C36   C38   A    
C35   N3    A    
C37   H11   S    
C1    O5    A    
C35   C37   A    
C47   C55   A    
C90   H46   S    
C57   H7    S    
C48   C56   A    
C46   C50   A    
C59   N1    A    
C78   H30   S    
C75   H33   S    
C34   C52   A    
C48   N4    A    
C34   H6    S    
C54   C56   A    
C33   H5    S    
C6    C10   A    
O4    Zn2   S    
C5    C83   A    
O13   Zn3   S    
O6    Zn3   S    
C33   C51   A    
O3    Zn2   S    
C74   H32   S    
C55   H13   S    
C43   C89   S    
C13   C17   A    
C76   H34   S    
C15   H17   S    
N6    H44   S    
O15   Zn4   S    
C9    C15   A    
C19   C87   A    
C56   H14   S    
C10   C16   A    
C71   C75   A    
C69   H23   S    
C62   C92   S    
C84   C88   A    
C58   N2    A    
C7    C23   A    
C20   C88   A    
C31   C71   A    
C1    C30   S    
C8    C24   A    
C20   H38   S    
C61   C91   S    
C26   C62   A    
C3    C32   S    
C70   H24   S    
C94   O22   D    
C4    C31   S    
C27   C67   A    
C24   C68   A    
O14   Zn3   S    
C79   C83   A    
C8    C82   A    
C3    O7    A    
C33   C59   A    
C74   C78   A    
C73   C77   A    
O5    Zn3   S    
C36   H10   S    
C80   H28   S    
N1    Zn1   S    
C35   H9    S    
C11   C63   A    
C75   C79   A    
C81   C85   A    
C18   H36   S    
N5    H41   S    
C32   C88   A    
