data_mof_unit_59579.cif
_audit_creation_date              2013-03-05T16:01:05-0500
_audit_creation_method            fapswitch 2.2
_symmetry_space_group_name_H-M    P1
_symmetry_Int_Tables_number       1
_space_group_crystal_system       triclinic
_cell_length_a                    14.832329
_cell_length_b                    14.902592
_cell_length_c                    15.824165
_cell_angle_alpha                 74.902197
_cell_angle_beta                  102.285243
_cell_angle_gamma                 115.671811
_cell_volume                      3023.55425161

loop_
_atom_site_label
_atom_site_type_symbol
_atom_site_description
_atom_site_fract_x
_atom_site_fract_y
_atom_site_fract_z
_atom_type_partial_charge
O1    O     O_R   0.977900 0.338120 0.529810 -0.586787
O2    O     O_R   0.022100 0.661880 0.470190 -0.584827
O3    O     O_R   0.839850 0.379180 0.491620 -0.593734
O4    O     O_R   0.160150 0.620820 0.508380 -0.577562
C1    C     C_R   0.880459 0.312623 0.513619 0.778943
C2    C     C_R   0.119565 0.687442 0.485470 0.812343
O5    O     O_R   0.069010 0.479460 0.640020 -0.579006
O6    O     O_R   0.930990 0.520540 0.359980 -0.595000
O7    O     O_R   0.930960 0.520530 0.601820 -0.603117
O8    O     O_R   0.069040 0.479470 0.398180 -0.510632
C3    C     C_R   0.999642 0.499708 0.659856 0.809683
C4    C     C_R   0.000275 0.500178 0.340154 0.851079
Cu1   Cu    Cu3+1 0.081740 0.475690 0.522610 0.981949
Cu2   Cu    Cu3+1 0.918260 0.524310 0.477390 0.944377
C5    C     C_3   0.987555 0.407525 0.048272 -0.150348
C6    C     C_3   0.012302 0.592263 0.951759 -0.154071
C7    C     C_3   0.911600 0.430597 0.971528 -0.155760
C8    C     C_3   0.088257 0.569191 0.028502 -0.147870
H1    H     H_    0.839099 0.373755 0.946714 0.139135
H2    H     H_    0.160757 0.626031 0.053320 0.145576
H3    H     H_    0.977435 0.331733 0.089302 0.143779
H4    H     H_    0.022422 0.668056 0.910732 0.141453
H5    H     H_    0.862292 0.542006 0.015288 0.141403
H6    H     H_    0.137565 0.457781 0.984744 0.142712
C9    C     C_1   0.999309 0.499736 0.749655 -0.170378
C10   C     C_1   0.000566 0.500100 0.250362 -0.138709
C11   C     C_3   0.075523 0.476762 0.992405 -0.152975
C12   C     C_3   0.924334 0.523026 0.007625 -0.156003
C13   C     C_3   0.999569 0.499834 0.917216 0.180472
C14   C     C_3   0.000288 0.499954 0.082813 0.178137
C15   C     C_1   0.999294 0.499772 0.825355 -0.065611
C16   C     C_1   0.000567 0.500035 0.174668 -0.057300
C17   C     C_R   0.812654 0.204922 0.519846 -0.055309
C18   C     C_R   0.187291 0.795457 0.473925 -0.050147
C19   C     C_R   0.780745 0.027169 0.563323 -0.135664
C20   C     C_R   0.218295 0.972051 0.418919 -0.135962
C21   C     C_R   0.847493 0.128373 0.556701 -0.208114
C22   C     C_R   0.151672 0.870653 0.432633 -0.204785
C23   C     C_R   0.710720 0.179268 0.489923 -0.196851
C24   C     C_R   0.290009 0.822691 0.500763 -0.215730
C25   C     C_R   0.640047 0.077925 0.500763 0.068453
C26   C     C_R   0.360280 0.923607 0.481119 0.076068
C27   C     C_R   0.677038 0.000187 0.534464 0.127471
C28   C     C_R   0.322738 0.000462 0.444367 0.122193
C29   C     C_R   0.534108 0.052485 0.480924 0.062930
C30   C     C_R   0.466238 0.949261 0.496865 0.067841
C31   C     C_R   0.506100 0.874165 0.524172 -0.282984
C32   C     C_R   0.493872 0.127220 0.448476 -0.255899
C33   C     C_R   0.609113 0.897775 0.540728 -0.014003
C34   C     C_R   0.390684 0.103110 0.431778 -0.033036
H7    H     H_    0.312866 0.763126 0.538077 0.140336
H8    H     H_    0.689070 0.240953 0.458343 0.179648
H9    H     H_    0.072395 0.851201 0.410191 0.164944
H10   H     H_    0.926175 0.146564 0.581121 0.163711
H11   H     H_    0.811139 0.970960 0.594549 0.186348
H12   H     H_    0.186983 0.026887 0.385052 0.187143
H13   H     H_    0.458752 0.794889 0.530049 0.121530
H14   H     H_    0.540582 0.206864 0.436339 0.173195
N1    N     N_R   0.795440 0.560790 0.443380 -0.212388
N2    N     N_R   0.204560 0.439210 0.556620 -0.196070
C35   C     C_R   0.708013 0.649285 0.336559 -0.246181
C36   C     C_R   0.291760 0.348903 0.661885 -0.223881
C37   C     C_R   0.794719 0.631714 0.369980 0.049753
C38   C     C_R   0.204374 0.365487 0.628058 0.039758
C39   C     C_R   0.713317 0.509599 0.490167 0.131985
C40   C     C_R   0.287318 0.491467 0.510320 0.146452
C41   C     C_R   0.628638 0.536620 0.466428 -0.023599
C42   C     C_R   0.372807 0.466082 0.534955 -0.100496
C43   C     C_R   0.622607 0.599968 0.382897 0.122485
C44   C     C_R   0.379493 0.404794 0.619083 0.129368
C45   C     C_R   0.547339 0.498135 0.519770 0.110940
C46   C     C_R   0.454494 0.505036 0.482059 0.051074
C47   C     C_R   0.444931 0.547418 0.391709 -0.306855
C48   C     C_R   0.557421 0.456905 0.610467 -0.234866
C49   C     C_R   0.528685 0.604364 0.345320 0.000493
C50   C     C_R   0.474612 0.405054 0.658801 0.011651
H15   H     H_    0.138049 0.323963 0.662373 0.132376
H16   H     H_    0.859587 0.669647 0.333656 0.135543
H17   H     H_    0.708771 0.698948 0.273308 0.197044
H18   H     H_    0.289528 0.292708 0.721341 0.190398
H19   H     H_    0.371932 0.538399 0.356055 0.179536
H20   H     H_    0.630875 0.466159 0.645665 0.115155
C51   C     C_2   0.300295 0.590264 0.451568 0.414601
H21   H     H_    0.363156 0.657735 0.467961 0.023188
O9    O     O_2   0.248389 0.596943 0.381306 -0.540599
C52   C     C_2   0.704889 0.414096 0.552915 0.360941
H22   H     H_    0.763023 0.411155 0.606175 0.105537
O10   O     O_2   0.630106 0.336122 0.545957 -0.586913
C53   C     C_2   0.640564 0.811423 0.561882 0.343935
H23   H     H_    0.591916 0.737701 0.595259 0.068507
O11   O     O_2   0.716727 0.819303 0.537268 -0.538073
C54   C     C_2   0.359071 0.189575 0.404271 0.369834
H24   H     H_    0.406122 0.260220 0.365611 0.077871
O12   O     O_2   0.284869 0.185759 0.429257 -0.540179
C55   C     C_2   0.511021 0.662329 0.256286 0.361600
H25   H     H_    0.439432 0.632008 0.216329 0.076527
O13   O     O_2   0.572131 0.746926 0.229151 -0.535846
C56   C     C_2   0.494868 0.359826 0.752492 0.345440
H26   H     H_    0.556829 0.335596 0.772193 0.081016
O14   O     O_2   0.447548 0.354550 0.809259 -0.551737

loop_
_geom_bond_atom_site_label_1
_geom_bond_atom_site_label_2
_geom_bond_distance
_ccdc_geom_bond_type
C9    C15   1.198084 T    
C40   C42   1.425241 A    
C6    C12   1.548491 S    
C11   C13   1.534637 S    
C7    C13   1.534450 S    
C38   H15   1.081844 S    
C55   H25   1.085748 S    
H6    C11   1.110130 S    
C49   C55   1.484870 S    
C39   C52   1.479745 S    
C23   C25   1.406791 A    
Cu1   N2    2.047499 S    
C29   C30   1.416897 A    
C10   C16   1.198050 T    
Cu2   N1    2.047500 S    
C17   C23   1.394656 A    
C48   C50   1.400087 A    
C18   C24   1.394615 A    
C36   H18   1.080000 S    
C19   C21   1.390655 A    
C52   O10   1.220926 D    
C3    C9    1.422157 S    
C35   C43   1.410826 A    
C36   C44   1.409947 A    
C26   C30   1.428490 A    
O4    Cu1   1.938918 S    
C35   C37   1.390110 A    
C36   C38   1.393182 A    
C40   C51   1.478754 S    
C12   C14   1.534622 S    
C39   C41   1.428074 A    
C1    C17   1.469179 S    
C6    H4    1.110127 S    
C8    C14   1.534438 S    
C53   O11   1.220721 D    
C19   C27   1.413214 A    
C41   C45   1.441269 A    
O6    C4    1.305214 A    
C24   C26   1.407454 A    
C23   H8    1.070538 S    
N2    C40   1.381037 A    
Cu1   Cu2   2.725876 S    
C25   C27   1.425447 A    
O2    C2    1.309773 A    
C26   C28   1.424034 A    
C48   H20   1.080667 S    
C47   H19   1.078040 S    
C19   H11   1.079730 S    
O4    C2    1.310348 A    
C52   H22   1.077030 S    
C27   C33   1.409117 A    
C6    C13   1.534491 S    
C17   C21   1.394433 A    
C2    C18   1.468837 S    
C4    C10   1.422124 S    
C41   C43   1.420989 A    
O5    C3    1.305357 A    
O7    Cu2   1.925927 S    
C20   H12   1.079581 S    
C31   H13   1.072056 S    
C5    C11   1.548499 S    
C51   H21   1.080871 S    
C5    H3    1.110129 S    
C42   C46   1.440375 A    
C54   O12   1.220700 D    
H5    C12   1.110133 S    
O7    C3    1.305673 A    
O3    Cu2   1.938917 S    
O8    C4    1.305824 A    
C21   H10   1.083216 S    
C34   C54   1.488004 S    
C51   O9    1.217908 D    
C56   O14   1.220421 D    
C44   C50   1.415866 A    
O1    C1    1.310018 A    
C20   C28   1.412898 A    
O1    Cu1   1.950747 S    
C47   C49   1.397278 A    
C5    C14   1.534481 S    
C29   C32   1.416976 A    
C28   C34   1.409386 A    
C5    C7    1.548586 S    
C30   C31   1.414707 A    
O6    Cu2   1.924449 S    
C18   C22   1.395159 A    
C7    C12   1.548491 S    
C8    C11   1.548494 S    
C33   C53   1.488270 S    
C46   C47   1.408553 A    
O3    C1    1.310083 A    
O8    Cu1   1.925927 S    
C45   C48   1.410175 A    
C55   O13   1.220201 D    
C32   H14   1.072861 S    
C31   C33   1.392431 A    
C24   H7    1.074262 S    
N1    C37   1.353259 A    
N2    C38   1.355238 A    
C20   C22   1.390547 A    
C45   C46   1.415675 A    
C13   C15   1.452998 S    
N1    C39   1.377765 A    
C14   C16   1.452956 S    
C22   H9    1.083227 S    
C35   H17   1.077666 S    
C32   C34   1.393655 A    
C54   H24   1.085934 S    
C7    H1    1.110164 S    
C43   C49   1.415899 A    
C8    H2    1.110166 S    
O2    Cu2   1.950746 S    
O5    Cu1   1.924451 S    
C6    C8    1.548576 S    
C56   H26   1.085882 S    
C42   C44   1.416035 A    
C25   C29   1.430822 A    
C53   H23   1.086129 S    
C50   C56   1.485922 S    
C37   H16   1.081898 S    
