data_mof_unit_13693.cif
_audit_creation_date              2012-12-11T15:53:54-0500
_audit_creation_method            fapswitch 2.2
_symmetry_space_group_name_H-M    P1
_symmetry_Int_Tables_number       1
_space_group_crystal_system       triclinic
_cell_length_a                    10.645806
_cell_length_b                    10.680238
_cell_length_c                    17.022106
_cell_angle_alpha                 81.395634
_cell_angle_beta                  99.25071
_cell_angle_gamma                 118.313514
_cell_volume                      1675.70237751

loop_
_atom_site_label
_atom_site_type_symbol
_atom_type_description
_atom_site_fract_x
_atom_site_fract_y
_atom_site_fract_z
_atom_type_partial_charge
C1    C     C_R   0.361433 0.229663 0.627545 0.544412
C2    C     C_R   0.389921 0.835953 0.675260 -0.030430
C3    C     C_R   0.369869 0.853427 0.751665 -0.137217
C4    C     C_3   0.138631 0.458544 0.792955 -0.241447
C5    C     C_3   0.160332 0.436285 0.710921 -0.121532
C6    C     C_R   0.316637 0.696461 0.647151 0.019429
C7    C     C_1   0.851031 0.669651 0.702595 -0.031086
C8    C     C_1   0.898120 0.703013 0.769517 -0.034494
C9    C     C_1   0.345363 0.187765 0.709807 -0.055806
C10   C     C_1   0.320854 0.159649 0.778203 -0.056550
C11   C     C_1   0.335656 0.662944 0.277646 -0.049907
C12   C     C_R   0.369893 0.656273 0.585732 0.541215
C13   C     C_1   0.323990 0.673521 0.206847 -0.049873
C14   C     C_R   0.830091 0.673099 0.157266 0.015225
C15   C     C_R   0.807163 0.546731 0.203017 0.014943
C16   C     C_R   0.804799 0.535870 0.283866 -0.011368
C17   C     C_R   0.847384 0.780487 0.276967 -0.151158
C18   C     C_R   0.852486 0.791825 0.194722 -0.148295
C19   C     C_3   0.685217 0.400956 0.192882 -0.034078
C20   C     C_3   0.684448 0.386147 0.282744 -0.248677
C21   C     C_R   0.819624 0.650412 0.321746 0.018501
C22   C     C_R   0.260172 0.056331 0.178742 0.001566
C23   C     C_R   0.781521 0.621388 0.626094 0.553907
C24   C     C_R   0.165190 0.090504 0.206541 -0.009815
C25   C     C_R   0.186049 0.126856 0.282851 0.026922
C26   C     C_R   0.385083 0.070321 0.313338 -0.052203
C27   C     C_R   0.361786 0.032942 0.234219 -0.140212
C28   C     C_3   0.112036 0.196631 0.172346 -0.223497
C29   C     C_3   0.135376 0.238323 0.256598 -0.119790
C30   C     C_R   0.305874 0.133709 0.334535 0.015788
C31   C     C_R   0.947573 0.724110 0.851843 0.535701
C32   C     C_R   0.281343 0.750077 0.883294 0.547810
C33   C     C_R   0.284372 0.114141 0.857698 0.548066
C34   C     C_R   0.348301 0.220312 0.401782 0.531464
C35   C     C_R   0.884757 0.691777 0.082433 0.557559
C36   C     C_R   0.313173 0.701374 0.123772 0.561218
C37   C     C_R   0.245785 0.038335 0.094519 0.574558
C38   C     C_R   0.365270 0.653476 0.360757 0.545877
C39   C     C_R   0.770275 0.620255 0.399379 0.547538
C40   C     C_R   0.278675 0.736633 0.799208 -0.012840
C41   C     C_R   0.184499 0.611277 0.763121 -0.012949
C42   C     C_R   0.203342 0.591198 0.688425 -0.002285
Cr1   Cr    Cr6+3 0.608440 0.389080 0.519680 1.024751
Cr2   Cr    Cr6+3 0.288640 0.400090 0.490760 1.024045
Cr3   Cr    Cr6+3 0.602940 0.710800 0.489510 1.009574
Cr4   Cr    Cr6+3 0.052530 0.947560 0.964210 1.025853
Cr5   Cr    Cr6+3 0.059970 0.626800 0.992920 1.035288
Cr6   Cr    Cr6+3 0.373320 0.938440 0.995370 1.043981
H1    H     H_    0.585316 0.376407 0.302256 0.154294
H2    H     H_    0.722017 0.309367 0.314468 0.125017
H3    H     H_    0.427326 0.993002 0.215031 0.148848
H4    H     H_    0.998172 0.144739 0.146507 0.154284
H5    H     H_    0.184780 0.284021 0.132221 0.182804
H6    H     H_    0.222174 0.348908 0.264272 0.164146
H7    H     H_    0.434386 0.955430 0.776651 0.139211
H8    H     H_    0.025256 0.403390 0.807123 0.155319
H9    H     H_    0.216243 0.445145 0.841233 0.158631
H10   H     H_    0.248433 0.408026 0.711688 0.135610
H11   H     H_    0.858113 0.869989 0.304899 0.132012
H12   H     H_    0.875610 0.892904 0.160774 0.141696
O1    O     O_R   0.754020 0.497590 0.609930 -0.489861
O2    O     O_R   0.295080 0.533620 0.397890 -0.501350
O3    O     O_R   0.485280 0.746620 0.388440 -0.529578
O4    O     O_R   0.720550 0.696220 0.420010 -0.505002
O5    O     O_3   0.500010 0.499990 0.499980 -0.248097
O6    O     O_R   0.163320 0.092900 0.874450 -0.506988
O7    O     O_R   0.934650 0.822080 0.882840 -0.478623
O8    O     O_R   0.915520 0.604140 0.893670 -0.499762
O9    O     O_R   0.191760 0.638110 0.923230 -0.503418
O10   O     O_R   0.406180 0.826930 0.920660 -0.493595
O11   O     O_R   0.358620 0.062870 0.901950 -0.510497
O12   O     O_R   0.481420 0.271390 0.600630 -0.502920
O13   O     O_R   0.163910 0.085460 0.050210 -0.507795
O14   O     O_R   0.935200 0.815170 0.045770 -0.518215
O15   O     O_R   0.916120 0.596690 0.069430 -0.496235
O16   O     O_R   0.192310 0.631200 0.086170 -0.492105
O17   O     O_R   0.406770 0.819480 0.096420 -0.509189
O18   O     O_R   0.359170 0.055960 0.064880 -0.479976
O19   O     O_3   0.161940 0.837600 0.984160 -0.330131
O20   O     O_R   0.263810 0.254550 0.589590 -0.508043
O21   O     O_R   0.300820 0.531200 0.560890 -0.497554
O22   O     O_R   0.491480 0.744020 0.564270 -0.525289
O23   O     O_R   0.726290 0.693800 0.583010 -0.493153
O24   O     O_R   0.747830 0.500190 0.434090 -0.514715
O25   O     O_R   0.475680 0.273800 0.437630 -0.516462
O26   O     O_R   0.257620 0.257160 0.413750 -0.523760
C43   C     C_3   0.499059 0.964503 0.630320 -0.346531
H13   H     H_    0.454500 0.975047 0.567535 0.134138
H14   H     H_    0.529051 0.064097 0.657624 0.144776
H15   H     H_    0.599842 0.956653 0.632687 0.176397
C44   C     C_1   0.556197 0.402796 0.147190 0.205973
N1    N     N_1   0.455990 0.405796 0.110760 -0.299449
C45   C     C_3   0.492326 0.041942 0.372170 -0.378815
H16   H     H_    0.575870 0.139166 0.399248 0.146561
H17   H     H_    0.435566 0.961861 0.420432 0.148290
H18   H     H_    0.549292 0.000865 0.342617 0.151857
C46   C     C_3   0.996382 0.206399 0.289675 -0.376608
H19   H     H_    0.968454 0.294102 0.267514 0.150853
H20   H     H_    0.905684 0.104461 0.270693 0.134189
H21   H     H_    0.010067 0.200496 0.355808 0.166410
C47   C     C_1   0.026042 0.343866 0.664915 0.244949
N2    N     N_1   0.920427 0.271156 0.628698 -0.303274
C48   C     C_1   0.725203 0.303947 0.162889 0.220240
N3    N     N_1   0.755753 0.227303 0.138823 -0.319198

loop_
_geom_bond_atom_site_label_1
_geom_bond_atom_site_label_2
_ccdc_geom_bond_type
C43   H13   S    
C35   O14   A    
C45   H16   S    
C11   C13   T    
C41   C42   A    
C14   C18   A    
C19   C20   S    
Cr5   O19   S    
C5    C42   S    
C46   H19   S    
C7    C8    T    
Cr3   O23   S    
C31   O7    A    
C39   O4    A    
C35   O15   A    
C26   C27   A    
C47   N2    T    
C23   O23   A    
C5    H10   S    
Cr6   O19   S    
C28   C29   S    
Cr5   O16   S    
Cr4   O6    S    
C36   O17   A    
C6    C12   S    
Cr4   O19   S    
C4    C41   S    
C15   C16   A    
C34   O26   A    
Cr6   O18   S    
Cr5   O9    S    
C20   H2    S    
C36   O16   A    
C3    H7    S    
Cr3   O22   S    
C4    H9    S    
C9    C10   T    
Cr1   O5    S    
C26   C45   S    
C45   H17   S    
C4    H8    S    
Cr1   O24   S    
Cr2   O5    S    
C2    C6    A    
C19   C48   S    
Cr2   O26   S    
C46   H20   S    
C27   H3    S    
C33   O6    A    
C25   C29   S    
C31   O8    A    
C5    C47   S    
C1    O12   A    
C30   C34   S    
Cr1   O25   S    
Cr2   O20   S    
C1    C9    S    
C24   C25   A    
C13   C36   S    
Cr2   O21   S    
C44   N1    T    
C32   O10   A    
Cr2   O2    S    
C22   C37   S    
Cr3   O3    S    
C17   C21   A    
C34   O25   A    
Cr6   O17   S    
C11   C38   S    
C15   C19   S    
C20   H1    S    
C21   C39   S    
C16   C20   S    
C17   C18   A    
C12   O22   A    
C2    C43   S    
Cr4   O14   S    
C17   H11   S    
C18   H12   S    
C40   C41   A    
C3    C40   A    
C26   C30   A    
C45   H18   S    
C22   C27   A    
C43   H14   S    
Cr3   O5    S    
C22   C24   A    
Cr6   O11   S    
Cr5   O8    S    
C14   C35   S    
C46   H21   S    
Cr1   O1    S    
C38   O3    A    
C25   C30   A    
Cr1   O12   S    
C37   O13   A    
C8    C31   S    
C24   C28   S    
Cr6   O10   S    
C4    C5    S    
C39   O24   A    
C28   H5    S    
C16   C21   A    
C32   O9    A    
C37   O18   A    
Cr3   O4    S    
C29   C46   S    
C29   H6    S    
C2    C3    A    
Cr5   O15   S    
Cr4   O7    S    
C28   H4    S    
C7    C23   S    
C12   O21   A    
C10   C33   S    
C32   C40   S    
C19   C44   S    
C33   O11   A    
C23   O1    A    
C6    C42   A    
C43   H15   S    
C48   N3    T    
C1    O20   A    
C14   C15   A    
Cr4   O13   S    
C38   O2    A    
