data_mof_unit_33363.cif
_audit_creation_date              2012-12-10T20:27:51-0500
_audit_creation_method            fapswitch 2.2
_symmetry_space_group_name_H-M    P1
_symmetry_Int_Tables_number       1
_space_group_crystal_system       triclinic
_cell_length_a                    12.8915
_cell_length_b                    10.690063
_cell_length_c                    9.883611
_cell_angle_alpha                 90.644268
_cell_angle_beta                  97.004523
_cell_angle_gamma                 90.451697
_cell_volume                      1351.75978203

loop_
_atom_site_label
_atom_site_type_symbol
_atom_type_description
_atom_site_fract_x
_atom_site_fract_y
_atom_site_fract_z
_atom_type_partial_charge
C1    C     C_R   0.494116 0.260063 0.498405 0.937750
C2    C     C_R   0.028448 0.525026 0.561563 0.189611
C3    C     C_R   0.970627 0.491083 0.435732 0.182120
C4    C     C_R   0.863763 0.480152 0.427185 -0.275968
C5    C     C_R   0.870774 0.536350 0.667641 -0.204649
C6    C     C_R   0.978516 0.547257 0.677251 -0.210698
C7    C     C_R   0.513416 0.065549 0.618052 0.107840
C8    C     C_R   0.479371 0.127685 0.497754 -0.271610
C9    C     C_R   0.428307 0.059029 0.384816 0.394436
C10   C     C_R   0.433874 0.929343 0.387458 -0.284304
C11   C     C_R   0.485449 0.870620 0.501742 -0.182381
C12   C     C_R   0.298138 0.502388 0.473326 0.903886
C13   C     C_R   0.515576 0.938327 0.620558 0.155538
C14   C     C_3   0.615946 0.936230 0.713619 -0.477760
C15   C     C_3   0.613623 0.078076 0.711051 -0.438671
C16   C     C_R   0.422451 0.439922 0.058019 0.376231
C17   C     C_R   0.581289 0.549754 0.085404 -0.144524
C18   C     C_R   0.581352 0.549617 0.941599 -0.140111
C19   C     C_R   0.422116 0.440771 0.915583 0.241356
C20   C     C_3   0.309415 0.473545 0.893740 -0.553446
C21   C     C_3   0.309047 0.468881 0.046405 -0.500673
C22   C     C_R   0.498821 0.739687 0.500632 0.901349
C23   C     C_R   0.701735 0.500138 0.526573 0.870726
C24   C     C_R   0.813783 0.503858 0.542173 -0.048460
C25   C     C_R   0.185779 0.505572 0.456718 -0.058374
C26   C     C_R   0.020469 0.468697 0.320246 -0.219232
C27   C     C_R   0.128246 0.475990 0.330896 -0.171293
C28   C     C_R   0.135541 0.534325 0.570113 -0.283112
H1    H     H_    0.819615 0.453817 0.330335 0.160970
H2    H     H_    0.681312 0.895572 0.664339 0.195674
H3    H     H_    0.601960 0.121077 0.810959 0.224301
H4    H     H_    0.677697 0.120268 0.660321 0.195337
H5    H     H_    0.645775 0.592825 0.150084 0.156897
H6    H     H_    0.645886 0.592419 0.898286 0.146615
H7    H     H_    0.297305 0.569724 0.853776 0.217077
H8    H     H_    0.292894 0.560766 0.093013 0.205469
H9    H     H_    0.262490 0.388588 0.076840 0.262582
H10   H     H_    0.832142 0.555394 0.756966 0.156724
H11   H     H_    0.976480 0.443763 0.222993 0.145007
H12   H     H_    0.022548 0.572937 0.774244 0.146762
H13   H     H_    0.166176 0.455697 0.242020 0.182869
H14   H     H_    0.179520 0.562453 0.665650 0.156523
H15   H     H_    0.400899 0.874483 0.299539 0.210817
H16   H     H_    0.605615 0.897225 0.814958 0.215278
N1    N     N_R   0.499290 0.499140 0.142710 -0.122587
N2    N     N_R   0.499290 0.499180 0.857070 -0.116481
O1    O     O_R   0.500010 0.316790 0.614690 -0.619314
O2    O     O_R   0.500000 0.316760 0.385350 -0.538855
O3    O     O_R   0.346360 0.499990 0.595720 -0.631780
O4    O     O_R   0.346350 0.499960 0.366370 -0.597791
O5    O     O_R   0.500000 0.683240 0.614650 -0.614993
O6    O     O_R   0.499990 0.683210 0.385310 -0.625364
O7    O     O_R   0.653650 0.500040 0.633630 -0.632982
O8    O     O_R   0.653640 0.500010 0.404280 -0.633574
Zn1   Zn    Zn3+2 0.500010 0.500020 0.653130 0.952948
Zn2   Zn    Zn3+2 0.499990 0.499980 0.346870 1.000784
H17   H     H_    0.260790 0.398855 0.837569 0.226131
S1    S     S_3+6 0.357751 0.127957 0.240453 0.012621
O9    O     O_2   0.433450 0.174313 0.147902 -0.289304
O10   O     O_2   0.285027 0.034032 0.163425 -0.308052
O11   O     O_3   0.287427 0.247845 0.289890 -0.575431
H18   H     H_    0.242956 0.211158 0.354459 0.339543

loop_
_geom_bond_atom_site_label_1
_geom_bond_atom_site_label_2
_ccdc_geom_bond_type
C16   N1    A    
N2    Zn1   S    
C4    H1    S    
C12   O4    A    
C23   C24   S    
C1    O2    A    
C15   H3    S    
C16   C21   S    
C8    C9    A    
C25   C27   A    
C1    C8    S    
C11   C13   A    
C9    C10   A    
C27   H13   S    
C11   C22   S    
C19   C20   S    
C12   C25   S    
S1    O11   S    
C7    C15   S    
C2    C3    A    
C10   H15   S    
C19   N2    A    
C7    C8    A    
C21   H8    S    
O3    Zn1   S    
C13   C14   S    
C25   C28   A    
C18   H6    S    
C26   C27   A    
C2    C6    A    
C5    C24   A    
C17   H5    S    
C14   H2    S    
C16   C19   A    
C5    C6    A    
C18   N2    A    
C23   O7    A    
C14   H16   S    
C17   N1    A    
C17   C18   A    
O5    Zn1   S    
O7    Zn1   S    
O11   H18   S    
C4    C24   A    
O8    Zn2   S    
C26   H11   S    
C12   O3    A    
C10   C11   A    
S1    O10   D    
C3    C4    A    
C7    C13   A    
C6    H12   S    
C21   H9    S    
C20   C21   S    
C23   O8    A    
C22   O6    A    
C9    S1    S    
C28   H14   S    
O2    Zn2   S    
O1    Zn1   S    
C14   C15   S    
C1    O1    A    
C2    C28   A    
S1    O9    D    
C5    H10   S    
C20   H7    S    
C20   H17   S    
C3    C26   A    
O4    Zn2   S    
O6    Zn2   S    
N1    Zn2   S    
C22   O5    A    
C15   H4    S    
