data_mof_unit_14580.cif
_audit_creation_date              2013-03-05T15:50:33-0500
_audit_creation_method            fapswitch 2.2
_symmetry_space_group_name_H-M    P1
_symmetry_Int_Tables_number       1
_space_group_crystal_system       triclinic
_cell_length_a                    9.63857
_cell_length_b                    10.773108
_cell_length_c                    13.445909
_cell_angle_alpha                 91.867821
_cell_angle_beta                  72.767864
_cell_angle_gamma                 89.198149
_cell_volume                      1332.39843738

loop_
_atom_site_label
_atom_site_type_symbol
_atom_site_description
_atom_site_fract_x
_atom_site_fract_y
_atom_site_fract_z
_atom_type_partial_charge
O1    O     O_R   0.381190 0.680360 0.500010 -0.590793
O2    O     O_R   0.618760 0.680340 0.500000 -0.573137
C1    C     C_R   0.498583 0.737130 0.501575 0.787675
O3    O     O_R   0.323240 0.499990 0.650990 -0.600785
O4    O     O_R   0.560820 0.499960 0.650980 -0.570474
C2    C     C_R   0.422263 0.494540 0.699708 0.756791
Cu1   Cu    Cu3+1 0.359340 0.500010 0.500010 0.969447
Cu2   Cu    Cu3+1 0.640660 0.499990 0.499990 0.960463
O5    O     O_R   0.381240 0.319660 0.500000 -0.586481
O6    O     O_R   0.618810 0.319640 0.499990 -0.587485
O7    O     O_R   0.439180 0.500040 0.349020 -0.529328
O8    O     O_R   0.676760 0.500010 0.349010 -0.609513
C3    C     C_R   0.499486 0.263097 0.502240 0.840436
C4    C     C_R   0.578511 0.503184 0.300561 0.841741
C5    C     C_R   0.793537 0.416329 0.026227 -0.184179
H1    H     H_    0.841275 0.421929 0.171514 0.157457
H2    H     H_    0.806532 0.324189 0.841345 0.146070
H3    H     H_    0.896914 0.370906 0.985811 0.141278
C6    C     C_R   0.626552 0.498391 0.186715 -0.021322
C7    C     C_R   0.239341 0.547695 0.867452 -0.204579
C8    C     C_R   0.203627 0.579698 0.972726 -0.153536
C9    C     C_R   0.305767 0.565215 0.026080 -0.119496
C10   C     C_R   0.444463 0.509731 0.976466 0.078266
C11   C     C_R   0.474401 0.463279 0.871600 0.028870
C12   C     C_R   0.552388 0.494925 0.028652 0.085693
C13   C     C_R   0.686914 0.434079 0.975860 0.134673
C14   C     C_R   0.708955 0.380518 0.877062 -0.268450
C15   C     C_R   0.600395 0.386112 0.828666 -0.020106
C16   C     C_R   0.528854 0.532994 0.133452 -0.149243
C17   C     C_R   0.762537 0.446370 0.131830 -0.181242
C18   C     C_R   0.376277 0.494921 0.814604 -0.102194
H4    H     H_    0.431093 0.581912 0.178233 0.149033
H5    H     H_    0.161673 0.570119 0.826308 0.154111
H6    H     H_    0.271232 0.597383 0.106423 0.144110
H7    H     H_    0.098018 0.621544 0.012317 0.154321
C19   C     C_R   0.297668 0.879436 0.672121 -0.176359
H8    H     H_    0.296562 0.779489 0.677047 0.138624
C20   C     C_R   0.200408 0.948368 0.753292 -0.132145
H9    H     H_    0.126432 0.901362 0.816834 0.137128
C21   C     C_R   0.199502 0.077442 0.753503 -0.122902
H10   H     H_    0.124807 0.130731 0.817185 0.135023
C22   C     C_R   0.296222 0.138293 0.672737 -0.160622
H11   H     H_    0.294378 0.238625 0.678007 0.138925
C23   C     C_R   0.394905 0.070287 0.588899 0.094083
C24   C     C_R   0.395185 0.939132 0.588173 0.085655
C25   C     C_R   0.495951 0.871524 0.505045 -0.146972
C26   C     C_R   0.597054 0.933147 0.425448 -0.040337
H12   H     H_    0.672246 0.109152 0.365021 0.142343
C27   C     C_R   0.596825 0.061514 0.427622 -0.186546
C28   C     C_R   0.496893 0.129653 0.507494 -0.071443
H13   H     H_    0.830770 0.663821 0.593252 0.140882
C29   C     C_R   0.901881 0.310121 0.391264 -0.123946
H14   H     H_    0.811482 0.320631 0.361357 0.191037
C30   C     C_R   0.976027 0.196590 0.370757 -0.248726
H15   H     H_    0.933623 0.119290 0.336336 0.170239
C31   C     C_R   0.113044 0.187263 0.382841 -0.219532
H16   H     H_    0.176719 0.103335 0.352206 0.185664
C32   C     C_R   0.182617 0.296830 0.396230 0.386521
C33   C     C_R   0.096072 0.402838 0.448248 0.084699
C34   C     C_R   0.947551 0.405673 0.447203 0.184268
N1    N     N_R   0.852480 0.498790 0.499000 -0.191715
C35   C     C_R   0.903941 0.590052 0.550948 -0.036068
H17   H     H_    0.088136 0.664626 0.592048 0.133824
C36   C     C_R   0.051736 0.590492 0.550371 -0.056981
N2    N     N_R   0.148360 0.498710 0.498970 -0.202292
N3    N     N_R   0.311678 0.312468 0.312765 0.148736
O9    O     O_R   0.298377 0.371544 0.233139 -0.393594
O10   O     O_R   0.418910 0.232231 0.297358 -0.405346
C37   C     C_1   0.610068 0.290700 0.749075 0.271402
N4    N     N_1   0.620558 0.211297 0.687242 -0.287785
C38   C     C_1   0.699497 0.866470 0.338700 0.248808
N5    N     N_1   0.781364 0.813066 0.269348 -0.292645

loop_
_geom_bond_atom_site_label_1
_geom_bond_atom_site_label_2
_geom_bond_distance
_ccdc_geom_bond_type
C5    H3    1.084345 S    
N3    O10   1.301851 A    
C10   C11   1.425040 A    
Cu2   O6    1.957239 S    
C33   C34   1.435661 A    
C8    H7    1.083161 S    
Cu1   N2    2.037973 S    
C1    C25   1.446693 S    
C35   C36   1.422325 A    
C15   C37   1.441183 S    
O8    C4    1.299369 A    
Cu2   N1    2.037595 S    
Cu2   O8    1.955441 S    
C36   N2    1.367851 A    
C29   C30   1.385456 A    
C19   C20   1.393902 A    
O2    C1    1.296644 A    
C32   C33   1.436965 A    
C11   C18   1.426696 A    
C19   C24   1.416611 A    
C26   C27   1.382233 A    
C25   C26   1.407936 A    
C8    C9    1.389118 A    
C31   H16   1.083637 S    
Cu1   O7    1.946353 S    
C26   C38   1.447279 S    
C13   C14   1.386436 A    
C37   N4    1.155251 T    
H13   C35   1.081518 S    
C22   C23   1.415480 A    
C34   N1    1.371743 A    
O3    Cu1   1.955441 S    
H12   C27   1.084622 S    
C7    H5    1.083441 S    
C21   C22   1.393499 A    
C21   H10   1.082694 S    
C20   C21   1.390346 A    
C31   C32   1.398293 A    
O6    C3    1.301888 A    
N3    O9    1.300472 A    
C16   H4    1.075834 S    
C10   C12   1.426550 A    
C12   C16   1.405567 A    
O4    C2    1.304787 A    
C9    H6    1.075747 S    
O7    C4    1.309000 A    
C30   C31   1.380248 A    
O4    Cu2   1.946353 S    
Cu1   Cu2   2.711439 S    
N1    C35   1.369205 A    
C33   N2    1.399351 A    
H1    C17   1.083282 S    
C3    C28   1.441852 S    
H2    C14   1.086671 S    
C38   N5    1.157391 T    
C20   H9    1.082662 S    
C7    C8    1.384633 A    
C5    C17   1.387869 A    
O3    C2    1.309535 A    
C27   C28   1.391366 A    
C22   H11   1.080461 S    
C23   C28   1.413914 A    
C14   C15   1.387871 A    
Cu1   O5    1.951415 S    
O5    C3    1.293557 A    
C30   H15   1.082228 S    
C19   H8    1.080937 S    
C5    C13   1.402385 A    
C2    C18   1.475450 S    
C29   C34   1.406252 A    
O1    Cu1   1.957240 S    
C12   C13   1.419636 A    
C24   C25   1.416700 A    
C6    C17   1.398572 A    
C4    C6    1.461009 S    
C32   N3    1.423495 S    
C9    C10   1.418690 A    
O2    Cu2   1.951416 S    
C23   C24   1.412623 A    
C11   C15   1.422752 A    
C29   H14   1.068415 S    
H17   C36   1.081719 S    
O1    C1    1.299006 A    
C7    C18   1.402565 A    
C6    C16   1.394906 A    
