data_mof_unit_41330.cif
_audit_creation_date              2012-12-10T20:44:50-0500
_audit_creation_method            fapswitch 2.2
_symmetry_space_group_name_H-M    P1
_symmetry_Int_Tables_number       1
_space_group_crystal_system       triclinic
_cell_length_a                    9.849031
_cell_length_b                    10.670554
_cell_length_c                    16.9398
_cell_angle_alpha                 89.353921
_cell_angle_beta                  93.728432
_cell_angle_gamma                 90.244153
_cell_volume                      1776.38973289

loop_
_atom_site_label
_atom_site_type_symbol
_atom_type_description
_atom_site_fract_x
_atom_site_fract_y
_atom_site_fract_z
_atom_type_partial_charge
C1    C     C_R   0.500163 0.259882 0.502986 0.878325
C2    C     C_R   0.502091 0.128483 0.516874 -0.099757
C3    C     C_R   0.381866 0.063847 0.531480 -0.228347
C4    C     C_R   0.516604 0.497410 0.653059 0.890585
C5    C     C_R   0.382059 0.934211 0.531292 -0.223495
C6    C     C_R   0.502493 0.871213 0.516547 -0.110240
C7    C     C_R   0.625244 0.936506 0.517861 0.126714
C8    C     C_3   0.737043 0.931598 0.462429 -0.427830
C9    C     C_3   0.737316 0.073531 0.462953 -0.521296
C10   C     C_R   0.075200 0.408023 0.539233 0.204732
C11   C     C_R   0.067824 0.581851 0.453985 -0.261685
C12   C     C_R   0.639190 0.443031 0.781092 -0.221136
C13   C     C_R   0.922471 0.580348 0.452062 0.507352
C14   C     C_R   0.932723 0.408514 0.539639 0.122444
C15   C     C_3   0.936910 0.380841 0.626115 -0.495634
C16   C     C_R   0.500459 0.740127 0.502759 0.883625
C17   C     C_3   0.090886 0.379501 0.625557 -0.500228
C18   C     C_R   0.483218 0.501958 0.347084 0.868250
C19   C     C_R   0.522292 0.487330 0.738544 -0.100764
C20   C     C_R   0.404830 0.513572 0.777423 -0.310238
C21   C     C_R   0.401567 0.492905 0.857940 0.517595
C22   C     C_R   0.522555 0.455374 0.901555 0.193398
C23   C     C_R   0.584522 0.474267 0.140669 -0.177583
C24   C     C_R   0.638987 0.427285 0.862487 -0.249251
C25   C     C_3   0.872012 0.659165 0.325714 0.064787
C26   C     C_3   0.935748 0.781646 0.297685 -0.371021
C27   C     C_3   0.967544 0.774728 0.210859 -0.947244
C28   C     C_3   0.213574 0.405213 0.909955 0.088535
C29   C     C_3   0.120773 0.365726 0.838295 -0.382262
C30   C     C_3   0.029286 0.255826 0.858500 -0.947895
C31   C     C_R   0.587813 0.466440 0.222063 -0.259961
C32   C     C_R   0.467567 0.520154 0.097990 0.325509
C33   C     C_R   0.475545 0.505774 0.261693 -0.021371
C34   C     C_R   0.359384 0.552722 0.219459 -0.227538
C35   C     C_R   0.356224 0.560823 0.137570 -0.194708
C36   C     C_R   0.625043 0.064392 0.518057 0.133517
H1    H     H_    0.678260 0.429750 0.253956 0.152033
H2    H     H_    0.140140 0.457299 0.659783 0.211017
H3    H     H_    0.673122 0.444702 0.111181 0.148018
H4    H     H_    0.135710 0.285344 0.637996 0.196133
H5    H     H_    0.729757 0.419638 0.751666 0.165449
H6    H     H_    0.272509 0.584663 0.249684 0.155326
H7    H     H_    0.266544 0.597117 0.104736 0.148866
H8    H     H_    0.313900 0.548500 0.745306 0.172478
H9    H     H_    0.286592 0.112348 0.537057 0.168375
H10   H     H_    0.772709 0.646959 0.291806 0.180810
H11   H     H_    0.935958 0.577602 0.310704 0.111674
H12   H     H_    0.286832 0.884655 0.536753 0.173058
H13   H     H_    0.864215 0.860243 0.304898 0.226108
H14   H     H_    0.031109 0.801989 0.333854 0.216563
H15   H     H_    0.041826 0.698802 0.202312 0.257065
H16   H     H_    0.012270 0.865074 0.192031 0.267860
H17   H     H_    0.873050 0.756669 0.173195 0.268057
H18   H     H_    0.730586 0.395943 0.895601 0.162988
H19   H     H_    0.149626 0.422947 0.960306 0.171484
H20   H     H_    0.283793 0.327291 0.929275 0.128935
H21   H     H_    0.056167 0.446146 0.817302 0.238129
H22   H     H_    0.184299 0.337353 0.789802 0.217472
H23   H     H_    0.831692 0.890103 0.490750 0.225355
H24   H     H_    0.091841 0.173293 0.877784 0.268964
H25   H     H_    0.963459 0.230199 0.805361 0.266735
H26   H     H_    0.963258 0.281728 0.906416 0.257921
H27   H     H_    0.702371 0.891975 0.404115 0.217775
H28   H     H_    0.831713 0.114125 0.492028 0.207425
H29   H     H_    0.704159 0.116308 0.404717 0.206095
H30   H     H_    0.120457 0.650004 0.419492 0.161372
H31   H     H_    0.898583 0.459945 0.660378 0.213133
H32   H     H_    0.892425 0.287589 0.639256 0.200107
N1    N     N_2   0.532143 0.448453 0.984566 -0.211113
N2    N     N_2   0.458813 0.526538 0.015098 -0.143255
N3    N     N_R   0.142860 0.499130 0.500540 -0.123292
N4    N     N_R   0.857210 0.499170 0.500530 -0.142506
O1    O     O_R   0.614690 0.316790 0.499990 -0.619069
O2    O     O_3   0.282295 0.518450 0.893618 -0.641830
O3    O     O_R   0.385350 0.316760 0.500000 -0.619855
O4    O     O_R   0.627460 0.498860 0.616130 -0.625142
O5    O     O_R   0.398120 0.498820 0.616130 -0.625699
O6    O     O_R   0.614650 0.683240 0.500000 -0.570970
O7    O     O_R   0.385310 0.683210 0.500010 -0.629062
O8    O     O_R   0.601880 0.501180 0.383870 -0.605623
O9    O     O_R   0.372540 0.501140 0.383870 -0.619885
O10   O     O_3   0.846079 0.666817 0.406896 -0.628548
Zn1   Zn    Zn3+2 0.653130 0.500020 0.499990 0.976182
Zn2   Zn    Zn3+2 0.346870 0.499980 0.500010 0.940999

loop_
_geom_bond_atom_site_label_1
_geom_bond_atom_site_label_2
_ccdc_geom_bond_type
C9    H28   S    
C7    C36   A    
C19   C20   A    
C34   H6    S    
C28   O2    S    
C28   H20   S    
C7    C8    S    
C26   C27   S    
C29   C30   S    
C28   C29   S    
C34   C35   A    
C26   H14   S    
C8    H23   S    
O7    Zn2   S    
C11   N3    A    
O3    Zn2   S    
C10   C17   S    
C24   H18   S    
C18   O9    A    
C1    C2    S    
C4    C19   S    
O6    Zn1   S    
C8    C9    S    
C30   H24   S    
C9    C36   S    
C31   C33   A    
C35   H7    S    
C25   H11   S    
C22   N1    S    
C11   H30   S    
C10   N3    A    
C21   C22   A    
O8    Zn1   S    
O4    Zn1   S    
C20   H8    S    
C28   H19   S    
C27   H15   S    
C5    H12   S    
C1    O3    A    
C32   C35   A    
C10   C14   A    
C26   H13   S    
C32   N2    S    
O5    Zn2   S    
C25   C26   S    
C13   O10   S    
C3    H9    S    
C31   H1    S    
C17   H4    S    
C23   C31   A    
C12   H5    S    
C15   H31   S    
C33   C34   A    
C29   H22   S    
C29   H21   S    
C30   H26   S    
C25   O10   S    
C22   C24   A    
O9    Zn2   S    
C27   H16   S    
N3    Zn2   S    
C2    C36   A    
C15   C17   S    
C14   N4    A    
C3    C5    A    
C27   H17   S    
C6    C7    A    
C13   N4    A    
C12   C24   A    
C16   O7    A    
C1    O1    A    
C23   C32   A    
C2    C3    A    
C4    O5    A    
C11   C13   A    
C5    C6    A    
C23   H3    S    
C15   H32   S    
C21   O2    S    
C12   C19   A    
C16   O6    A    
C17   H2    S    
N1    N2    D    
C18   C33   S    
C9    H29   S    
C4    O4    A    
N4    Zn1   S    
C8    H27   S    
C6    C16   S    
C20   C21   A    
C18   O8    A    
C30   H25   S    
C14   C15   S    
C25   H10   S    
O1    Zn1   S    
