data_mof_unit_8642.cif
_audit_creation_date              2012-12-10T17:48:45-0500
_audit_creation_method            fapswitch 2.2
_symmetry_space_group_name_H-M    P1
_symmetry_Int_Tables_number       1
_space_group_crystal_system       triclinic
_cell_length_a                    15.703409
_cell_length_b                    10.718405
_cell_length_c                    9.990595
_cell_angle_alpha                 88.354473
_cell_angle_beta                  87.862965
_cell_angle_gamma                 94.811887
_cell_volume                      1673.62339915

loop_
_atom_site_label
_atom_site_type_symbol
_atom_type_description
_atom_site_fract_x
_atom_site_fract_y
_atom_site_fract_z
_atom_type_partial_charge
C1    C     C_R   0.512533 0.263097 0.500652 0.867780
C2    C     C_R   0.534090 0.038798 0.866929 -0.178643
C3    C     C_R   0.485276 0.924506 0.861804 -0.183039
C4    C     C_R   0.338679 0.501883 0.501683 0.900540
C5    C     C_R   0.455849 0.883306 0.739080 0.065157
C6    C     C_R   0.493129 0.941067 0.619113 -0.002603
C7    C     C_R   0.526162 0.065236 0.625433 0.041018
C8    C     C_R   0.536730 0.134389 0.503877 -0.196412
C9    C     C_R   0.564414 0.072792 0.387769 0.126882
C10   C     C_R   0.566787 0.941694 0.399072 0.116794
C11   C     C_R   0.512250 0.877131 0.499835 -0.226867
C12   C     C_3   0.944060 0.494028 0.643288 -0.422350
C13   C     C_R   0.399983 0.321867 0.162146 -0.221030
C14   C     C_R   0.365809 0.211813 0.115846 -0.274577
C15   C     C_R   0.366607 0.191433 0.980410 0.181746
C16   C     C_R   0.500476 0.740996 0.499151 0.882276
C17   C     C_R   0.393453 0.296484 0.890525 0.103231
C18   C     C_R   0.449851 0.403069 0.937279 0.101940
C19   C     C_R   0.450599 0.408784 0.081181 0.144701
C20   C     C_R   0.548865 0.585048 0.064820 -0.132805
C21   C     C_R   0.548105 0.586646 0.922768 -0.115835
C22   C     C_R   0.661557 0.502216 0.497710 0.871396
C23   C     C_3   0.917721 0.508196 0.496081 0.344430
C24   C     C_3   0.042588 0.493490 0.648467 -0.130926
C25   C     C_3   0.046928 0.399613 0.419630 -0.431830
C26   C     C_3   0.948798 0.398471 0.415432 -0.399555
C27   C     C_1   0.750721 0.504789 0.493116 -0.195678
C28   C     C_3   0.083083 0.510117 0.503368 0.315775
C29   C     C_1   0.077486 0.590506 0.738578 0.150066
C30   C     C_3   0.598552 0.143600 0.259852 -0.352171
C31   C     C_3   0.684909 0.216217 0.278544 -0.838589
C32   C     C_1   0.378727 0.799754 0.738698 0.161150
C33   C     C_3   0.648200 0.883410 0.351994 -0.326401
C34   C     C_3   0.960218 0.633444 0.434569 -0.404678
C35   C     C_3   0.659084 0.866631 0.201335 -0.893511
C36   C     C_3   0.314495 0.072512 0.937732 -0.389534
C37   C     C_3   0.312269 0.959311 0.036385 -0.872862
C38   C     C_3   0.327935 0.311932 0.786086 -0.327339
C39   C     C_3   0.269293 0.412714 0.828132 -0.779256
C40   C     C_3   0.058491 0.634027 0.437094 -0.385596
C41   C     C_1   0.826245 0.506756 0.492537 -0.112813
C42   C     C_1   0.174725 0.509174 0.504083 -0.125241
C43   C     C_1   0.249971 0.506353 0.504083 -0.164423
C44   C     C_R   0.549989 0.112958 0.750294 -0.134854
H1    H     H_    0.913398 0.404660 0.689175 0.155537
H2    H     H_    0.332752 0.146133 0.188295 0.176960
H3    H     H_    0.587755 0.658055 0.865388 0.150115
H4    H     H_    0.075245 0.408222 0.315562 0.180654
H5    H     H_    0.064106 0.309030 0.464001 0.164282
H6    H     H_    0.918604 0.307540 0.458090 0.166947
H7    H     H_    0.929814 0.406763 0.309479 0.174140
H8    H     H_    0.084934 0.716012 0.492774 0.177066
H9    H     H_    0.086237 0.644775 0.332793 0.173325
H10   H     H_    0.938867 0.713434 0.492066 0.168335
H11   H     H_    0.682122 0.275529 0.367184 0.260043
H12   H     H_    0.919833 0.571173 0.702574 0.171498
H13   H     H_    0.735155 0.150743 0.292612 0.239450
H14   H     H_    0.702933 0.277064 0.188398 0.244755
H15   H     H_    0.604886 0.080232 0.176580 0.195395
H16   H     H_    0.552574 0.205461 0.219146 0.231571
H17   H     H_    0.694344 0.782825 0.183224 0.241659
H18   H     H_    0.596168 0.857491 0.153784 0.256045
H19   H     H_    0.699886 0.946286 0.153366 0.247246
H20   H     H_    0.704567 0.942186 0.385662 0.189740
H21   H     H_    0.653143 0.791127 0.403178 0.189825
H22   H     H_    0.373741 0.955335 0.086782 0.256593
H23   H     H_    0.940800 0.646478 0.329377 0.171615
H24   H     H_    0.260819 0.964864 0.114853 0.244610
H25   H     H_    0.297788 0.871219 0.982947 0.264548
H26   H     H_    0.246651 0.092314 0.927529 0.201923
H27   H     H_    0.339677 0.045479 0.838548 0.209982
H28   H     H_    0.237073 0.385526 0.926859 0.229769
H29   H     H_    0.218630 0.420865 0.755326 0.237205
H30   H     H_    0.305735 0.504711 0.838465 0.287044
H31   H     H_    0.356304 0.310037 0.685445 0.227362
H32   H     H_    0.282386 0.229790 0.773660 0.143469
H33   H     H_    0.585557 0.203301 0.757383 0.162433
H34   H     H_    0.554955 0.073327 0.961773 0.135441
H35   H     H_    0.467430 0.870830 0.953214 0.144377
H36   H     H_    0.590135 0.652496 0.112868 0.151342
H37   H     H_    0.057729 0.401414 0.691721 0.115639
H38   H     H_    0.386352 0.333075 0.264970 0.230179
N1    N     N_R   0.499210 0.498800 0.142780 -0.108410
N2    N     N_R   0.499180 0.498720 0.857170 -0.108470
N3    N     N_1   0.104849 0.666345 0.809140 -0.206481
N4    N     N_1   0.316266 0.734454 0.738069 -0.207960
O1    O     O_R   0.500000 0.316780 0.614690 -0.642061
O2    O     O_R   0.499990 0.316750 0.385360 -0.640434
O3    O     O_R   0.377150 0.500020 0.614720 -0.600197
O4    O     O_R   0.377140 0.499990 0.385380 -0.637823
O5    O     O_R   0.500010 0.683250 0.614640 -0.614524
O6    O     O_R   0.500000 0.683220 0.385310 -0.595851
O7    O     O_R   0.622860 0.500010 0.614620 -0.615502
O8    O     O_R   0.622850 0.499980 0.385280 -0.610182
Zn1   Zn    Zn3+2 0.500010 0.500020 0.653130 0.935396
Zn2   Zn    Zn3+2 0.499990 0.499980 0.346870 0.928917

loop_
_geom_bond_atom_site_label_1
_geom_bond_atom_site_label_2
_ccdc_geom_bond_type
C1    O1    A    
O2    Zn2   S    
C37   H25   S    
C1    C8    S    
C3    H35   S    
C33   H21   S    
C7    C8    A    
C14   H2    S    
C38   H32   S    
C25   C28   S    
C12   C23   S    
C34   C40   S    
C31   H14   S    
C36   C37   S    
C26   H6    S    
C30   C31   S    
C39   H30   S    
C28   C40   S    
C37   H24   S    
O6    Zn2   S    
C18   C19   A    
C23   C26   S    
C24   C29   S    
C2    C44   A    
C8    C9    A    
C30   H16   S    
C18   N2    A    
C39   H28   S    
C10   C33   S    
C9    C10   A    
C29   N3    T    
C36   H27   S    
C5    C32   S    
C1    O2    A    
O7    Zn1   S    
C13   C14   A    
C30   H15   S    
C22   O8    A    
C19   N1    A    
C36   H26   S    
C4    O4    A    
C38   H31   S    
C38   C39   S    
C20   H36   S    
C6    C11   A    
C13   C19   A    
C25   C26   S    
C40   H8    S    
C13   H38   S    
O1    Zn1   S    
N2    Zn1   S    
O3    Zn1   S    
C24   H37   S    
C2    H34   S    
C11   C16   S    
C27   C41   T    
C21   N2    A    
C23   C34   S    
C32   N4    T    
C37   H22   S    
C17   C18   A    
C35   H17   S    
C7    C44   A    
O8    Zn2   S    
C25   H4    S    
C12   H12   S    
C9    C30   S    
C16   O6    A    
C22   C27   S    
C22   O7    A    
C42   C43   T    
C15   C36   S    
C4    O3    A    
C15   C17   A    
C44   H33   S    
C24   C28   S    
C12   H1    S    
C3    C5    A    
C34   H23   S    
O4    Zn2   S    
C6    C7    A    
C4    C43   S    
C12   C24   S    
C23   C41   S    
C31   H13   S    
C2    C3    A    
C26   H7    S    
C34   H10   S    
C5    C6    A    
C33   H20   S    
N1    Zn2   S    
C28   C42   S    
C33   C35   S    
C35   H18   S    
C17   C38   S    
C39   H29   S    
C25   H5    S    
C10   C11   A    
O5    Zn1   S    
C20   C21   A    
C16   O5    A    
C40   H9    S    
C20   N1    A    
C14   C15   A    
C35   H19   S    
C31   H11   S    
C21   H3    S    
