data_mof_unit_39084.cif
_audit_creation_date              2012-12-11T15:29:31-0500
_audit_creation_method            fapswitch 2.2
_symmetry_space_group_name_H-M    P1
_symmetry_Int_Tables_number       1
_space_group_crystal_system       triclinic
_cell_length_a                    13.48659
_cell_length_b                    13.505173
_cell_length_c                    27.580998
_cell_angle_alpha                 90.692999
_cell_angle_beta                  90.115897
_cell_angle_gamma                 60.005205
_cell_volume                      4350.40045631

loop_
_atom_site_label
_atom_site_type_symbol
_atom_type_description
_atom_site_fract_x
_atom_site_fract_y
_atom_site_fract_z
_atom_type_partial_charge
C1    C     C_R   0.620350 0.101169 0.569919 0.546620
C2    C     C_1   0.630820 0.732835 0.616073 -0.013598
C3    C     C_3   0.711365 0.560555 0.767004 -0.131585
C4    C     C_3   0.678079 0.657188 0.804804 0.063851
C5    C     C_3   0.598910 0.637794 0.739406 -0.121026
C6    C     C_3   0.662200 0.685661 0.710215 0.025775
C7    C     C_3   0.565875 0.734038 0.777846 -0.133535
C8    C     C_3   0.628795 0.782568 0.747858 -0.086793
C9    C     C_1   0.687262 0.635539 0.856945 -0.010167
C10   C     C_1   0.648709 0.706354 0.658043 -0.054235
C11   C     C_3   0.080021 0.150762 0.736692 -0.104404
C12   C     C_R   0.599717 0.779446 0.568489 0.545253
C13   C     C_3   0.166304 0.067614 0.773746 0.311399
C14   C     C_1   0.098086 0.199639 0.900376 0.000312
C15   C     C_1   0.230305 0.137552 0.617156 -0.014453
C16   C     C_3   0.063224 0.252465 0.769384 -0.135485
C17   C     C_3   0.149193 0.167518 0.806104 0.072676
C18   C     C_3   0.163613 0.254933 0.743243 -0.111044
C19   C     C_3   0.180748 0.153114 0.711424 0.007631
C20   C     C_3   0.249151 0.170219 0.780632 -0.136180
C21   C     C_3   0.267522 0.067824 0.748044 -0.103571
C22   C     C_1   0.126260 0.180426 0.858359 -0.014186
C23   C     C_R   0.277896 0.121662 0.569396 0.546112
C24   C     C_1   0.202883 0.145994 0.659194 -0.059724
C25   C     C_3   0.674706 0.253502 0.738079 -0.110060
C26   C     C_3   0.576497 0.280770 0.774432 -0.104370
C27   C     C_1   0.691178 0.206289 0.901510 -0.002007
C28   C     C_1   0.635534 0.132965 0.617940 -0.014942
C29   C     C_3   0.760463 0.157564 0.771617 -0.105022
C30   C     C_3   0.662126 0.184525 0.807161 0.054244
C31   C     C_3   0.736286 0.069963 0.745322 -0.085967
C32   C     C_3   0.650695 0.166111 0.712530 0.045181
C33   C     C_3   0.638169 0.097113 0.781604 -0.083866
C34   C     C_R   0.622140 0.099965 0.431547 0.545454
C35   C     C_3   0.552280 0.193063 0.748033 -0.109981
C36   C     C_1   0.673917 0.195180 0.859469 -0.040854
C37   C     C_1   0.643855 0.151534 0.660149 -0.057988
C38   C     C_R   0.642075 0.715992 0.384386 0.023379
C39   C     C_R   0.730242 0.721169 0.359811 -0.132228
C40   C     C_R   0.746227 0.696854 0.310655 -0.129313
C41   C     C_R   0.675832 0.665054 0.285647 0.038254
C42   C     C_R   0.596432 0.647267 0.311304 -0.120031
C43   C     C_R   0.579190 0.673182 0.360523 -0.129911
C44   C     C_R   0.581372 0.693476 0.205392 -0.125488
C45   C     C_R   0.602252 0.775915 0.430752 0.538681
C46   C     C_R   0.588391 0.675988 0.155491 -0.130646
C47   C     C_R   0.794257 0.596605 0.159306 -0.125271
C48   C     C_R   0.787630 0.611034 0.209110 -0.124329
C49   C     C_R   0.681655 0.656232 0.232695 0.032419
C50   C     C_R   0.695538 0.623177 0.132521 0.021347
C51   C     C_R   0.234173 0.133027 0.381998 0.027514
C52   C     C_R   0.280766 0.036661 0.351145 -0.117059
C53   C     C_R   0.258252 0.049227 0.301949 -0.082382
C54   C     C_R   0.184975 0.157527 0.283218 0.061485
C55   C     C_R   0.135600 0.253876 0.314071 -0.109518
C56   C     C_R   0.280098 0.119507 0.430771 0.539513
C57   C     C_R   0.161156 0.241808 0.363348 -0.126544
C58   C     C_R   0.179488 0.248574 0.205370 -0.158994
C59   C     C_R   0.150230 0.267626 0.156621 -0.142365
C60   C     C_R   0.093610 0.123193 0.158394 -0.090703
C61   C     C_R   0.119798 0.105894 0.207248 0.165263
C62   C     C_R   0.161776 0.169903 0.231234 0.036986
C63   C     C_R   0.104178 0.207056 0.133230 -0.010452
C64   C     C_R   0.642354 0.136334 0.384636 -0.021024
C65   C     C_R   0.552701 0.229951 0.361336 -0.144203
C66   C     C_R   0.561644 0.247541 0.312503 -0.177191
C67   C     C_3   0.774612 0.608731 0.736970 -0.080582
C68   C     C_R   0.659738 0.171358 0.286016 0.041957
C69   C     C_R   0.752545 0.079255 0.309534 0.286929
C70   C     C_R   0.744213 0.065580 0.359363 -0.111869
C71   C     C_R   0.698746 0.096641 0.200870 -0.064348
C72   C     C_R   0.711225 0.111922 0.151923 -0.117868
C73   C     C_R   0.638137 0.314098 0.167464 -0.124491
C74   C     C_R   0.629137 0.298099 0.216496 -0.120930
C75   C     C_R   0.662604 0.188640 0.233722 0.067175
C76   C     C_R   0.683194 0.220314 0.135269 0.024987
C77   C     C_R   0.049929 0.234742 0.947999 0.543894
C78   C     C_3   0.740674 0.704784 0.775356 0.197458
C79   C     C_R   0.711888 0.561927 0.946453 0.546051
C80   C     C_R   0.722494 0.224003 0.949143 0.545543
C81   C     C_R   0.047968 0.243776 0.086267 0.542586
C82   C     C_R   0.709672 0.571465 0.084569 0.539876
C83   C     C_R   0.719716 0.233481 0.087357 0.540920
C84   C     C_1   0.696730 0.608413 0.898851 0.006731
Cr1   Cr    Cr6+3 0.417550 0.169090 0.500530 1.022420
Cr2   Cr    Cr6+3 0.669180 0.913420 0.499920 1.019867
Cr3   Cr    Cr6+3 0.413260 0.917540 0.499520 1.022466
Cr4   Cr    Cr6+3 0.909770 0.175810 0.018240 1.042902
Cr5   Cr    Cr6+3 0.913300 0.427650 0.016090 1.036156
Cr6   Cr    Cr6+3 0.657770 0.431010 0.016900 1.029452
H1    H     H_    0.317868 0.178628 0.799080 0.110889
H2    H     H_    0.162134 0.332874 0.729885 0.124790
H3    H     H_    0.979723 0.328837 0.778824 0.113385
H4    H     H_    0.510552 0.367431 0.787039 0.110626
H5    H     H_    0.689951 0.317481 0.719762 0.103313
H6    H     H_    0.466393 0.207750 0.737666 0.108074
H7    H     H_    0.622946 0.033131 0.799927 0.140192
H8    H     H_    0.801965 0.983204 0.732733 0.137550
H9    H     H_    0.846102 0.143339 0.782116 0.116311
H10   H     H_    0.780330 0.753525 0.377453 0.124945
H11   H     H_    0.860296 0.557334 0.719846 0.121622
H12   H     H_    0.498056 0.732797 0.222734 0.112843
H13   H     H_    0.511236 0.697698 0.135361 0.132826
H14   H     H_    0.808534 0.710237 0.291718 0.090502
H15   H     H_    0.866359 0.581194 0.229217 0.102087
H16   H     H_    0.878353 0.555042 0.142569 0.138560
H17   H     H_    0.544363 0.618178 0.292963 0.104214
H18   H     H_    0.511884 0.666815 0.379045 0.128645
H19   H     H_    0.340514 0.952252 0.364478 0.136104
H20   H     H_    0.212862 0.297544 0.223330 0.111233
H21   H     H_    0.158885 0.332973 0.137910 0.136234
H22   H     H_    0.595334 0.874089 0.739484 0.113438
H23   H     H_    0.299627 0.974651 0.278321 0.138064
H24   H     H_    0.056661 0.076631 0.141203 0.169245
H25   H     H_    0.078986 0.338199 0.299848 0.109436
H26   H     H_    0.126443 0.317084 0.386596 0.120410
H27   H     H_    0.473085 0.286078 0.380063 0.142363
H28   H     H_    0.719739 0.012663 0.213196 0.117337
H29   H     H_    0.745942 0.038882 0.127386 0.121834
H30   H     H_    0.489430 0.317951 0.294822 0.111253
H31   H     H_    0.600545 0.370333 0.241213 0.109637
H32   H     H_    0.480218 0.785681 0.794981 0.124309
H33   H     H_    0.617811 0.398236 0.155378 0.137660
H34   H     H_    0.815049 0.995500 0.377701 0.129217
H35   H     H_    0.540700 0.609726 0.724014 0.110294
H36   H     H_    0.745082 0.469012 0.775410 0.103020
H37   H     H_    0.011097 0.143063 0.718108 0.093802
H38   H     H_    0.350853 0.991075 0.738748 0.097173
O1    O     O_R   0.301780 0.195490 0.553940 -0.506723
O2    O     O_R   0.658840 0.818280 0.449970 -0.505636
O3    O     O_R   0.503160 0.801780 0.445740 -0.523702
O4    O     O_R   0.319320 0.022190 0.450230 -0.502522
O5    O     O_3   0.499990 0.000010 0.499990 -0.246123
O6    O     O_R   0.819250 0.149410 0.965240 -0.497165
O7    O     O_R   0.006940 0.180310 0.968270 -0.489204
O8    O     O_R   0.028420 0.332670 0.963010 -0.503031
O9    O     O_R   0.810130 0.520390 0.966030 -0.486119
O10   O     O_R   0.636050 0.541380 0.962520 -0.507712
O11   O     O_R   0.666480 0.323610 0.968170 -0.496900
O12   O     O_R   0.522450 0.158840 0.550250 -0.494429
O13   O     O_R   0.817280 0.156800 0.072180 -0.508832
O14   O     O_R   0.005110 0.187160 0.067410 -0.504737
O15   O     O_R   0.026450 0.340060 0.069950 -0.519617
O16   O     O_R   0.808300 0.527240 0.065170 -0.505170
O17   O     O_R   0.634070 0.548770 0.069460 -0.518922
O18   O     O_R   0.664650 0.330470 0.067300 -0.504952
O19   O     O_3   0.826940 0.344820 0.017080 -0.252462
O20   O     O_R   0.694460 0.003360 0.553820 -0.505984
O21   O     O_R   0.657750 0.819520 0.549120 -0.493297
O22   O     O_R   0.501990 0.803120 0.552700 -0.508521
O23   O     O_R   0.318230 0.023430 0.549370 -0.494601
O24   O     O_R   0.302950 0.194150 0.446980 -0.518237
O25   O     O_R   0.523540 0.157600 0.451100 -0.500590
O26   O     O_R   0.695630 0.002030 0.446860 -0.524384
Br1   Br    Br    0.842261 0.754645 0.801285 -0.586827
Br2   Br    Br    0.082099 0.004682 0.240022 -0.544586
O27   O     O_3   0.852795 0.007902 0.284123 -0.519262
C85   C     C_3   0.883641 0.891164 0.288198 0.013196
H39   H     H_    0.890932 0.855694 0.250981 0.148209
H40   H     H_    0.819104 0.877243 0.307512 0.096331
C86   C     C_3   0.000452 0.823656 0.312785 -0.238830
H41   H     H_    0.066781 0.826436 0.290104 0.222591
H42   H     H_    0.998827 0.862542 0.348681 0.168621
C87   C     C_3   0.034104 0.698751 0.319640 -0.498769
H43   H     H_    0.973813 0.692430 0.344998 0.143043
H44   H     H_    0.121490 0.651315 0.335187 0.150675
H45   H     H_    0.033911 0.658459 0.284305 0.142875
O28   O     O_3   0.168151 0.970548 0.793191 -0.565460
C88   C     C_3   0.181571 0.891571 0.756037 0.001347
H46   H     H_    0.250426 0.805721 0.767329 0.151008
H47   H     H_    0.208370 0.908366 0.720214 0.116227
C89   C     C_3   0.070143 0.888763 0.750269 -0.253408
H48   H     H_    0.044064 0.871087 0.785871 0.212983
H49   H     H_    0.001463 0.973265 0.737764 0.147102
C90   C     C_3   0.083532 0.797283 0.713631 -0.465183
H50   H     H_    0.107310 0.814644 0.677482 0.144298
H51   H     H_    0.001246 0.797707 0.710324 0.178413
H52   H     H_    0.150511 0.711371 0.725739 0.157608

loop_
_geom_bond_atom_site_label_1
_geom_bond_atom_site_label_2
_ccdc_geom_bond_type
C44   C49   A    
C58   C62   A    
C66   C68   A    
C8    C78   S    
C26   H4    S    
O27   C85   S    
C73   C74   A    
Cr3   O5    S    
C60   H24   S    
C81   O14   A    
C72   C76   A    
C2    C12   S    
C82   O17   A    
Cr6   O11   S    
C3    H36   S    
C7    C8    S    
C90   H51   S    
C35   H6    S    
C52   C53   A    
C68   C75   S    
C6    C67   S    
C11   C19   S    
C16   H3    S    
C86   H42   S    
C63   C81   S    
C60   C63   A    
C28   C37   T    
C87   H43   S    
C19   C21   S    
C18   C19   S    
Cr6   O17   S    
C8    H22   S    
C5    C6    S    
C78   Br1   S    
C31   H8    S    
C17   C20   S    
C80   O6    A    
C23   O1    A    
C51   C56   S    
C41   C42   A    
C14   C77   S    
Cr3   O3    S    
C38   C45   S    
C85   C86   S    
Cr1   O1    S    
C48   H15   S    
C41   C49   S    
C47   C48   A    
C44   C46   A    
C16   C17   S    
C73   H33   S    
Cr3   O22   S    
C1    C28   S    
C59   H21   S    
C31   C33   S    
C51   C57   A    
C77   O8    A    
C64   C70   A    
C47   C50   A    
C42   H17   S    
C18   C20   S    
C30   C33   S    
C89   C90   S    
C25   C32   S    
C15   C23   S    
C45   O2    A    
Cr5   O8    S    
Cr3   O23   S    
C85   H40   S    
C88   H47   S    
C61   C62   A    
C67   C78   S    
C4    C7    S    
C76   C83   S    
Cr4   O14   S    
Cr6   O10   S    
C53   H23   S    
C86   H41   S    
C90   H52   S    
C34   O26   A    
C25   C29   S    
C57   H26   S    
C20   H1    S    
C3    C67   S    
Cr6   O19   S    
C74   C75   A    
C29   H9    S    
C51   C52   A    
C32   C35   S    
C12   O22   A    
C38   C39   A    
C82   O16   A    
C27   C80   S    
Cr2   O21   S    
C39   C40   A    
C5    C7    S    
C44   H12   S    
C68   C69   A    
C13   O28   S    
C6    C8    S    
C54   C62   S    
C50   C82   S    
C25   C26   S    
C53   C54   A    
C60   C61   A    
Cr3   O4    S    
C11   H37   S    
C4    C78   S    
C29   C30   S    
C40   H14   S    
C83   O18   A    
C11   C16   S    
Cr2   O5    S    
C69   O27   S    
C31   C32   S    
C47   H16   S    
C79   O10   A    
C34   C64   S    
C13   C21   S    
C88   H46   S    
Cr1   O25   S    
C32   C37   S    
C20   C21   S    
C21   H38   S    
Cr1   O12   S    
C56   O4    A    
C1    O12   A    
C16   C18   S    
O28   C88   S    
C79   O9    A    
C45   O3    A    
Cr5   O9    S    
C55   C57   A    
C85   H39   S    
C88   C89   S    
C56   O24   A    
C42   C43   A    
C7    H32   S    
C3    C4    S    
Cr5   O16   S    
C61   Br2   S    
Cr4   O13   S    
C86   C87   S    
C89   H48   S    
C67   H11   S    
C83   O13   A    
C34   O25   A    
Cr5   O19   S    
C23   O23   A    
C54   C55   A    
C15   C24   T    
C71   H28   S    
C58   H20   S    
C12   O21   A    
C87   H45   S    
Cr2   O2    S    
Cr4   O7    S    
C89   H49   S    
C3    C5    S    
Cr2   O20   S    
C6    C10   S    
C25   H5    S    
C13   C17   S    
C27   C36   T    
C80   O11   A    
C46   H13   S    
C46   C50   A    
C59   C63   A    
C17   C22   S    
C30   C36   S    
C18   H2    S    
C64   C65   A    
C14   C22   T    
C87   H44   S    
C19   C24   S    
C58   C59   A    
Cr1   O24   S    
Cr4   O6    S    
C38   C43   A    
Cr6   O18   S    
C90   H50   S    
Cr5   O15   S    
C71   C75   A    
C11   C13   S    
C39   H10   S    
C79   C84   S    
C55   H25   S    
C52   H19   S    
C48   C49   A    
C72   H29   S    
C33   C35   S    
Cr4   O19   S    
C33   H7    S    
C43   H18   S    
Cr2   O26   S    
C69   C70   A    
C66   H30   S    
C9    C84   T    
C70   H34   S    
C26   C35   S    
C81   O15   A    
C74   H31   S    
C71   C72   A    
C73   C76   A    
C29   C31   S    
C65   C66   A    
C5    H35   S    
C65   H27   S    
C1    O20   A    
C40   C41   A    
C77   O7    A    
C4    C9    S    
Cr1   O5    S    
C26   C30   S    
C2    C10   T    
