data_mof_unit_53019.cif
_audit_creation_date              2012-12-11T15:32:07-0500
_audit_creation_method            fapswitch 2.2
_symmetry_space_group_name_H-M    P1
_symmetry_Int_Tables_number       1
_space_group_crystal_system       triclinic
_cell_length_a                    13.566904
_cell_length_b                    13.595169
_cell_length_c                    27.66395
_cell_angle_alpha                 90.471493
_cell_angle_beta                  90.220675
_cell_angle_gamma                 119.978091
_cell_volume                      4419.49821531

loop_
_atom_site_label
_atom_site_type_symbol
_atom_type_description
_atom_site_fract_x
_atom_site_fract_y
_atom_site_fract_z
_atom_type_partial_charge
C1    C     C_R   0.619549 0.898187 0.431349 0.548070
C2    C     C_R   0.202060 0.942596 0.262346 0.167513
C3    C     C_R   0.186142 0.931861 0.211869 -0.067562
C4    C     C_R   0.599733 0.218624 0.431369 0.544216
C5    C     C_R   0.133364 0.733563 0.215547 -0.119629
C6    C     C_R   0.149012 0.743020 0.265590 -0.133948
C7    C     C_R   0.183273 0.846703 0.289318 0.041934
C8    C     C_R   0.152226 0.827854 0.188542 0.003622
C9    C     C_1   0.128135 0.814347 0.137418 -0.058886
C10   C     C_1   0.205495 0.854142 0.340647 -0.065167
C11   C     C_1   0.098913 0.795322 0.095567 -0.011602
C12   C     C_R   0.635880 0.401293 0.219290 -0.092882
C13   C     C_1   0.635487 0.864241 0.384136 -0.019790
C14   C     C_R   0.555722 0.739675 0.265105 0.013613
C15   C     C_R   0.565206 0.732846 0.214411 -0.091691
C16   C     C_R   0.279534 0.878822 0.430536 0.545738
C17   C     C_R   0.759120 0.889881 0.217512 -0.113855
C18   C     C_R   0.751552 0.897762 0.267473 -0.119642
C19   C     C_R   0.650916 0.823827 0.291466 0.037089
C20   C     C_R   0.665961 0.808235 0.190830 0.022023
C21   C     C_1   0.677402 0.797509 0.139572 -0.061277
C22   C     C_1   0.644099 0.842705 0.342522 -0.069263
C23   C     C_R   0.625682 0.385646 0.269510 0.162394
C24   C     C_1   0.693767 0.787045 0.097499 -0.013671
C25   C     C_R   0.636269 0.270948 0.617108 0.025177
C26   C     C_R   0.713423 0.250104 0.642756 -0.130165
C27   C     C_R   0.721910 0.262476 0.692404 -0.136838
C28   C     C_R   0.620885 0.901535 0.569111 0.539298
C29   C     C_R   0.656922 0.300242 0.717002 0.025854
C30   C     C_R   0.587071 0.330522 0.691007 -0.132880
C31   C     C_R   0.576179 0.315198 0.641216 -0.132367
C32   C     C_R   0.568150 0.288035 0.796572 -0.140652
C33   C     C_R   0.579324 0.316044 0.845337 -0.140833
C34   C     C_R   0.664848 0.318155 0.291478 0.065168
C35   C     C_R   0.780542 0.376594 0.841635 -0.132590
C36   C     C_R   0.769668 0.350690 0.792847 -0.133203
C37   C     C_R   0.664386 0.310861 0.769600 0.025262
C38   C     C_R   0.686960 0.366038 0.867393 0.018168
C39   C     C_R   0.250230 0.874284 0.618983 0.028121
C40   C     C_R   0.601226 0.221827 0.568894 0.541206
C41   C     C_R   0.154947 0.879253 0.634213 -0.147100
C42   C     C_R   0.132592 0.875914 0.683464 -0.146790
C43   C     C_R   0.207481 0.871891 0.717562 0.032799
C44   C     C_R   0.307003 0.872385 0.702211 0.003497
C45   C     C_R   0.681844 0.348276 0.191005 0.012842
C46   C     C_R   0.326340 0.872404 0.652791 -0.104109
C47   C     C_R   0.135831 0.740377 0.784844 -0.147944
C48   C     C_R   0.100895 0.712203 0.832034 -0.141035
C49   C     C_R   0.134234 0.902675 0.846762 -0.119388
C50   C     C_R   0.171514 0.933403 0.798879 0.000209
C51   C     C_R   0.171937 0.849910 0.768107 0.032829
C52   C     C_R   0.281186 0.882122 0.568506 0.533809
C53   C     C_R   0.098310 0.792364 0.863191 0.005622
C54   C     C_R   0.643603 0.866022 0.615639 -0.006236
C55   C     C_R   0.565026 0.761209 0.635248 -0.156101
C56   C     C_1   0.692234 0.367035 0.139704 -0.055828
C57   C     C_R   0.576222 0.737774 0.683096 -0.171393
C58   C     C_R   0.666475 0.818220 0.711786 0.050493
C59   C     C_R   0.747135 0.923380 0.692095 0.134888
C60   C     C_R   0.735704 0.945368 0.643950 -0.120683
C61   C     C_R   0.665377 0.872394 0.796726 -0.108781
C62   C     C_R   0.676801 0.861225 0.845933 -0.149469
C63   C     C_R   0.687403 0.691248 0.829446 -0.110422
C64   C     C_1   0.631605 0.266376 0.384140 -0.013775
C65   C     C_R   0.681712 0.704231 0.779710 -0.011203
C66   C     C_R   0.669629 0.796098 0.763324 0.053608
C67   C     C_1   0.650286 0.294645 0.342481 -0.028026
C68   C     C_R   0.687489 0.770491 0.862202 0.022436
C69   C     C_R   0.049586 0.761290 0.048157 0.546358
C70   C     C_R   0.714290 0.435822 0.049716 0.545223
C71   C     C_R   0.723727 0.770717 0.049614 0.545831
C72   C     C_R   0.042949 0.755165 0.910161 0.539288
C73   C     C_R   0.707412 0.427524 0.912909 0.535517
C74   C     C_R   0.717301 0.764501 0.911894 0.535675
C75   C     C_R   0.711884 0.266288 0.263008 -0.142712
C76   C     C_R   0.720393 0.281267 0.212955 -0.119852
C77   C     C_3   0.210940 0.052125 0.779703 -0.254847
C78   C     C_1   0.701401 0.391664 0.097567 -0.011994
C79   C     C_3   0.208664 0.137282 0.815949 -0.313063
C80   C     C_3   0.245485 0.251567 0.792356 -0.455879
C81   C     C_3   0.394017 0.873979 0.737338 -0.250348
C82   C     C_3   0.471248 0.993400 0.759186 -0.280519
C83   C     C_3   0.472280 0.992331 0.814425 -0.448589
C84   C     C_3   0.698913 0.625200 0.746082 -0.256723
C85   C     C_3   0.818679 0.684998 0.724394 -0.299573
C86   C     C_3   0.841774 0.602280 0.695839 -0.442850
C87   C     C_3   0.929512 0.998543 0.732847 -0.315240
C88   C     C_3   0.457252 0.364824 0.307832 -0.302051
C89   C     C_1   0.232571 0.862771 0.382697 -0.022213
C90   C     C_3   0.157431 0.088267 0.284987 -0.319972
C91   C     C_3   0.446891 0.660769 0.292028 -0.252968
C92   C     C_3   0.348766 0.570399 0.260904 -0.313359
C93   C     C_3   0.245497 0.495147 0.291781 -0.453031
Cr1   Cr    Cr6+3 0.417720 0.831920 0.499820 1.016881
Cr2   Cr    Cr6+3 0.668190 0.085770 0.500360 1.015764
Cr3   Cr    Cr6+3 0.414060 0.082260 0.499840 1.022011
Cr4   Cr    Cr6+3 0.908000 0.821090 0.979770 1.019841
Cr5   Cr    Cr6+3 0.912420 0.571130 0.979880 1.017453
Cr6   Cr    Cr6+3 0.657970 0.566940 0.980940 1.020207
H1    H     H_    0.740906 0.213107 0.279504 0.114507
H2    H     H_    0.864599 0.414573 0.857910 0.128914
H3    H     H_    0.539265 0.363885 0.709195 0.096522
H4    H     H_    0.756836 0.240627 0.191443 0.118325
H5    H     H_    0.516675 0.332259 0.622022 0.125889
H6    H     H_    0.097130 0.882991 0.608170 0.107906
H7    H     H_    0.134330 0.676050 0.760929 0.109022
H8    H     H_    0.071194 0.625883 0.843429 0.129307
H9    H     H_    0.055249 0.873258 0.695064 0.099865
H10   H     H_    0.130836 0.962803 0.871483 0.121496
H11   H     H_    0.402661 0.873475 0.640401 0.122471
H12   H     H_    0.495370 0.669631 0.192749 0.105155
H13   H     H_    0.492033 0.699695 0.614393 0.133082
H14   H     H_    0.606610 0.453779 0.202265 0.107743
H15   H     H_    0.657969 0.943677 0.784382 0.136688
H16   H     H_    0.679308 0.923953 0.871082 0.110126
H17   H     H_    0.511148 0.658971 0.698471 0.105321
H18   H     H_    0.700400 0.623670 0.842754 0.125554
H19   H     H_    0.795787 0.027802 0.629639 0.123841
H20   H     H_    0.200596 0.004704 0.190824 0.118672
H21   H     H_    0.105796 0.652325 0.197917 0.120235
H22   H     H_    0.134886 0.669297 0.285840 0.112796
H23   H     H_    0.837938 0.947511 0.199656 0.111371
H24   H     H_    0.333403 0.289210 0.778426 0.144639
H25   H     H_    0.187120 0.241178 0.762003 0.145629
H26   H     H_    0.243162 0.311024 0.819473 0.147185
H27   H     H_    0.120913 0.103780 0.829779 0.162756
H28   H     H_    0.267261 0.150958 0.846734 0.157906
H29   H     H_    0.299120 0.087833 0.766455 0.143720
H30   H     H_    0.156721 0.044592 0.748226 0.140042
H31   H     H_    0.388215 0.973193 0.828537 0.170913
H32   H     H_    0.492233 0.927490 0.827825 0.147669
H33   H     H_    0.537948 0.076567 0.828635 0.159062
H34   H     H_    0.824131 0.962853 0.287445 0.106639
H35   H     H_    0.559597 0.026723 0.746152 0.156130
H36   H     H_    0.444926 0.054493 0.747002 0.170881
H37   H     H_    0.351040 0.809288 0.765660 0.152785
H38   H     H_    0.449072 0.847127 0.718458 0.129117
H39   H     H_    0.839366 0.536577 0.720112 0.165799
H40   H     H_    0.777715 0.560938 0.666404 0.167809
H41   H     H_    0.927527 0.648739 0.679488 0.148542
H42   H     H_    0.828069 0.752956 0.699662 0.169590
H43   H     H_    0.883447 0.724003 0.753817 0.168758
H44   H     H_    0.687526 0.549922 0.766359 0.150777
H45   H     H_    0.760478 0.215067 0.625170 0.130034
H46   H     H_    0.633628 0.591134 0.716972 0.138485
H47   H     H_    0.856885 0.092417 0.709925 0.235531
H48   H     H_    0.989934 0.071021 0.755940 0.143683
H49   H     H_    0.973271 0.997626 0.699133 0.127706
H50   H     H_    0.903097 0.919700 0.753369 0.167271
H51   H     H_    0.592693 0.515517 0.284328 0.249725
H52   H     H_    0.406247 0.342089 0.273826 0.143269
H53   H     H_    0.427938 0.409593 0.332490 0.136812
H54   H     H_    0.442833 0.286083 0.325851 0.173203
H55   H     H_    0.280557 0.062769 0.317854 0.256673
H56   H     H_    0.485465 0.252804 0.779518 0.100487
H57   H     H_    0.195685 0.174039 0.301937 0.132320
H58   H     H_    0.081380 0.028771 0.306014 0.148785
H59   H     H_    0.131212 0.093839 0.247500 0.145809
H60   H     H_    0.267234 0.448690 0.318703 0.146711
H61   H     H_    0.215556 0.547224 0.311036 0.155939
H62   H     H_    0.175384 0.432175 0.268271 0.141042
H63   H     H_    0.322838 0.612494 0.233401 0.165165
H64   H     H_    0.376541 0.515578 0.242373 0.156466
H65   H     H_    0.468294 0.616743 0.320359 0.149674
H66   H     H_    0.416520 0.713642 0.310436 0.159148
H67   H     H_    0.505597 0.305335 0.864867 0.129541
H68   H     H_    0.775667 0.237721 0.711593 0.097827
H69   H     H_    0.845530 0.369645 0.772899 0.098115
N1    N     N_2   0.832743 0.011546 0.721486 -0.528268
N2    N     N_2   0.576649 0.438198 0.297588 -0.516484
N3    N     N_2   0.239995 0.050493 0.284926 -0.524404
O1    O     O_R   0.302900 0.805360 0.446400 -0.507433
O2    O     O_R   0.638120 0.455970 0.034270 -0.507600
O3    O     O_R   0.667540 0.672320 0.030160 -0.494166
O4    O     O_R   0.522090 0.841370 0.450730 -0.495382
O5    O     O_R   0.814460 0.840990 0.926980 -0.509453
O6    O     O_R   0.001710 0.811400 0.930110 -0.503615
O7    O     O_R   0.023410 0.659800 0.926210 -0.521225
O8    O     O_R   0.806940 0.473170 0.931090 -0.507252
O9    O     O_R   0.633420 0.451310 0.927930 -0.521839
O10   O     O_R   0.663190 0.668000 0.931580 -0.502618
O11   O     O_3   0.826130 0.653050 0.980200 -0.246168
O12   O     O_R   0.657980 0.180990 0.549630 -0.508596
O13   O     O_R   0.693280 0.995650 0.447220 -0.506252
O14   O     O_R   0.657260 0.178740 0.451050 -0.494306
O15   O     O_R   0.502640 0.195380 0.446850 -0.510162
O16   O     O_R   0.319630 0.976590 0.450330 -0.497059
O17   O     O_R   0.303680 0.807790 0.552740 -0.517302
O18   O     O_R   0.522820 0.843620 0.549310 -0.504738
O19   O     O_R   0.694060 0.998080 0.553560 -0.525107
O20   O     O_R   0.503420 0.197810 0.553190 -0.514277
O21   O     O_R   0.320350 0.978840 0.548910 -0.494034
O22   O     O_3   0.499990 0.999990 0.500010 -0.246019
O23   O     O_R   0.819150 0.845650 0.033320 -0.507645
O24   O     O_R   0.006060 0.815720 0.028680 -0.495061
O25   O     O_R   0.028100 0.664460 0.032550 -0.505595
O26   O     O_R   0.811290 0.477490 0.029660 -0.493608

loop_
_geom_bond_atom_site_label_1
_geom_bond_atom_site_label_2
_ccdc_geom_bond_type
C25   C31   A    
C7    C10   S    
C63   C65   A    
C82   H35   S    
C55   H13   S    
C27   C29   A    
Cr1   O22   S    
C41   C42   A    
C33   H67   S    
C72   O7    A    
C75   C76   A    
Cr2   O12   S    
C28   O18   A    
C49   C50   A    
C81   C82   S    
Cr4   O11   S    
C39   C41   A    
C74   O10   A    
C54   C60   A    
C84   H46   S    
C81   H38   S    
C40   O20   A    
C12   C23   A    
C26   C27   A    
C87   H48   S    
C45   C76   A    
Cr3   O20   S    
C36   C37   A    
Cr1   O17   S    
C25   C40   S    
C30   C31   A    
C63   H18   S    
Cr2   O13   S    
C48   H8    S    
C70   C78   S    
C80   H26   S    
C68   C74   S    
C87   N1    S    
C36   H69   S    
C17   C20   A    
C56   C78   T    
C18   H34   S    
C18   C19   A    
C52   O21   A    
C4    O15   A    
C82   H36   S    
C93   H60   S    
C92   C93   S    
Cr6   O11   S    
Cr2   O19   S    
Cr1   O1    S    
C63   C68   A    
C73   O9    A    
C61   C66   A    
C58   C66   S    
C2    C7    A    
C45   C56   S    
C8    C9    S    
C90   N3    S    
H55   N3    S    
C60   H19   S    
Cr5   O7    S    
C61   C62   A    
C86   H41   S    
Cr1   O4    S    
C40   O12   A    
C23   C34   A    
C76   H4    S    
C39   C52   S    
C59   C60   A    
Cr2   O22   S    
Cr4   O5    S    
C88   H53   S    
Cr3   O16   S    
C4    C64   S    
C48   C53   A    
C72   O6    A    
C26   H45   S    
C1    O13   A    
C44   C46   A    
C50   C51   A    
C57   H17   S    
C16   C89   S    
C77   C79   S    
C15   C20   A    
C88   N2    S    
C87   H49   S    
C5    H21   S    
C64   C67   T    
C15   H12   S    
C19   C22   S    
C84   C85   S    
C10   C89   T    
C83   H31   S    
C3    C8    A    
C85   H42   S    
C91   C92   S    
C28   C54   S    
C71   O23   A    
C47   C51   A    
C84   H44   S    
C35   H2    S    
C58   C59   A    
C85   C86   S    
C69   O25   A    
C35   C36   A    
C4    O14   A    
C90   H59   S    
C93   H61   S    
C43   C44   A    
C74   O5    A    
C29   C30   A    
Cr3   O15   S    
C32   H56   S    
C16   O1    A    
Cr4   O6    S    
C47   C48   A    
Cr6   O2    S    
C93   H62   S    
C47   H7    S    
C30   H3    S    
C17   C18   A    
Cr5   O25   S    
C77   H30   S    
C32   C37   A    
C20   C21   S    
C31   H5    S    
C9    C11   T    
C77   H29   S    
C3    H20   S    
C86   H40   S    
C39   C46   A    
C92   H64   S    
Cr3   O22   S    
C79   H27   S    
C44   C81   S    
C70   O26   A    
C55   C57   A    
C88   H52   S    
C91   H65   S    
C21   C24   T    
C1    C13   S    
C42   C43   A    
H51   N2    S    
C90   H57   S    
C50   C77   S    
Cr2   O14   S    
C81   H37   S    
C49   H10   S    
C12   H14   S    
C80   H25   S    
C92   H63   S    
C79   H28   S    
C54   C55   A    
C1    O4    A    
Cr5   O26   S    
Cr6   O3    S    
C14   C15   A    
C14   C19   A    
C91   H66   S    
Cr4   O23   S    
C12   C45   A    
C65   C84   S    
C16   O16   A    
C28   O19   A    
C34   C67   S    
C5    C8    A    
C11   C69   S    
C69   O24   A    
C6    C7    A    
Cr5   O11   S    
C2    N3    S    
C33   C38   A    
C71   O3    A    
C62   C68   A    
C88   H54   S    
Cr4   O24   S    
C90   H58   S    
C46   H11   S    
C83   H32   S    
C25   C26   A    
Cr1   O18   S    
C83   H33   S    
C32   C33   A    
C43   C51   S    
C57   C58   A    
C5    C6    A    
C23   N2    S    
C49   C53   A    
C75   H1    S    
C13   C22   T    
C2    C3    A    
C85   H43   S    
C65   C66   A    
Cr3   O21   S    
C70   O2    A    
C14   C91   S    
Cr6   O10   S    
C86   H39   S    
C79   C80   S    
C73   O8    A    
C17   H23   S    
Cr6   O9    S    
C34   C75   A    
C41   H6    S    
C82   C83   S    
C87   H50   S    
H47   N1    S    
C29   C37   S    
C61   H15   S    
C62   H16   S    
C35   C38   A    
C52   O17   A    
C6    H22   S    
Cr5   O8    S    
C59   N1    S    
C53   C72   S    
C42   H9    S    
C38   C73   S    
C24   C71   S    
C27   H68   S    
C80   H24   S    
