data_mof_unit_45585.cif
_audit_creation_date              2012-12-10T17:42:44-0500
_audit_creation_method            fapswitch 2.2
_symmetry_space_group_name_H-M    P1
_symmetry_Int_Tables_number       1
_space_group_crystal_system       triclinic
_cell_length_a                    9.892533
_cell_length_b                    10.726789
_cell_length_c                    13.134003
_cell_angle_alpha                 91.295721
_cell_angle_beta                  69.906144
_cell_angle_gamma                 88.674459
_cell_volume                      1307.83862478

loop_
_atom_site_label
_atom_site_type_symbol
_atom_type_description
_atom_site_fract_x
_atom_site_fract_y
_atom_site_fract_z
_atom_type_partial_charge
C1    C     C_R   0.499136 0.740573 0.495906 0.871639
C2    C     C_R   0.368824 0.483011 0.821461 -0.118263
C3    C     C_R   0.230991 0.897822 0.511436 -0.175484
C4    C     C_R   0.420308 0.493397 0.703858 0.835295
C5    C     C_R   0.100307 0.964869 0.555626 -0.151256
C6    C     C_R   0.095282 0.079178 0.608687 -0.153411
C7    C     C_R   0.222938 0.131986 0.607540 -0.154906
C8    C     C_R   0.357431 0.069664 0.553556 0.102907
C9    C     C_R   0.360109 0.944759 0.519837 0.099047
C10   C     C_R   0.492695 0.874959 0.495243 -0.125819
C11   C     C_R   0.620725 0.934774 0.484809 -0.222123
C12   C     C_R   0.432926 0.475212 0.983577 0.084132
C13   C     C_R   0.620145 0.061679 0.496968 -0.221979
C14   C     C_R   0.489994 0.129679 0.527372 -0.132608
C15   C     C_R   0.791320 0.661685 0.645898 -0.145939
C16   C     C_R   0.496094 0.261395 0.511147 0.874538
C17   C     C_R   0.826856 0.735789 0.720719 -0.204448
C18   C     C_R   0.965898 0.731750 0.722547 -0.190644
C19   C     C_R   0.070664 0.654943 0.648465 -0.183620
C20   C     C_R   0.037815 0.577080 0.573024 0.144280
C21   C     C_R   0.893418 0.578603 0.572306 0.175162
C22   C     C_R   0.961884 0.425081 0.430784 -0.142288
C23   C     C_R   0.463693 0.440823 0.873725 0.088212
C24   C     C_R   0.105213 0.425413 0.430570 -0.111819
C25   C     C_R   0.580083 0.499542 0.295778 0.883303
C26   C     C_R   0.782268 0.377031 0.014122 -0.198744
C27   C     C_R   0.629243 0.483490 0.178587 -0.062691
C28   C     C_R   0.231142 0.531236 0.882809 -0.204753
C29   C     C_R   0.191677 0.546326 0.994575 -0.149059
C30   C     C_R   0.292314 0.522108 0.044689 -0.198198
C31   C     C_R   0.543954 0.460790 0.027738 0.079222
C32   C     C_R   0.674403 0.394749 0.968309 0.179161
C33   C     C_R   0.693594 0.345045 0.865297 -0.250621
C34   C     C_R   0.589257 0.367098 0.818673 -0.197880
C35   C     C_R   0.529431 0.512254 0.129116 -0.259493
C36   C     C_R   0.758444 0.419160 0.120295 -0.207194
H1    H     H_    0.836920 0.396314 0.158222 0.151964
H2    H     H_    0.993803 0.790810 0.779806 0.154939
H3    H     H_    0.176792 0.660793 0.650936 0.209802
H4    H     H_    0.790069 0.290440 0.820124 0.140948
H5    H     H_    0.186453 0.364440 0.373907 0.156787
H6    H     H_    0.881816 0.326093 0.969680 0.138864
H7    H     H_    0.437429 0.571403 0.173755 0.148607
H8    H     H_    0.155677 0.560882 0.844140 0.158436
H9    H     H_    0.256023 0.537677 0.131490 0.132316
H10   H     H_    0.084748 0.582185 0.042024 0.148027
H11   H     H_    0.607258 0.324347 0.739521 0.170858
H12   H     H_    0.228011 0.813213 0.466670 0.174567
H13   H     H_    0.722966 0.883841 0.464469 0.170426
H14   H     H_    0.002521 0.927102 0.549877 0.148767
H15   H     H_    0.993288 0.129128 0.646992 0.132257
H16   H     H_    0.215751 0.221989 0.648351 0.152356
H17   H     H_    0.722352 0.106557 0.479501 0.168990
H18   H     H_    0.935164 0.363922 0.374346 0.141846
H19   H     H_    0.683320 0.673748 0.648223 0.206855
H20   H     H_    0.746190 0.797899 0.776791 0.152286
N1    N     N_R   0.856860 0.501200 0.500990 -0.118776
N2    N     N_R   0.142450 0.501280 0.501020 -0.123873
O1    O     O_R   0.385310 0.683220 0.500000 -0.648904
O2    O     O_R   0.614640 0.683250 0.500010 -0.634747
O3    O     O_R   0.328400 0.499950 0.653610 -0.638679
O4    O     O_R   0.557730 0.499970 0.653620 -0.628994
O5    O     O_R   0.385360 0.316750 0.499990 -0.613274
O6    O     O_R   0.614690 0.316780 0.500000 -0.624031
O7    O     O_R   0.442270 0.500030 0.346380 -0.612604
O8    O     O_R   0.671600 0.500050 0.346390 -0.611537
Zn1   Zn    Zn3+2 0.346880 0.499980 0.499990 0.918436
Zn2   Zn    Zn3+2 0.653120 0.500020 0.500010 0.923430

loop_
_geom_bond_atom_site_label_1
_geom_bond_atom_site_label_2
_ccdc_geom_bond_type
O8    Zn2   S    
C21   N1    A    
C6    C7    A    
C3    C9    A    
C16   O5    A    
C6    H15   S    
C25   C27   S    
C35   H7    S    
C9    C10   A    
O3    Zn1   S    
C30   H9    S    
C2    C4    S    
C19   C20   A    
C12   C23   A    
O4    Zn2   S    
C29   H10   S    
C3    C5    A    
C23   C34   A    
C27   C35   A    
C32   C33   A    
C22   N1    A    
C33   C34   A    
C18   H2    S    
C7    C8    A    
C22   H18   S    
N2    Zn1   S    
C13   C14   A    
C26   C32   A    
C24   H5    S    
C11   C13   A    
C17   H20   S    
O2    Zn2   S    
C29   C30   A    
C19   H3    S    
C11   H13   S    
O6    Zn2   S    
C31   C35   A    
C26   C36   A    
C28   C29   A    
C7    H16   S    
C17   C18   A    
C13   H17   S    
C1    O1    A    
C12   C31   A    
C5    C6    A    
C27   C36   A    
O5    Zn1   S    
C5    H14   S    
C1    O2    A    
C33   H4    S    
C2    C28   A    
C10   C11   A    
C1    C10   S    
N1    Zn2   S    
C20   N2    A    
C4    O4    A    
C3    H12   S    
C15   C21   A    
C25   O7    A    
C20   C21   A    
C26   H6    S    
C24   N2    A    
C18   C19   A    
C22   C24   A    
C2    C23   A    
C15   C17   A    
C36   H1    S    
C8    C14   A    
C34   H11   S    
C16   O6    A    
O1    Zn1   S    
C14   C16   S    
C12   C30   A    
C4    O3    A    
C28   H8    S    
C25   O8    A    
C31   C32   A    
C8    C9    A    
O7    Zn1   S    
C15   H19   S    
