data_mof_unit_41037.cif
_audit_creation_date              2013-03-05T15:49:18-0500
_audit_creation_method            fapswitch 2.2
_symmetry_space_group_name_H-M    P1
_symmetry_Int_Tables_number       1
_space_group_crystal_system       triclinic
_cell_length_a                    10.589334
_cell_length_b                    12.120109
_cell_length_c                    12.791624
_cell_angle_alpha                 93.189137
_cell_angle_beta                  89.971216
_cell_angle_gamma                 88.762787
_cell_volume                      1638.79966363

loop_
_atom_site_label
_atom_site_type_symbol
_atom_site_description
_atom_site_fract_x
_atom_site_fract_y
_atom_site_fract_z
_atom_type_partial_charge
O1    O     O_R   0.506170 0.421690 0.658830 -0.588616
O2    O     O_R   0.491330 0.609320 0.646410 -0.581279
C1    C     C_R   0.497754 0.521880 0.699835 0.900468
O3    O     O_R   0.690660 0.406170 0.506210 -0.590550
O4    O     O_R   0.675810 0.593790 0.493790 -0.634798
C2    C     C_R   0.739062 0.503088 0.502431 0.833645
Zn1   Zn    Zn3+2 0.509910 0.374720 0.508290 1.058585
Zn2   Zn    Zn3+2 0.490090 0.625280 0.491710 1.013378
O5    O     O_R   0.508670 0.390680 0.353590 -0.572728
O6    O     O_R   0.493830 0.578310 0.341170 -0.659939
O7    O     O_R   0.324190 0.406210 0.506210 -0.530958
O8    O     O_R   0.309340 0.593830 0.493790 -0.573701
C3    C     C_R   0.505966 0.478810 0.300265 0.862754
C4    C     C_R   0.261001 0.495835 0.491835 0.881948
H1    H     H_    0.890118 0.523106 0.664234 0.152657
C5    C     C_R   0.864153 0.509791 0.303765 -0.242064
H2    H     H_    0.766489 0.537617 0.303839 0.155276
C6    C     C_R   0.923454 0.487776 0.207877 -0.236226
H3    H     H_    0.870735 0.498188 0.136445 0.194185
C7    C     C_R   0.045169 0.441491 0.203598 0.322273
C8    C     C_R   0.113130 0.427518 0.297790 0.157737
C9    C     C_R   0.059956 0.470718 0.394565 -0.059794
C10   C     C_R   0.930855 0.497705 0.397763 0.088833
C11   C     C_R   0.871298 0.509249 0.495893 -0.038577
C12   C     C_R   0.938125 0.513397 0.589269 -0.191409
H4    H     H_    0.120667 0.517474 0.657989 0.164483
C13   C     C_R   0.067415 0.507260 0.585775 -0.109269
C14   C     C_R   0.127889 0.486633 0.489690 -0.041723
C15   C     C_R   0.517639 0.468767 0.189170 0.001313
C16   C     C_R   0.491837 0.535953 0.810914 -0.121978
C17   C     C_R   0.389965 0.617322 0.966051 0.315407
C18   C     C_R   0.404804 0.611160 0.858022 -0.196776
C19   C     C_R   0.567979 0.468198 0.869238 -0.286207
C20   C     C_R   0.553408 0.470861 0.976276 0.150975
C21   C     C_R   0.461857 0.543871 0.025386 0.036530
C22   C     C_R   0.442567 0.538825 0.131829 -0.132682
C23   C     C_R   0.611005 0.400329 0.141788 -0.233938
C24   C     C_R   0.627694 0.399951 0.034577 -0.166307
H5    H     H_    0.369185 0.588651 0.171604 0.189542
H6    H     H_    0.673436 0.350760 0.188049 0.175636
H7    H     H_    0.699481 0.345870 0.997579 0.163695
H8    H     H_    0.346900 0.663416 0.810534 0.239297
H9    H     H_    0.636005 0.411247 0.830641 0.162030
N1    N     N_R   0.523130 0.207800 0.519340 -0.177590
N2    N     N_R   0.476870 0.792180 0.480660 -0.148464
C25   C     C_R   0.590954 0.929367 0.391462 -0.247850
C26   C     C_R   0.554753 0.820439 0.401793 -0.008016
C27   C     C_R   0.435133 0.870433 0.554028 0.456243
C28   C     C_R   0.465887 0.983437 0.543456 -0.125504
C29   C     C_R   0.543395 0.013851 0.460441 -0.053825
C30   C     C_R   0.567303 0.128323 0.446773 0.536195
C31   C     C_R   0.445089 0.177849 0.599201 0.590826
C32   C     C_R   0.416172 0.066678 0.610823 -0.332426
H10   H     H_    0.656688 0.946491 0.329873 0.196568
H11   H     H_    0.346854 0.046652 0.668300 0.218128
H12   H     H_    0.596571 0.756863 0.349498 0.171490
O9    O     O_3   0.627111 0.160676 0.357702 -0.607082
C33   C     C_3   0.541630 0.150982 0.272808 -0.170147
H13   H     H_    0.452944 0.199222 0.289299 0.240091
H14   H     H_    0.517387 0.064082 0.251570 0.157016
H15   H     H_    0.586535 0.182250 0.202552 0.184926
O10   O     O_3   0.374052 0.258450 0.655024 -0.561302
C34   C     C_3   0.379397 0.244105 0.764048 -0.210712
H16   H     H_    0.475904 0.220004 0.790528 0.145842
H17   H     H_    0.308775 0.183733 0.787430 0.186088
H18   H     H_    0.353343 0.323903 0.805981 0.206512
N3    N     N_R   0.367427 0.836802 0.643448 0.193906
O11   O     O_R   0.406809 0.864087 0.737515 -0.398643
O12   O     O_R   0.271046 0.772785 0.631199 -0.366935
N4    N     N_R   0.093483 0.401045 0.103774 0.228185
O13   O     O_R   0.097688 0.467248 0.027272 -0.376517
O14   O     O_R   0.104897 0.295007 0.082854 -0.312507
N5    N     N_R   0.218947 0.351331 0.297500 0.196089
O15   O     O_R   0.295227 0.342145 0.217813 -0.402633
O16   O     O_R   0.218165 0.271522 0.361465 -0.363965
N6    N     N_R   0.302808 0.697901 0.013379 0.219356
O17   O     O_R   0.195945 0.718890 0.967566 -0.313436
O18   O     O_R   0.339402 0.764242 0.090424 -0.381036

loop_
_geom_bond_atom_site_label_1
_geom_bond_atom_site_label_2
_geom_bond_distance
_ccdc_geom_bond_type
C34   H17   1.109906 S    
N5    O15   1.298677 A    
C21   C22   1.381629 A    
C17   N6    1.437653 S    
Zn1   O7    1.995710 S    
C15   C22   1.389851 A    
H4    C13   1.085082 S    
C23   C24   1.382396 A    
C3    C15   1.424612 S    
N6    O18   1.301394 A    
C6    H3    1.082951 S    
C23   H6    1.082115 S    
O4    C2    1.284962 A    
O7    C4    1.285482 A    
H1    C12   1.084518 S    
C33   H14   1.108562 S    
C8    N5    1.436378 S    
C20   C21   1.420566 A    
O5    C3    1.298769 A    
Zn2   N2    2.037422 S    
C5    H2    1.080834 S    
C10   C11   1.403137 A    
N4    O13   1.300886 A    
C30   O9    1.383012 S    
N1    C31   1.382619 A    
C33   H15   1.105716 S    
N2    C26   1.365673 A    
C34   H18   1.108992 S    
C9    C14   1.419882 A    
C8    C9    1.427620 A    
N5    O16   1.301385 A    
C7    N4    1.432269 S    
O3    Zn1   1.960121 S    
C29   C30   1.435864 A    
C32   H11   1.079478 S    
N3    O11   1.301283 A    
C19   H9    1.085991 S    
N6    O17   1.301342 A    
C24   H7    1.084019 S    
O3    C2    1.295050 A    
C33   H13   1.109357 S    
N3    O12   1.299632 A    
C20   C24   1.398680 A    
C1    C16   1.422814 S    
O10   C34   1.415970 S    
C17   C18   1.388394 A    
Zn2   O8    1.960118 S    
C2    C11   1.406594 S    
C25   H10   1.082664 S    
C19   C20   1.376289 A    
Zn1   N1    2.037662 S    
C11   C12   1.387680 A    
N1    C30   1.374389 A    
Zn2   O6    1.977565 S    
C27   C28   1.428291 A    
O8    C4    1.302409 A    
C5    C10   1.407855 A    
C17   C21   1.412312 A    
C31   C32   1.404083 A    
N2    C27   1.363121 A    
Zn1   O5    1.998999 S    
C25   C26   1.395917 A    
C16   C19   1.386089 A    
O1    Zn1   1.977564 S    
C22   H5    1.082835 S    
O2    Zn2   1.999000 S    
O6    C3    1.291371 A    
O4    Zn2   1.995710 S    
C12   C13   1.370087 A    
C25   C29   1.399074 A    
C4    C14   1.416527 S    
O2    C1    1.293175 A    
C31   O10   1.385705 S    
C16   C18   1.394777 A    
O9    C33   1.415559 S    
C28   C32   1.384726 A    
C6    C7    1.394349 A    
C27   N3    1.432542 S    
C34   H16   1.114847 S    
C7    C8    1.420075 A    
C5    C6    1.387653 A    
C28   C29   1.411695 A    
C15   C23   1.393174 A    
C13   C14   1.393321 A    
C18   H8    1.082821 S    
C9    C10   1.398841 A    
N4    O14   1.301127 A    
O1    C1    1.296939 A    
C26   H12   1.079317 S    
