data_mof_unit_24752.cif
_audit_creation_date              2012-12-10T17:22:07-0500
_audit_creation_method            fapswitch 2.2
_symmetry_space_group_name_H-M    P1
_symmetry_Int_Tables_number       1
_space_group_crystal_system       triclinic
_cell_length_a                    15.893808
_cell_length_b                    10.858166
_cell_length_c                    9.616324
_cell_angle_alpha                 91.147539
_cell_angle_beta                  89.754252
_cell_angle_gamma                 92.817155
_cell_volume                      1657.21501873

loop_
_atom_site_label
_atom_site_type_symbol
_atom_type_description
_atom_site_fract_x
_atom_site_fract_y
_atom_site_fract_z
_atom_type_partial_charge
C1    C     C_R   0.507906 0.263218 0.498102 0.827941
C2    C     C_3   0.946040 0.435828 0.639588 -0.259136
C3    C     C_3   0.916824 0.503078 0.506011 0.051279
C4    C     C_3   0.959375 0.635878 0.492168 -0.150607
C5    C     C_3   0.056023 0.629731 0.511643 -0.381786
C6    C     C_1   0.824488 0.503613 0.500925 0.004048
C7    C     C_1   0.175415 0.494705 0.503811 0.028374
C8    C     C_1   0.250906 0.496718 0.501407 -0.046583
C9    C     C_R   0.585193 0.124167 0.730827 -0.054272
C10   C     C_R   0.578124 0.071766 0.862543 -0.092931
C11   C     C_R   0.529597 0.963438 0.881122 -0.151696
C12   C     C_R   0.340445 0.498930 0.500324 0.823794
C13   C     C_R   0.496516 0.898482 0.766036 -0.129464
C14   C     C_R   0.509045 0.944195 0.630449 0.132200
C15   C     C_R   0.539139 0.067726 0.617541 0.015798
C16   C     C_R   0.520381 0.129335 0.493297 -0.208571
C17   C     C_R   0.499922 0.058369 0.371406 0.000742
C18   C     C_R   0.489369 0.931505 0.379650 -0.244727
C19   C     C_R   0.493755 0.872700 0.506946 -0.114693
C20   C     C_R   0.613716 0.661821 0.146148 -0.167825
C21   C     C_R   0.668627 0.742182 0.075871 -0.261276
C22   C     C_R   0.668031 0.745031 0.931759 -0.035835
C23   C     C_R   0.495872 0.737643 0.502228 0.794122
C24   C     C_R   0.612497 0.663728 0.858937 -0.181492
C25   C     C_R   0.555861 0.579687 0.926620 0.178374
C26   C     C_R   0.556010 0.579338 0.075864 0.222711
C27   C     C_R   0.446431 0.425225 0.073751 -0.034984
C28   C     C_R   0.445794 0.424978 0.926274 0.052199
C29   C     C_R   0.659559 0.501695 0.499682 0.837672
C30   C     C_3   0.045958 0.426878 0.641680 0.118317
C31   C     C_3   0.044980 0.425193 0.374898 -0.208952
C32   C     C_3   0.947090 0.426625 0.378144 -0.450089
C33   C     C_1   0.749055 0.503041 0.499278 -0.011607
C34   C     C_3   0.082866 0.493514 0.507738 0.040485
Cu1   Cu    Cu3+1 0.499990 0.499990 0.640660 1.001392
Cu2   Cu    Cu3+1 0.500010 0.500010 0.359340 0.986564
H1    H     H_    0.916323 0.341707 0.627667 0.203052
H2    H     H_    0.949660 0.664566 0.383019 0.175272
H3    H     H_    0.612096 0.113109 0.950222 0.202283
H4    H     H_    0.521944 0.925566 0.983950 0.157728
H5    H     H_    0.459434 0.814873 0.786230 0.168886
H6    H     H_    0.477696 0.878182 0.284438 0.182080
H7    H     H_    0.402517 0.364591 0.129413 0.155712
H8    H     H_    0.618748 0.669996 0.255896 0.210150
H9    H     H_    0.710534 0.804599 0.135442 0.202613
H10   H     H_    0.615043 0.670984 0.749454 0.230241
H11   H     H_    0.061931 0.326981 0.377875 0.151879
H12   H     H_    0.920212 0.330074 0.382790 0.202919
H13   H     H_    0.922280 0.464510 0.280434 0.213105
H14   H     H_    0.077427 0.674687 0.610555 0.252572
H15   H     H_    0.089124 0.684061 0.429322 0.199795
N1    N     N_R   0.500800 0.501210 0.147910 -0.198101
N2    N     N_R   0.500820 0.501290 0.852040 -0.234041
O1    O     O_R   0.499990 0.319640 0.618810 -0.559838
O2    O     O_R   0.500000 0.319660 0.381240 -0.550215
O3    O     O_R   0.379430 0.499990 0.618840 -0.554637
O4    O     O_R   0.379440 0.500020 0.381260 -0.580038
O5    O     O_R   0.500000 0.680340 0.618760 -0.624865
O6    O     O_R   0.500010 0.680360 0.381190 -0.608379
O7    O     O_R   0.620560 0.499980 0.618740 -0.566762
O8    O     O_R   0.620570 0.500010 0.381160 -0.596619
Br1   Br    Br    0.098098 0.502844 0.811125 -0.382805
C35   C     C_2   0.906781 0.482263 0.774183 0.930631
O9    O     O_2   0.920722 0.588093 0.816460 -0.527889
O10   O     O_R   0.853408 0.402089 0.850061 -0.699965
H16   H     H_    0.830300 0.442677 0.937143 0.349469
C36   C     C_2   0.491724 0.110160 0.231406 0.839602
O11   O     O_2   0.549154 0.174996 0.182714 -0.585882
O12   O     O_R   0.419512 0.080111 0.153057 -0.759085
H17   H     H_    0.421112 0.120431 0.059014 0.353209
C37   C     C_2   0.650016 0.226019 0.711806 0.897636
O13   O     O_2   0.662297 0.303250 0.804554 -0.508923
O14   O     O_R   0.700032 0.232939 0.591895 -0.757285
H18   H     H_    0.691292 0.159120 0.526693 0.296287
C38   C     C_2   0.072009 0.292376 0.644973 0.865606
O15   O     O_2   0.146735 0.270867 0.651856 -0.534380
O16   O     O_R   0.012348 0.193118 0.641635 -0.763023
H19   H     H_    0.038868 0.110163 0.644597 0.358870
C39   C     C_2   0.722800 0.836740 0.856811 0.890294
O17   O     O_2   0.779514 0.895149 0.918192 -0.564033
O18   O     O_R   0.708225 0.859053 0.716417 -0.763504
H20   H     H_    0.746780 0.927928 0.679020 0.356554
C40   C     C_2   0.381851 0.343391 0.856741 0.898759
O19   O     O_2   0.310486 0.378188 0.842434 -0.513141
O20   O     O_R   0.400740 0.223205 0.818139 -0.767111
H21   H     H_    0.351136 0.175231 0.773890 0.347758
C41   C     C_2   0.080552 0.475401 0.239399 0.907243
O21   O     O_2   0.127448 0.413225 0.169045 -0.530733
O22   O     O_R   0.059392 0.591373 0.193947 -0.756142
H22   H     H_    0.088427 0.614941 0.103654 0.379873
C42   C     C_2   0.920667 0.737284 0.578988 0.913825
O23   O     O_2   0.847819 0.762488 0.557555 -0.597056
O24   O     O_R   0.968215 0.806639 0.677638 -0.708178
H23   H     H_    0.934700 0.872217 0.725946 0.369241

loop_
_geom_bond_atom_site_label_1
_geom_bond_atom_site_label_2
_ccdc_geom_bond_type
C23   O5    A    
C41   O21   D    
C35   O10   S    
O24   H23   S    
Cu1   N2    S    
O14   H18   S    
Cu1   Cu2   S    
C1    O1    A    
C3    C6    S    
C13   H5    S    
O18   H20   S    
C7    C8    T    
O16   H19   S    
C2    C35   S    
C23   O6    A    
Cu1   O5    S    
C25   N2    A    
C22   C39   S    
C18   H6    S    
C15   C16   A    
C29   C33   S    
C18   C19   A    
C10   H3    S    
C40   O19   D    
C16   C17   A    
C9    C10   A    
Cu2   N1    S    
C4    C42   S    
Cu2   O6    S    
C31   H11   S    
C21   C22   A    
Cu1   O1    S    
C32   H12   S    
O12   H17   S    
C20   H8    S    
C21   H9    S    
C29   O8    A    
C17   C36   S    
C31   C41   S    
C30   C34   S    
C36   O11   D    
C24   C25   A    
Cu2   O4    S    
C42   O23   D    
C37   O14   S    
C25   C26   A    
O20   H21   S    
C35   O9    D    
Cu1   O7    S    
C36   O12   S    
C19   C23   S    
C38   O15   D    
C26   N1    A    
C42   O24   S    
C31   C32   S    
C29   O7    A    
C8    C12   S    
C5    C34   S    
C17   C18   A    
C31   C34   S    
C1    C16   S    
C38   O16   S    
C12   O3    A    
C12   O4    A    
C40   O20   S    
C4    H2    S    
C30   Br1   S    
C7    C34   S    
C22   C24   A    
C5    H14   S    
Cu2   O8    S    
C27   N1    A    
C39   O18   S    
Cu1   O3    S    
C14   C19   A    
C9    C37   S    
C4    C5    S    
C28   N2    A    
C6    C33   T    
C2    C30   S    
C24   H10   S    
C41   O22   S    
C2    C3    S    
C1    O2    A    
C37   O13   D    
Cu2   O2    S    
C30   C38   S    
C11   C13   A    
C2    H1    S    
C11   H4    S    
C20   C26   A    
C9    C15   A    
C3    C32   S    
C32   H13   S    
C10   C11   A    
C39   O17   D    
C27   H7    S    
C20   C21   A    
O10   H16   S    
C27   C28   A    
C14   C15   A    
C5    H15   S    
O22   H22   S    
C13   C14   A    
C3    C4    S    
C28   C40   S    
