data_mof_unit_32940.cif
_audit_creation_date              2012-12-10T17:50:42-0500
_audit_creation_method            fapswitch 2.2
_symmetry_space_group_name_H-M    P1
_symmetry_Int_Tables_number       1
_space_group_crystal_system       triclinic
_cell_length_a                    14.708093
_cell_length_b                    14.888996
_cell_length_c                    15.85867
_cell_angle_alpha                 76.58556
_cell_angle_beta                  102.956247
_cell_angle_gamma                 114.983203
_cell_volume                      3030.49594392

loop_
_atom_site_label
_atom_site_type_symbol
_atom_type_description
_atom_site_fract_x
_atom_site_fract_y
_atom_site_fract_z
_atom_type_partial_charge
C1    C     C_R   0.880397 0.312996 0.515382 0.791369
C2    C     C_R   0.119603 0.687003 0.484619 0.791369
C3    C     C_R   0.778883 0.041071 0.614264 -0.189817
C4    C     C_R   0.221126 0.958929 0.385742 -0.189816
C5    C     C_R   0.846557 0.139201 0.593555 -0.195876
C6    C     C_R   0.153450 0.860799 0.406445 -0.195881
C7    C     C_R   0.712303 0.176188 0.493037 -0.228625
C8    C     C_R   0.287695 0.823809 0.506977 -0.228631
C9    C     C_R   0.639449 0.081374 0.520958 0.081280
C10   C     C_R   0.360553 0.918622 0.479061 0.081277
C11   C     C_R   0.676236 0.011671 0.577929 0.146944
C12   C     C_R   0.323770 0.988327 0.422087 0.146951
C13   C     C_R   0.532723 0.052045 0.491237 -0.004131
C14   C     C_R   0.467278 0.947948 0.508787 -0.004133
C15   C     C_R   0.512199 0.878174 0.554021 -0.026391
C16   C     C_R   0.487803 0.121821 0.446011 -0.026400
C17   C     C_R   0.612500 0.911609 0.593448 -0.264019
C18   C     C_R   0.387505 0.088390 0.406575 -0.264024
C19   C     C_R   0.704448 0.649011 0.340998 -0.316938
C20   C     C_R   0.295555 0.350996 0.659004 -0.316933
C21   C     C_R   0.789986 0.626350 0.369012 0.079033
C22   C     C_R   0.210015 0.373651 0.630988 0.079036
C23   C     C_R   0.999815 0.499947 0.660034 0.824042
C24   C     C_R   0.000185 0.500053 0.339966 0.824041
C25   C     C_R   0.719548 0.517624 0.493817 0.052202
C26   C     C_R   0.280453 0.482381 0.506185 0.052205
C27   C     C_R   0.629418 0.536466 0.468358 -0.004925
C28   C     C_R   0.370587 0.463545 0.531646 -0.004921
C29   C     C_R   0.623435 0.603388 0.389671 0.161943
C30   C     C_R   0.376570 0.396623 0.610333 0.161949
C31   C     C_R   0.544789 0.489722 0.516315 0.086171
C32   C     C_R   0.455218 0.510294 0.483690 0.086160
C33   C     C_R   0.453598 0.577382 0.404661 -0.205635
C34   C     C_R   0.546412 0.422638 0.595348 -0.205610
C35   C     C_R   0.536259 0.623259 0.359208 -0.200230
C36   C     C_R   0.463749 0.376759 0.640800 -0.200229
C37   C     C_3   0.017657 0.420385 0.049283 -0.198789
C38   C     C_3   0.982344 0.579616 0.950717 -0.198789
C39   C     C_3   0.926964 0.414322 0.975144 -0.201379
C40   C     C_3   0.073036 0.585679 0.024856 -0.201379
C41   C     C_1   0.999657 0.500035 0.749706 -0.182996
C42   C     C_1   0.000343 0.499965 0.250294 -0.182998
C43   C     C_3   0.089736 0.506040 0.989918 0.148615
C44   C     C_3   0.910265 0.493961 0.010082 0.148616
C45   C     C_3   0.000056 0.500047 0.917058 0.132994
C46   C     C_3   0.999944 0.499954 0.082942 0.132994
C47   C     C_1   0.999794 0.500059 0.825295 -0.080293
C48   C     C_1   0.000206 0.499942 0.174705 -0.080293
C49   C     C_R   0.813234 0.207192 0.532694 -0.054675
C50   C     C_R   0.186768 0.792807 0.467310 -0.054672
Cu1   Cu    Cu3+1 0.081740 0.475690 0.522610 0.945971
Cu2   Cu    Cu3+1 0.918260 0.524310 0.477390 0.945969
H1    H     H_    0.866824 0.344505 0.953596 0.131357
H2    H     H_    0.133177 0.655496 0.046404 0.131356
H3    H     H_    0.269805 0.533444 0.448376 0.127211
H4    H     H_    0.730195 0.466558 0.551624 0.127224
H5    H     H_    0.148075 0.339712 0.669239 0.122611
H6    H     H_    0.851925 0.660286 0.330761 0.122613
H7    H     H_    0.700981 0.700678 0.280867 0.134969
H8    H     H_    0.299024 0.299329 0.719136 0.134967
H9    H     H_    0.389127 0.596215 0.375659 0.133618
H10   H     H_    0.610885 0.403812 0.624352 0.133619
H11   H     H_    0.032695 0.355593 0.090722 0.132102
H12   H     H_    0.967306 0.644408 0.909278 0.132101
H13   H     H_    0.643514 0.857532 0.631446 0.146152
H14   H     H_    0.356493 0.142469 0.368581 0.146152
H15   H     H_    0.305788 0.773638 0.562179 0.161663
H16   H     H_    0.694204 0.226360 0.437837 0.161660
H17   H     H_    0.075391 0.838234 0.375138 0.147540
H18   H     H_    0.924619 0.161767 0.624855 0.147543
H19   H     H_    0.806709 0.988095 0.658951 0.132088
H20   H     H_    0.193304 0.011906 0.341052 0.132088
H21   H     H_    0.531369 0.674179 0.298803 0.138902
H22   H     H_    0.468642 0.325842 0.701206 0.138901
N1    N     N_R   0.795440 0.560790 0.443380 -0.182026
N2    N     N_R   0.204560 0.439210 0.556620 -0.182023
O1    O     O_R   0.977900 0.338120 0.529810 -0.589118
O2    O     O_R   0.022100 0.661880 0.470190 -0.589117
O3    O     O_R   0.839850 0.379180 0.491620 -0.572569
O4    O     O_R   0.160150 0.620820 0.508380 -0.572569
O5    O     O_R   0.069010 0.479460 0.640020 -0.583115
O6    O     O_R   0.930990 0.520540 0.359980 -0.583117
O7    O     O_R   0.930960 0.520530 0.601820 -0.583600
O8    O     O_R   0.069040 0.479470 0.398180 -0.583599
C51   C     C_3   0.807848 0.487067 0.023855 -0.411590
C52   C     C_3   0.735009 0.482141 0.937560 -0.346093
C53   C     C_3   0.632753 0.475247 0.951424 -0.842915
H23   H     H_    0.597077 0.406605 0.997903 0.252829
H24   H     H_    0.642419 0.542233 0.977653 0.254041
H25   H     H_    0.581641 0.471684 0.887934 0.243198
H26   H     H_    0.768086 0.550333 0.889633 0.219150
H27   H     H_    0.722889 0.415345 0.909652 0.216897
H28   H     H_    0.774866 0.418823 0.071731 0.200591
H29   H     H_    0.820108 0.553931 0.051692 0.198296
C54   C     C_3   0.192153 0.512933 0.976144 -0.411591
C55   C     C_3   0.264992 0.517863 0.062439 -0.346094
C56   C     C_3   0.367247 0.524752 0.048575 -0.842913
H30   H     H_    0.357578 0.457762 0.022350 0.254040
H31   H     H_    0.402923 0.593391 0.002093 0.252831
H32   H     H_    0.418360 0.528319 0.112065 0.243196
H33   H     H_    0.277115 0.584661 0.090343 0.216897
H34   H     H_    0.231915 0.449674 0.110369 0.219151
H35   H     H_    0.179892 0.446068 0.948309 0.198298
H36   H     H_    0.225133 0.581175 0.928267 0.200592
C57   C     C_1   0.464408 0.771413 0.554242 0.219698
N3    N     N_1   0.427088 0.685644 0.555247 -0.297745
C58   C     C_1   0.535589 0.228578 0.445815 0.219715
N4    N     N_1   0.572909 0.314343 0.444832 -0.297765

loop_
_geom_bond_atom_site_label_1
_geom_bond_atom_site_label_2
_ccdc_geom_bond_type
C6    H17   S    
C53   H23   S    
C55   H34   S    
C27   C29   A    
C1    O1    A    
C54   C55   S    
C25   H4    S    
C22   N2    A    
Cu2   N1    S    
C26   H3    S    
C22   H5    S    
C56   H30   S    
C20   C30   A    
C51   C52   S    
C36   H22   S    
C40   C46   S    
C23   O7    A    
C19   C21   A    
C52   H26   S    
C34   H10   S    
C24   C42   S    
C15   C17   A    
C24   O6    A    
Cu1   O4    S    
C38   C45   S    
C9    C13   A    
C2    C50   S    
C16   C58   S    
C37   H11   S    
C7    H16   S    
C51   H28   S    
C40   C43   S    
C11   C17   A    
C54   H35   S    
C26   N2    A    
C58   N4    T    
C4    C12   A    
Cu2   O3    S    
Cu1   O5    S    
C39   C45   S    
C13   C14   A    
C5    C49   A    
Cu2   O2    S    
C56   H31   S    
C44   C46   S    
C38   H12   S    
C45   C47   S    
C46   C48   S    
C27   C31   A    
Cu1   Cu2   S    
C28   C32   A    
C3    C11   A    
Cu1   N2    S    
C7    C49   A    
C4    C6    A    
C10   C14   A    
C52   C53   S    
C19   H7    S    
C25   N1    A    
C37   C43   S    
Cu2   O7    S    
C3    H19   S    
Cu1   O1    S    
C38   C44   S    
C5    H18   S    
C2    O2    A    
C9    C11   A    
C51   H29   S    
C43   C54   S    
C31   C32   A    
C55   C56   S    
C41   C47   T    
C31   C34   A    
C42   C48   T    
C6    C50   A    
Cu2   O6    S    
C43   C45   S    
C10   C12   A    
C8    C10   A    
C20   C22   A    
C40   H2    S    
C53   H24   S    
C1    O3    A    
C53   H25   S    
C20   H8    S    
C44   C51   S    
C19   C29   A    
C8    C50   A    
C4    H20   S    
C56   H32   S    
C54   H36   S    
C7    C9    A    
C21   N1    A    
C18   H14   S    
C35   H21   S    
C23   O5    A    
C17   H13   S    
C3    C5    A    
C39   C44   S    
C25   C27   A    
C57   N3    T    
C29   C35   A    
C26   C28   A    
C23   C41   S    
C30   C36   A    
C32   C33   A    
C15   C57   S    
C28   C30   A    
C24   O8    A    
C21   H6    S    
C37   C39   S    
C52   H27   S    
C38   C40   S    
C39   H1    S    
C33   H9    S    
C33   C35   A    
C34   C36   A    
C2    O4    A    
C8    H15   S    
C16   C18   A    
C13   C16   A    
C12   C18   A    
C14   C15   A    
C37   C46   S    
C55   H33   S    
C1    C49   S    
Cu1   O8    S    
