data_mof_unit_45620.cif
_audit_creation_date              2013-03-05T15:56:35-0500
_audit_creation_method            fapswitch 2.2
_symmetry_space_group_name_H-M    P1
_symmetry_Int_Tables_number       1
_space_group_crystal_system       triclinic
_cell_length_a                    6.924392
_cell_length_b                    14.467086
_cell_length_c                    16.144205
_cell_angle_alpha                 90.34185
_cell_angle_beta                  89.983097
_cell_angle_gamma                 89.633492
_cell_volume                      1617.19627794

loop_
_atom_site_label
_atom_site_type_symbol
_atom_site_description
_atom_site_fract_x
_atom_site_fract_y
_atom_site_fract_z
_atom_type_partial_charge
O1    O     O_R   0.361600 0.167310 0.164620 -0.587739
O2    O     O_R   0.638400 0.832690 0.835380 -0.565162
O3    O     O_R   0.691080 0.157570 0.338750 -0.541895
O4    O     O_R   0.308920 0.842430 0.661250 -0.553891
O5    O     O_R   0.861410 0.336420 0.339360 -0.580098
O6    O     O_R   0.138590 0.663580 0.660640 -0.581448
C1    C     C_R   0.523375 0.134597 0.367104 1.137122
C2    C     C_R   0.477158 0.865513 0.633391 1.098601
O7    O     O_R   0.691320 0.156280 0.165240 -0.583505
O8    O     O_R   0.308680 0.843720 0.834760 -0.559607
O9    O     O_R   0.861640 0.335130 0.164600 -0.607273
O10   O     O_R   0.138360 0.664870 0.835400 -0.604245
C3    C     C_R   0.523039 0.134081 0.135948 1.056862
C4    C     C_R   0.476700 0.867454 0.862802 0.989378
O11   O     O_R   0.361370 0.168600 0.339370 -0.586253
O12   O     O_R   0.638630 0.831400 0.660630 -0.585246
O13   O     O_3   0.527990 0.310540 0.251980 -0.288494
O14   O     O_3   0.472010 0.689460 0.748020 -0.290832
V1    V     V_3+5 0.802830 0.240980 0.251990 1.337233
V2    V     V_3+5 0.197170 0.759020 0.748010 1.353751
O15   O     O_R   0.191360 0.346160 0.165220 -0.598292
O16   O     O_R   0.808640 0.653840 0.834780 -0.600656
C5    C     C_R   0.022116 0.368238 0.136023 1.025171
C6    C     C_R   0.977877 0.631780 0.863990 1.030307
O17   O     O_R   0.191130 0.347440 0.338740 -0.593626
O18   O     O_R   0.808870 0.652560 0.661260 -0.595922
C7    C     C_R   0.022159 0.367580 0.368705 1.169478
C8    C     C_R   0.977876 0.632431 0.631276 1.166982
V3    V     V_3+5 0.302840 0.262750 0.251990 1.305596
V4    V     V_3+5 0.697160 0.737250 0.748010 1.317891
O19   O     O_3   0.027820 0.193180 0.251990 -0.251593
O20   O     O_3   0.972180 0.806820 0.748010 -0.225824
C9    C     C_3   0.887640 0.429515 0.518073 0.273967
C10   C     C_3   0.112623 0.570531 0.481839 0.274035
C11   C     C_3   0.058910 0.462712 0.570087 0.292506
C12   C     C_3   0.941327 0.537327 0.429824 0.292739
C13   C     C_3   0.989405 0.563631 0.561408 -0.419352
C14   C     C_3   0.010806 0.436421 0.438524 -0.421428
C15   C     C_3   0.813975 0.530341 0.508665 -0.307375
C16   C     C_3   0.186224 0.469697 0.491247 -0.306563
H1    H     H_    0.661444 0.553735 0.514180 0.213563
H2    H     H_    0.338761 0.446319 0.485721 0.214379
C17   C     C_R   0.820596 0.525611 0.967407 -0.041800
C18   C     C_R   0.179376 0.474469 0.032650 -0.039022
H3    H     H_    0.679735 0.544285 0.943439 0.130730
H4    H     H_    0.320236 0.455812 0.056628 0.131834
C19   C     C_R   0.831389 0.462603 0.032999 -0.069597
C20   C     C_R   0.168586 0.537464 0.967049 -0.070802
H5    H     H_    0.698393 0.434585 0.057262 0.133307
H6    H     H_    0.301583 0.565477 0.942783 0.133028
C21   C     C_R   0.010945 0.436075 0.066655 -0.123782
C22   C     C_R   0.989033 0.563981 0.933384 -0.128501
C23   C     C_R   0.646513 0.990395 0.440119 0.254366
C24   C     C_R   0.361296 0.011374 0.563471 0.261591
C25   C     C_R   0.628034 0.923621 0.502807 0.303745
C26   C     C_R   0.376869 0.077802 0.500145 0.311147
C27   C     C_R   0.485846 0.933586 0.564804 -0.485023
C28   C     C_R   0.517232 0.067126 0.436873 -0.493091
C29   C     C_R   0.639393 0.987805 0.061702 -0.237113
C30   C     C_R   0.359202 0.013959 0.936739 -0.235329
C31   C     C_R   0.624686 0.923775 0.995601 0.345340
C32   C     C_R   0.376446 0.078934 0.002050 0.307907
C33   C     C_R   0.484560 0.935766 0.932749 -0.279811
C34   C     C_R   0.513845 0.065831 0.065819 -0.288444
N1    N     N_R   0.120849 0.418092 0.646467 0.269199
O21   O     O_R   0.170595 0.331308 0.645550 -0.222339
O22   O     O_R   0.123109 0.463757 0.716061 -0.413422
N2    N     N_R   0.879474 0.581825 0.353371 0.269655
O23   O     O_R   0.830081 0.668649 0.354123 -0.220811
O24   O     O_R   0.877120 0.536026 0.283848 -0.411001
N3    N     N_R   0.763586 0.353546 0.542879 0.269431
O25   O     O_R   0.664790 0.359872 0.611207 -0.300265
O26   O     O_R   0.751937 0.279056 0.497888 -0.329487
N4    N     N_R   0.237066 0.646328 0.456922 0.268430
O27   O     O_R   0.335036 0.639948 0.388378 -0.300376
O28   O     O_R   0.251346 0.720342 0.502391 -0.327956
N5    N     N_R   0.792474 0.976225 0.378115 0.270625
O29   O     O_R   0.944110 0.028814 0.378216 -0.316379
O30   O     O_R   0.803076 0.896589 0.340364 -0.249300
N6    N     N_R   0.231537 0.028772 0.631025 0.246411
O31   O     O_R   0.065094 0.987679 0.633024 -0.306668
O32   O     O_R   0.260547 0.099851 0.678988 -0.346743
N7    N     N_R   0.754729 0.844542 0.502615 0.270538
O33   O     O_R   0.941037 0.855401 0.503674 -0.287513
O34   O     O_R   0.683914 0.761506 0.499991 -0.335849
N8    N     N_R   0.254517 0.158491 0.502851 0.270754
O35   O     O_R   0.329400 0.240593 0.499045 -0.341666
O36   O     O_R   0.069749 0.150452 0.515103 -0.271663
C35   C     C_2   0.779120 0.967390 0.128684 0.702378
H7    H     H_    0.918852 0.936849 0.114804 0.069095
O37   O     O_2   0.735876 0.981001 0.200775 -0.549299
C36   C     C_2   0.219417 0.035394 0.869990 0.682615
H8    H     H_    0.229097 0.101061 0.838323 0.092224
O38   O     O_2   0.083242 0.984778 0.855353 -0.499838
N9    N     N_R   0.742721 0.841733 0.996239 0.219147
O39   O     O_R   0.926274 0.846595 0.979738 -0.385756
O40   O     O_R   0.664071 0.761400 0.007820 -0.407415
N10   N     N_R   0.256159 0.160353 0.002106 0.219067
O41   O     O_R   0.333838 0.241897 0.998571 -0.418502
O42   O     O_R   0.068986 0.153027 0.003894 -0.411247

loop_
_geom_bond_atom_site_label_1
_geom_bond_atom_site_label_2
_geom_bond_distance
_ccdc_geom_bond_type
C6    C22   1.495112 S    
C14   C16   1.560407 S    
C10   C13   1.545976 S    
O13   V3    1.709492 S    
C23   C25   1.409608 A    
N9    O39   1.300965 A    
O4    C2    1.295128 A    
V1    O19   1.700452 S    
C19   H5    1.082723 S    
N5    O29   1.300588 A    
O9    V1    2.010284 S    
C29   C34   1.421582 A    
C9    C15   1.550514 S    
N4    O28   1.298912 A    
C30   C33   1.422610 A    
C10   C16   1.550487 S    
C11   C13   1.541547 S    
O3    C1    1.294195 A    
N8    O36   1.300601 A    
C17   C22   1.407723 A    
C11   N1    1.458570 S    
C7    C14   1.501364 S    
O12   V4    2.006421 S    
N10   O41   1.301225 A    
C30   C32   1.413975 A    
C29   C35   1.481040 S    
C31   C33   1.414816 A    
O7    C3    1.299170 A    
C32   C34   1.414771 A    
C9    C11   1.531439 S    
O5    C7    1.292600 A    
C5    C21   1.495147 S    
O7    V1    2.012810 S    
O6    C8    1.292441 A    
O8    V2    2.012810 S    
N2    O23   1.299687 A    
N1    O22   1.300119 A    
O3    V1    2.012027 S    
O14   V4    1.709493 S    
C35   O37   1.216265 D    
C1    C28   1.495634 S    
C10   C12   1.531624 S    
C20   H6    1.082718 S    
C2    O12   1.297263 A    
C32   N10   1.438265 S    
O1    V3    2.007681 S    
C18   H4    1.082665 S    
O11   V3    2.006423 S    
C24   N6    1.432949 S    
N5    O30   1.301794 A    
O17   V3    2.006910 S    
C13   C15   1.560712 S    
C24   C26   1.411876 A    
C29   C31   1.413058 A    
N4    O27   1.300298 A    
N6    O32   1.300216 A    
O8    C4    1.296147 A    
N3    O26   1.298943 A    
N8    O35   1.300837 A    
N6    O31   1.300665 A    
C19   C21   1.408954 A    
C1    O11   1.302589 A    
O15   V3    2.005796 S    
C23   N5    1.435215 S    
C2    C27   1.487717 S    
C26   N8    1.438427 S    
N7    O33   1.300697 A    
O10   V2    2.010286 S    
C12   N2    1.458618 S    
C17   H3    1.082667 S    
C10   N4    1.457377 S    
C18   C21   1.407720 A    
N7    O34   1.300880 A    
O18   V4    2.006908 S    
N10   O42   1.301389 A    
O15   C5    1.301892 A    
O16   C6    1.301862 A    
O1    C3    1.298134 A    
C25   N7    1.437210 S    
C12   C14   1.541345 S    
V2    O20   1.700452 S    
N9    O40   1.301102 A    
O16   V4    2.005799 S    
C12   C15   1.552401 S    
C16   H2    1.110390 S    
C23   C28   1.422808 A    
C31   N9    1.436865 S    
O5    V1    2.011170 S    
O17   C7    1.296722 A    
O6    V2    2.011169 S    
O10   C6    1.298542 A    
O18   C8    1.297020 A    
C9    C14   1.545522 S    
O2    V4    2.007683 S    
C25   C27   1.409908 A    
C11   C16   1.552240 S    
N3    O25   1.300295 A    
V3    O19   2.159642 S    
V4    O20   2.159639 S    
C36   O38   1.219867 D    
C3    C34   1.499434 S    
C8    C13   1.501630 S    
C4    C33   1.497404 S    
O9    C5    1.298526 A    
C36   H8    1.083947 S    
O13   V1    2.147088 S    
C26   C28   1.416871 A    
O14   V2    2.147090 S    
O2    C4    1.300942 A    
C9    N3    1.457158 S    
O4    V2    2.012024 S    
C20   C22   1.408940 A    
C15   H1    1.110406 S    
N2    O24   1.300119 A    
N1    O21   1.299777 A    
C35   H7    1.083887 S    
C30   C36   1.481570 S    
C17   C19   1.403040 A    
C18   C20   1.403017 A    
C24   C27   1.413707 A    
