data_mof_unit_11355.cif
_audit_creation_date              2012-12-10T17:01:27-0500
_audit_creation_method            fapswitch 2.2
_symmetry_space_group_name_H-M    P1
_symmetry_Int_Tables_number       1
_space_group_crystal_system       triclinic
_cell_length_a                    12.946514
_cell_length_b                    10.730497
_cell_length_c                    10.007203
_cell_angle_alpha                 88.909906
_cell_angle_beta                  96.513031
_cell_angle_gamma                 90.137426
_cell_volume                      1381.00352853

loop_
_atom_site_label
_atom_site_type_symbol
_atom_type_description
_atom_site_fract_x
_atom_site_fract_y
_atom_site_fract_z
_atom_type_partial_charge
C1    C     C_R   0.495780 0.262637 0.500556 0.943699
C2    C     C_2   0.478145 0.131895 0.501626 -0.370668
C3    C     C_2   0.498920 0.599862 0.923716 -0.307476
C4    C     C_R   0.298842 0.499960 0.474310 0.896003
C5    C     C_2   0.523050 0.598582 0.076789 0.507010
C6    C     C_R   0.498221 0.737457 0.498313 0.935938
C7    C     C_R   0.701858 0.501795 0.525130 0.885656
C8    C     C_R   0.814391 0.501031 0.537941 -0.171000
C9    C     C_R   0.188413 0.510115 0.459335 -0.115647
C10   C     C_R   0.033514 0.603417 0.346112 0.477407
C11   C     C_R   0.138346 0.577090 0.350726 -0.321277
C12   C     C_R   0.028881 0.481678 0.554828 0.052345
C13   C     C_R   0.134749 0.464305 0.561899 -0.244702
C14   C     C_3   0.797181 0.537223 0.197171 -0.577506
C15   C     C_3   0.599063 0.797555 0.063589 0.071427
C16   C     C_3   0.661318 0.893384 0.149317 -0.853146
C17   C     C_3   0.784045 0.255777 0.723715 -0.757342
C18   C     C_3   0.995605 0.805711 0.290185 0.108345
C19   C     C_3   0.974653 0.894978 0.170366 -0.838574
C20   C     C_3   0.290309 0.854974 0.288972 -0.777524
C21   C     C_R   0.975551 0.547782 0.443911 0.010462
C22   C     C_R   0.867037 0.554204 0.433301 0.069570
C23   C     C_R   0.869835 0.440377 0.650341 0.191995
C24   C     C_R   0.976851 0.432005 0.657682 -0.258424
C25   C     C_2   0.453866 0.935871 0.388189 0.259541
C26   C     C_2   0.499144 0.869761 0.494419 -0.369346
C27   C     C_2   0.466249 0.069928 0.386675 -0.251756
H1    H     H_    0.470061 0.087676 0.598355 0.150707
H2    H     H_    0.750249 0.668438 0.332958 0.251648
H3    H     H_    0.740472 0.461284 0.208357 0.220831
H4    H     H_    0.871460 0.494393 0.176111 0.228451
H5    H     H_    0.768042 0.596866 0.109304 0.221080
H6    H     H_    0.531231 0.846587 0.008126 0.131755
H7    H     H_    0.650632 0.760132 0.992002 0.139544
H8    H     H_    0.731795 0.849986 0.203800 0.254970
H9    H     H_    0.685730 0.970249 0.083952 0.205144
H10   H     H_    0.613630 0.932932 0.223325 0.260618
H11   H     H_    0.858425 0.387933 0.848056 0.217982
H12   H     H_    0.484167 0.687794 0.870319 0.172109
H13   H     H_    0.738878 0.220283 0.804381 0.228689
H14   H     H_    0.852192 0.193939 0.718636 0.222505
H15   H     H_    0.733135 0.253120 0.626673 0.239145
H16   H     H_    0.073686 0.828626 0.342930 0.128803
H17   H     H_    0.935931 0.820942 0.359934 0.142911
H18   H     H_    0.898516 0.873545 0.112753 0.261897
H19   H     H_    0.973572 0.992376 0.205743 0.205933
H20   H     H_    0.036718 0.885948 0.103099 0.252475
H21   H     H_    0.407075 0.923728 0.184527 0.216639
H22   H     H_    0.253289 0.807062 0.198494 0.235306
H23   H     H_    0.523766 0.419791 0.902928 0.156758
H24   H     H_    0.248823 0.944326 0.298959 0.226864
H25   H     H_    0.283212 0.794693 0.378950 0.232069
H26   H     H_    0.463472 0.428738 0.097327 0.107525
H27   H     H_    0.019174 0.382692 0.742381 0.144126
H28   H     H_    0.181456 0.614954 0.272759 0.184184
H29   H     H_    0.175627 0.413714 0.646865 0.163144
H30   H     H_    0.543182 0.912756 0.580103 0.114154
H31   H     H_    0.464990 0.117499 0.289633 0.170111
N1    N     N_2   0.501130 0.501330 0.852280 -0.196872
N2    N     N_2   0.501160 0.501360 0.147950 -0.221770
N3    N     N_2   0.812047 0.612589 0.316932 -0.266096
N4    N     N_2   0.818261 0.381794 0.753252 -0.278522
N5    N     N_2   0.398396 0.878318 0.274353 -0.242427
O1    O     O_R   0.499980 0.319060 0.613040 -0.622858
O2    O     O_3   0.990035 0.681986 0.244016 -0.597520
O3    O     O_R   0.500020 0.319100 0.386900 -0.622791
O4    O     O_R   0.346340 0.499960 0.594380 -0.614092
O5    O     O_R   0.346380 0.500000 0.368250 -0.620716
O6    O     O_R   0.499980 0.680900 0.613100 -0.638189
O7    O     O_R   0.500020 0.680940 0.386960 -0.520603
O8    O     O_R   0.653620 0.500000 0.631750 -0.579495
O9    O     O_R   0.653660 0.500040 0.405620 -0.616050
O10   O     O_3   0.564551 0.702021 0.147174 -0.561863
Zn1   Zn    Zn3+2 0.499980 0.499970 0.650990 0.941183
Zn2   Zn    Zn3+2 0.500020 0.500030 0.349010 0.975596

loop_
_geom_bond_atom_site_label_1
_geom_bond_atom_site_label_2
_ccdc_geom_bond_type
O8    Zn1   S    
C8    C22   A    
C23   C24   A    
C19   H18   S    
C15   H7    S    
C20   H22   S    
C18   H17   S    
C17   N4    S    
C25   C27   S    
C2    H1    S    
C12   C24   A    
C6    O6    A    
C7    O9    A    
C17   H13   S    
C16   H10   S    
C13   H29   S    
C20   N5    S    
C1    O3    A    
C4    C9    S    
C19   H19   S    
C3    H12   S    
C7    C8    S    
C20   H25   S    
O4    Zn1   S    
C18   H16   S    
C16   H9    S    
C22   N3    S    
C5    O10   S    
C9    C11   A    
N1    Zn1   S    
C6    C26   S    
C14   H3    S    
O9    Zn2   S    
H23   N1    S    
C16   H8    S    
C15   O10   S    
C2    C27   D    
C15   H6    S    
C1    C2    S    
C20   H24   S    
H2    N3    S    
C10   C21   A    
C7    O8    A    
C26   H30   S    
C19   H20   S    
C17   H14   S    
H11   N4    S    
C10   C11   A    
O3    Zn2   S    
C24   H27   S    
C15   C16   S    
C1    O1    A    
O6    Zn1   S    
C8    C23   A    
C11   H28   S    
C12   C13   A    
C4    O5    A    
C18   C19   S    
C25   N5    S    
C10   O2    S    
O7    Zn2   S    
C6    O7    A    
C14   H4    S    
C9    C13   A    
C17   H15   S    
H21   N5    S    
O1    Zn1   S    
N2    Zn2   S    
C5    N2    D    
C3    C5    S    
C25   C26   D    
C21   C22   A    
C14   N3    S    
C18   O2    S    
C12   C21   A    
H26   N2    S    
C23   N4    S    
C4    O4    A    
C14   H5    S    
O5    Zn2   S    
C27   H31   S    
C3    N1    D    
