data_mof_unit_41792.cif
_audit_creation_date              2012-12-10T19:04:14-0500
_audit_creation_method            fapswitch 2.2
_symmetry_space_group_name_H-M    P1
_symmetry_Int_Tables_number       1
_space_group_crystal_system       triclinic
_cell_length_a                    10.643949
_cell_length_b                    10.843263
_cell_length_c                    9.609116
_cell_angle_alpha                 90.746617
_cell_angle_beta                  89.937423
_cell_angle_gamma                 91.434443
_cell_volume                      1108.59544997

loop_
_atom_site_label
_atom_site_type_symbol
_atom_type_description
_atom_site_fract_x
_atom_site_fract_y
_atom_site_fract_z
_atom_type_partial_charge
C1    C     C_R   0.496745 0.262639 0.499151 0.827379
C2    C     C_3   0.960428 0.482685 0.370801 0.404520
C3    C     C_3   0.039060 0.393156 0.451759 0.365489
C4    C     C_3   0.123294 0.500835 0.500505 -0.071212
C5    C     C_R   0.473352 0.065798 0.622224 0.104192
C6    C     C_R   0.483151 0.129540 0.497543 -0.141850
C7    C     C_R   0.475076 0.062431 0.371649 -0.182811
C8    C     C_R   0.475756 0.933686 0.372801 -0.201627
C9    C     C_R   0.484696 0.870830 0.499810 -0.078759
C10   C     C_R   0.474155 0.938621 0.623661 0.014548
C11   C     C_3   0.549758 0.936441 0.754632 -0.579962
C12   C     C_R   0.259735 0.499991 0.500132 0.854499
C13   C     C_3   0.549356 0.076798 0.753009 0.758030
C14   C     C_R   0.604387 0.537111 0.074171 0.155126
C15   C     C_R   0.403155 0.447023 0.072993 0.431544
C16   C     C_R   0.402835 0.447535 0.925702 0.465225
C17   C     C_R   0.605013 0.536104 0.927382 0.203516
C18   C     C_3   0.671356 0.658708 0.925793 0.170117
C19   C     C_3   0.670791 0.659059 0.083842 -0.401933
C20   C     C_R   0.497732 0.737646 0.500489 0.786567
C21   C     C_R   0.740391 0.499858 0.499729 0.821735
C22   C     C_3   0.041212 0.518108 0.631217 -0.101399
C23   C     C_3   0.955734 0.407859 0.581496 -0.250768
C24   C     C_3   0.877111 0.499440 0.498901 -0.079475
C25   C     C_3   0.960596 0.609407 0.548581 -0.220581
C26   C     C_3   0.044902 0.592383 0.417901 -0.279088
Cu1   Cu    Cu3+1 0.499990 0.499980 0.640670 0.986263
Cu2   Cu    Cu3+1 0.500010 0.500020 0.359330 0.974465
H1    H     H_    0.611299 0.731874 0.129807 0.147689
H2    H     H_    0.926764 0.699593 0.586943 0.151476
N1    N     N_R   0.500800 0.500930 0.147930 -0.286495
N2    N     N_R   0.500800 0.500890 0.852020 -0.306222
O1    O     O_R   0.500000 0.319640 0.618810 -0.559654
O2    O     O_R   0.500010 0.319680 0.381230 -0.611188
O3    O     O_R   0.316850 0.499950 0.618770 -0.584077
O4    O     O_R   0.316860 0.499990 0.381190 -0.561669
O5    O     O_R   0.499990 0.680320 0.618770 -0.588568
O6    O     O_R   0.500000 0.680360 0.381190 -0.594566
O7    O     O_R   0.683140 0.500010 0.618810 -0.563692
O8    O     O_R   0.683150 0.500050 0.381230 -0.541118
H3    H     H_    0.917510 0.332015 0.646871 0.190422
H4    H     H_    0.644300 0.897503 0.737659 0.171821
O9    O     O_3   0.480930 0.128773 0.862817 -0.708296
H5    H     H_    0.532979 0.119953 0.947563 0.330776
O10   O     O_3   0.668726 0.134203 0.736471 -0.717494
H6    H     H_    0.710432 0.096030 0.654632 0.293598
O11   O     O_3   0.304252 0.386976 0.137010 -0.657019
H7    H     H_    0.339600 0.339524 0.213809 0.366615
O12   O     O_3   0.302882 0.389062 0.860392 -0.666447
H8    H     H_    0.337245 0.340473 0.782503 0.375950
O13   O     O_3   0.793202 0.650276 0.871929 -0.680331
H9    H     H_    0.789942 0.685065 0.777231 0.323250
H10   H     H_    0.614238 0.731405 0.880170 0.097780
H11   H     H_    0.765563 0.652400 0.131267 0.251601
H12   H     H_    0.076929 0.533608 0.738700 0.208014
H13   H     H_    0.083164 0.666709 0.350421 0.169701
O14   O     O_3   0.915923 0.461785 0.235482 -0.705488
H14   H     H_    0.991996 0.458188 0.176123 0.361788
O15   O     O_3   0.083985 0.281712 0.399451 -0.711132
H15   H     H_    0.007998 0.230341 0.377855 0.335270
H16   H     H_    0.474838 0.108776 0.272470 0.173708
H17   H     H_    0.475576 0.884358 0.274099 0.163224
H18   H     H_    0.494175 0.896806 0.842024 0.197023

loop_
_geom_bond_atom_site_label_1
_geom_bond_atom_site_label_2
_ccdc_geom_bond_type
C1    O2    A    
C4    C26   S    
O9    H5    S    
C15   N1    A    
C22   H12   S    
O13   H9    S    
C16   O12   S    
C15   O11   S    
C12   O4    A    
C4    C22   S    
C9    C10   A    
C9    C20   S    
C5    C13   S    
O11   H7    S    
C23   H3    S    
Cu2   O6    S    
C14   N1    A    
C23   C24   S    
C13   O9    S    
C17   C18   S    
Cu1   N2    S    
C2    O14   S    
C1    O1    A    
O15   H15   S    
C2    C26   S    
O10   H6    S    
Cu1   O1    S    
C12   O3    A    
C13   O10   S    
C20   O5    A    
C11   C13   S    
C14   C17   A    
O14   H14   S    
C6    C7    A    
C21   O8    A    
C26   H13   S    
Cu1   O5    S    
C14   C19   S    
C19   H11   S    
C18   O13   S    
C2    C3    S    
C11   H18   S    
C2    C24   S    
C5    C6    A    
C16   N2    A    
C10   C11   S    
Cu2   O8    S    
Cu2   O2    S    
C15   C16   A    
C19   H1    S    
C5    C10   A    
C20   O6    A    
C24   C25   S    
Cu2   O4    S    
C11   H4    S    
C7    C8    A    
C21   C24   S    
Cu1   O7    S    
C25   H2    S    
O12   H8    S    
C17   N2    A    
C22   C23   S    
C18   C19   S    
C1    C6    S    
C18   H10   S    
Cu1   O3    S    
C25   C26   S    
C4    C12   S    
C3    C23   S    
C21   O7    A    
Cu2   N1    S    
C7    H16   S    
C3    C4    S    
C8    H17   S    
C8    C9    A    
Cu1   Cu2   S    
C22   C25   S    
C3    O15   S    
