data_mof_unit_23219.cif
_audit_creation_date              2012-12-10T17:44:36-0500
_audit_creation_method            fapswitch 2.2
_symmetry_space_group_name_H-M    P1
_symmetry_Int_Tables_number       1
_space_group_crystal_system       triclinic
_cell_length_a                    9.976158
_cell_length_b                    10.730447
_cell_length_c                    15.604806
_cell_angle_alpha                 94.683644
_cell_angle_beta                  67.083182
_cell_angle_gamma                 90.122238
_cell_volume                      1532.68603881

loop_
_atom_site_label
_atom_site_type_symbol
_atom_type_description
_atom_site_fract_x
_atom_site_fract_y
_atom_site_fract_z
_atom_type_partial_charge
Br1   Br    Br    0.111284 0.776204 0.119305 -0.504145
Br2   Br    Br    0.616450 0.732709 0.681985 -0.570416
Br3   Br    Br    0.558439 0.744525 0.219039 -0.458910
Br4   Br    Br    0.245144 0.287683 0.369138 -0.503896
Br5   Br    Br    0.945134 0.347396 0.849251 -0.568743
C1    C     C_R   0.504042 0.739138 0.492830 0.937199
C2    C     C_R   0.727358 0.452953 0.028896 0.046009
C3    C     C_R   0.602445 0.530006 0.084226 0.018359
C4    C     C_R   0.407759 0.501285 0.676280 0.897037
C5    C     C_R   0.810756 0.398817 0.071577 -0.132814
C6    C     C_R   0.766733 0.414383 0.167844 -0.249478
C7    C     C_R   0.585852 0.568879 0.176737 0.301827
C8    C     C_R   0.295841 0.883487 0.439120 -0.078210
C9    C     C_R   0.167723 0.945743 0.448433 -0.084911
C10   C     C_R   0.126063 0.058391 0.503451 -0.121095
C11   C     C_R   0.221734 0.116607 0.538341 -0.092677
C12   C     C_R   0.424956 0.536861 0.911653 0.091165
C13   C     C_R   0.362347 0.063245 0.515853 0.057412
C14   C     C_R   0.388497 0.938060 0.480249 0.074463
C15   C     C_R   0.505642 0.872983 0.488129 -0.170551
C16   C     C_R   0.492771 0.261880 0.510284 0.895734
C17   C     C_R   0.610541 0.937743 0.511085 -0.255158
C18   C     C_R   0.597265 0.065271 0.531347 0.465674
C19   C     C_R   0.479211 0.130015 0.525503 -0.279569
C20   C     C_R   0.814477 0.712376 0.594285 0.332022
C21   C     C_R   0.882021 0.817809 0.615332 -0.225362
C22   C     C_R   0.013067 0.804418 0.623788 -0.266244
C23   C     C_R   0.292632 0.602198 0.965649 -0.056662
C24   C     C_R   0.084917 0.689105 0.600484 -0.049542
C25   C     C_R   0.043014 0.593889 0.550751 0.036306
C26   C     C_R   0.899733 0.598946 0.549189 -0.003795
C27   C     C_R   0.955878 0.404838 0.454894 0.422655
C28   C     C_R   0.592001 0.501439 0.323998 0.910257
C29   C     C_R   0.101280 0.408710 0.451100 0.176579
C30   C     C_R   0.350952 0.519543 0.779022 -0.121111
C31   C     C_R   0.651832 0.497295 0.221535 -0.117673
C32   C     C_R   0.186944 0.615697 0.928420 -0.232731
C33   C     C_R   0.220734 0.587666 0.832827 0.543662
C34   C     C_R   0.532194 0.522737 0.949479 -0.018697
C35   C     C_R   0.445248 0.487030 0.821126 -0.251050
C36   C     C_3   0.641173 0.152734 0.654716 0.096620
C37   C     C_3   0.755825 0.210928 0.685742 -0.763096
C38   C     C_3   0.941475 0.292287 0.327645 0.103423
C39   C     C_3   0.865068 0.182464 0.300032 -0.683689
C40   C     C_3   0.072486 0.747361 0.820511 0.062898
C41   C     C_3   0.906866 0.750403 0.857397 -0.713398
C42   C     C_3   0.189713 0.574043 0.242958 0.123108
C43   C     C_3   0.082749 0.656747 0.324541 -0.762034
C44   C     C_R   0.498525 0.560253 0.045658 -0.085499
C45   C     C_R   0.358870 0.618294 0.099757 0.463827
C46   C     C_R   0.267185 0.652891 0.055877 0.167759
C47   C     C_R   0.671948 0.470903 0.893533 -0.220865
C48   C     C_R   0.765762 0.431401 0.932524 0.262058
H1    H     H_    0.903703 0.336958 0.032339 0.194120
H2    H     H_    0.822198 0.360907 0.199709 0.152089
H3    H     H_    0.079332 0.653488 0.972118 0.199209
H4    H     H_    0.537799 0.426768 0.779586 0.160328
H5    H     H_    0.711092 0.457926 0.818504 0.181195
H6    H     H_    0.604515 0.066256 0.691331 0.152698
H7    H     H_    0.547248 0.220730 0.676450 0.125108
H8    H     H_    0.848269 0.143500 0.669509 0.240202
H9    H     H_    0.796046 0.297106 0.650108 0.267577
H10   H     H_    0.707534 0.235163 0.762382 0.219912
H11   H     H_    0.059407 0.276967 0.285904 0.163762
H12   H     H_    0.701862 0.889621 0.516132 0.194541
H13   H     H_    0.908139 0.380967 0.308914 0.127063
H14   H     H_    0.745718 0.201767 0.328507 0.240697
H15   H     H_    0.905768 0.166356 0.222789 0.200103
H16   H     H_    0.887437 0.095968 0.327526 0.276150
H17   H     H_    0.116727 0.802555 0.759588 0.144377
H18   H     H_    0.106882 0.799365 0.872805 0.149113
H19   H     H_    0.861889 0.703715 0.923267 0.255143
H20   H     H_    0.864682 0.848819 0.871483 0.221910
H21   H     H_    0.870091 0.701170 0.805398 0.278892
H22   H     H_    0.226684 0.494336 0.269739 0.170624
H23   H     H_    0.321495 0.793727 0.399002 0.202491
H24   H     H_    0.130774 0.534174 0.199678 0.119093
H25   H     H_    0.066263 0.749347 0.303154 0.296445
H26   H     H_    0.975669 0.612560 0.351617 0.200986
H27   H     H_    0.125899 0.672089 0.379778 0.225027
H28   H     H_    0.096522 0.903554 0.417723 0.154346
H29   H     H_    0.022389 0.103049 0.515717 0.203792
H30   H     H_    0.185352 0.203892 0.581444 0.182588
H31   H     H_    0.822531 0.906377 0.642142 0.187990
H32   H     H_    0.055455 0.882893 0.652279 0.167699
H33   H     H_    0.174768 0.676167 0.620101 0.225590
N1    N     N_R   0.856800 0.501200 0.500850 -0.168771
N2    N     N_R   0.142390 0.501280 0.500880 -0.151045
O1    O     O_R   0.385310 0.683220 0.500000 -0.667027
O2    O     O_3   0.908437 0.295668 0.424221 -0.535764
O3    O     O_3   0.126458 0.621723 0.792091 -0.597790
O4    O     O_3   0.312092 0.644718 0.195193 -0.561859
O5    O     O_R   0.614640 0.683250 0.500010 -0.593584
O6    O     O_R   0.319840 0.499980 0.632240 -0.588592
O7    O     O_R   0.549160 0.500000 0.632250 -0.581189
O8    O     O_R   0.385360 0.316750 0.499990 -0.585871
O9    O     O_R   0.614690 0.316780 0.500000 -0.523029
O10   O     O_R   0.450840 0.500000 0.367750 -0.562449
O11   O     O_R   0.680160 0.500020 0.367760 -0.633540
O12   O     O_3   0.701119 0.124923 0.556741 -0.565367
Zn1   Zn    Zn3+2 0.346880 0.499980 0.499990 0.991823
Zn2   Zn    Zn3+2 0.653120 0.500020 0.500010 0.999166

loop_
_geom_bond_atom_site_label_1
_geom_bond_atom_site_label_2
_ccdc_geom_bond_type
C20   C26   A    
C2    C5    A    
C40   H18   S    
C36   C37   S    
C14   C15   A    
N2    Zn1   S    
C2    C3    A    
C40   C41   S    
C21   C22   A    
C32   C33   A    
C13   C19   A    
C43   H26   S    
Br5   C48   S    
C6    C31   A    
C13   C14   A    
C12   C34   A    
C25   C26   A    
C23   C46   A    
C3    C44   A    
C22   C24   A    
C10   C11   A    
C28   C31   S    
C28   O10   A    
C42   O4    S    
C43   H25   S    
C22   H32   S    
Br3   C7    S    
C32   H3    S    
C27   O2    S    
O6    Zn1   S    
C18   C19   A    
C7    C31   A    
C4    O7    A    
C41   H19   S    
O9    Zn2   S    
O7    Zn2   S    
C18   O12   S    
C8    C9    A    
C40   O3    S    
C38   H11   S    
C10   H29   S    
Br4   C29   S    
C38   O2    S    
C26   N1    A    
C8    C14   A    
C30   C33   A    
C36   H6    S    
C20   C21   A    
C27   N1    A    
C33   O3    S    
C11   H30   S    
C28   O11   A    
C12   C35   A    
C27   C29   A    
C38   C39   S    
C17   H12   S    
C24   C25   A    
N1    Zn2   S    
C16   O9    A    
C42   C43   S    
C8    H23   S    
C3    C7    A    
C1    O5    A    
C45   C46   A    
C36   O12   S    
C39   H16   S    
C29   N2    A    
Br1   C46   S    
C37   H8    S    
C24   H33   S    
C47   H5    S    
C45   O4    S    
C34   C44   A    
C15   C17   A    
C39   H15   S    
C42   H24   S    
C25   N2    A    
C1    O1    A    
C41   H21   S    
C6    H2    S    
C47   C48   A    
C37   H9    S    
C21   H31   S    
C35   H4    S    
O1    Zn1   S    
C40   H17   S    
C9    C10   A    
C12   C23   A    
C36   H7    S    
O5    Zn2   S    
C16   O8    A    
O10   Zn1   S    
C1    C15   S    
C43   H27   S    
C30   C35   A    
C42   H22   S    
C23   C32   A    
C38   H13   S    
C37   H10   S    
C34   C47   A    
Br2   C20   S    
C5    H1    S    
C5    C6    A    
O11   Zn2   S    
C11   C13   A    
C44   C45   A    
C16   C19   S    
C4    C30   S    
C2    C48   A    
C17   C18   A    
C39   H14   S    
C9    H28   S    
O8    Zn1   S    
C4    O6    A    
C41   H20   S    
