data_mof_unit_36642.cif
_audit_creation_date              2012-10-26T21:24:51-0400
_audit_creation_method            fapswitch 2.2
_symmetry_space_group_name_H-M    P1
_symmetry_Int_Tables_number       1
_space_group_crystal_system       triclinic
_cell_length_a                    9.627361
_cell_length_b                    10.854822
_cell_length_c                    15.446436
_cell_angle_alpha                 88.165117
_cell_angle_beta                  74.188869
_cell_angle_gamma                 90.435974
_cell_volume                      1552.10984376

loop_
_atom_site_label
_atom_site_type_symbol
_atom_type_description
_atom_site_fract_x
_atom_site_fract_y
_atom_site_fract_z
_atom_type_partial_charge
C1    C     C_R   0.998959 0.262375 0.500275 0.565825
C2    C     C_R   0.225810 0.519843 0.040974 0.052096
C3    C     C_R   0.321293 0.478082 0.090796 0.037682
C4    C     C_R   0.918209 0.498730 0.672200 0.542054
C5    C     C_R   0.082650 0.548440 0.084964 -0.119525
C6    C     C_R   0.034021 0.540586 0.178469 -0.130745
C7    C     C_R   0.267240 0.466674 0.185060 -0.131628
C8    C     C_R   0.123215 0.064343 0.496419 0.017429
C9    C     C_R   0.994703 0.128190 0.504831 0.066501
C10   C     C_R   0.863229 0.059482 0.522423 0.066511
C11   C     C_R   0.866280 0.930921 0.524166 -0.148656
C12   C     C_R   0.669626 0.471632 0.907107 0.006983
C13   C     C_R   0.997813 0.869455 0.507126 -0.011064
C14   C     C_R   0.124468 0.937327 0.498610 -0.000369
C15   C     C_3   0.265661 0.932542 0.428376 -0.215332
C16   C     C_R   0.000208 0.737070 0.500616 0.551416
C17   C     C_3   0.264759 0.072801 0.424802 -0.044380
C18   C     C_R   0.596691 0.584371 0.448325 0.124593
C19   C     C_R   0.546255 0.427935 0.559978 0.248763
C20   C     C_R   0.401908 0.421639 0.555529 0.235609
C21   C     C_R   0.449550 0.585779 0.449256 0.126512
C22   C     C_3   0.488829 0.604067 0.349229 -0.270449
C23   C     C_R   0.765062 0.424845 0.955564 0.088976
C24   C     C_3   0.646424 0.602031 0.348832 -0.278584
C25   C     C_R   0.081704 0.499921 0.327891 0.542224
C26   C     C_R   0.872228 0.485822 0.771025 -0.001161
C27   C     C_R   0.126674 0.500903 0.229017 0.001257
C28   C     C_R   0.912708 0.412330 0.911333 -0.120816
C29   C     C_R   0.965425 0.441511 0.819730 -0.158085
C30   C     C_R   0.728121 0.507057 0.815881 -0.135308
C31   C     C_R   0.519482 0.481907 0.951021 0.025455
C32   C     C_R   0.468407 0.454714 0.045190 0.013831
C33   C     C_R   0.566032 0.405765 0.090600 -0.132690
C34   C     C_R   0.711525 0.390169 0.046854 0.085681
C35   C     C_R   0.418171 0.516444 0.903532 -0.126811
C36   C     C_R   0.274391 0.534679 0.947858 -0.134991
Cu1   Cu    Cu3+1 0.140670 0.499980 0.500000 0.920760
Cu2   Cu    Cu3+1 0.859330 0.500020 0.500000 0.941369
H1    H     H_    0.009444 0.580524 0.047111 0.120535
H2    H     H_    0.703588 0.691928 0.327698 0.126810
H3    H     H_    0.925422 0.568594 0.211038 0.112497
H4    H     H_    0.201281 0.563358 0.908928 0.109101
H5    H     H_    0.987681 0.377130 0.946770 0.159979
H6    H     H_    0.078106 0.426406 0.786946 0.122175
H7    H     H_    0.664023 0.551866 0.777464 0.113148
H8    H     H_    0.533144 0.375636 0.160336 0.094647
H9    H     H_    0.445490 0.528791 0.831428 0.102504
H10   H     H_    0.798502 0.391663 0.152013 0.226632
H11   H     H_    0.765216 0.249824 0.119904 0.235543
H12   H     H_    0.765381 0.879922 0.535142 0.135595
H13   H     H_    0.658929 0.087565 0.596637 0.231378
H14   H     H_    0.681184 0.089307 0.484194 0.228981
H15   H     H_    0.345444 0.105030 0.289599 0.224712
H16   H     H_    0.243999 0.218435 0.342562 0.247406
H17   H     H_    0.676569 0.319242 0.615557 0.299102
H18   H     H_    0.572843 0.421663 0.685291 0.224173
H19   H     H_    0.296544 0.256076 0.567229 0.242677
H20   H     H_    0.217637 0.357821 0.648860 0.260512
H21   H     H_    0.352079 0.894489 0.456178 0.110304
H22   H     H_    0.256034 0.889080 0.365932 0.154532
H23   H     H_    0.353980 0.116463 0.446602 0.123729
H24   H     H_    0.458221 0.524015 0.315234 0.145788
H25   H     H_    0.332958 0.434385 0.226730 0.101714
H26   H     H_    0.454490 0.695102 0.328092 0.123800
H27   H     H_    0.702989 0.520143 0.315615 0.142045
N1    N     N_R   0.648210 0.500930 0.499430 -0.245354
N2    N     N_R   0.352300 0.500890 0.499430 -0.245831
N3    N     N_3   0.804798 0.338055 0.096099 -0.648344
N4    N     N_3   0.726871 0.118079 0.534471 -0.612701
N5    N     N_3   0.249732 0.122575 0.338801 -0.622806
N6    N     N_3   0.577284 0.360957 0.633701 -0.591695
N7    N     N_3   0.313461 0.325047 0.608680 -0.603554
O1    O     O_R   0.118810 0.319640 0.500000 -0.530544
O2    O     O_R   0.881230 0.319680 0.499990 -0.473755
O3    O     O_R   0.055580 0.499970 0.629840 -0.513255
O4    O     O_R   0.818000 0.500010 0.629830 -0.524377
O5    O     O_R   0.118770 0.680320 0.500010 -0.491030
O6    O     O_R   0.881190 0.680360 0.500000 -0.504886
O7    O     O_R   0.182000 0.499990 0.370170 -0.513424
O8    O     O_R   0.944420 0.500030 0.370160 -0.499397

loop_
_geom_bond_atom_site_label_1
_geom_bond_atom_site_label_2
_ccdc_geom_bond_type
H11   N3    S    
C25   O8    A    
C15   H22   S    
C30   H7    S    
C36   H4    S    
C35   C36   A    
C35   H9    S    
Cu2   O4    S    
Cu1   O7    S    
C12   C23   A    
C18   C24   S    
C1    O2    A    
C22   C24   S    
C28   C29   A    
C3    C7    A    
C5    C6    A    
C18   C21   A    
C7    C27   A    
C19   N1    A    
C16   O5    A    
C4    O3    A    
H14   N4    S    
C20   N2    A    
C17   H23   S    
C19   N6    S    
Cu2   N1    S    
C8    C9    A    
C6    H3    S    
C9    C10   A    
H18   N6    S    
Cu1   O3    S    
C17   N5    S    
C13   C14   A    
C21   N2    A    
C33   H8    S    
H15   N5    S    
C1    C9    S    
C34   N3    S    
Cu2   O6    S    
Cu1   O5    S    
Cu1   Cu2   S    
C22   H24   S    
C6    C27   A    
H16   N5    S    
C23   C34   A    
C33   C34   A    
C23   C28   A    
H10   N3    S    
C7    H25   S    
C24   H27   S    
C26   C30   A    
C5    H1    S    
C29   H6    S    
C31   C35   A    
C2    C5    A    
C18   N1    A    
Cu2   O2    S    
C2    C36   A    
C15   C17   S    
Cu1   O1    S    
C8    C14   A    
C12   C30   A    
C25   O7    A    
C15   H21   S    
C31   C32   A    
C4    C26   S    
C25   C27   S    
C28   H5    S    
C8    C17   S    
C1    O1    A    
C32   C33   A    
C19   C20   A    
C2    C3    A    
C12   C31   A    
C11   H12   S    
C11   C13   A    
H20   N7    S    
Cu2   O8    S    
Cu1   N2    S    
C24   H2    S    
C16   O6    A    
H19   N7    S    
C3    C32   A    
C4    O4    A    
C10   C11   A    
C22   H26   S    
C10   N4    S    
C26   C29   A    
C13   C16   S    
C14   C15   S    
C20   N7    S    
H13   N4    S    
C21   C22   S    
H17   N6    S    
