data_mof_unit_30975.cif
_audit_creation_date              2012-10-26T19:35:16-0400
_audit_creation_method            fapswitch 2.2
_symmetry_space_group_name_H-M    P1
_symmetry_Int_Tables_number       1
_space_group_crystal_system       triclinic
_cell_length_a                    10.839073
_cell_length_b                    10.78519
_cell_length_c                    9.572852
_cell_angle_alpha                 89.89828
_cell_angle_beta                  91.322394
_cell_angle_gamma                 90.042048
_cell_volume                      1118.78031031

loop_
_atom_site_label
_atom_site_type_symbol
_atom_type_description
_atom_site_fract_x
_atom_site_fract_y
_atom_site_fract_z
_atom_type_partial_charge
C1    C     C_R   0.499119 0.262758 0.500140 0.549594
C2    C     C_R   0.418657 0.935620 0.406995 -0.189128
C3    C     C_R   0.495564 0.870973 0.502192 0.002803
C4    C     C_R   0.262778 0.509231 0.498533 0.574294
C5    C     C_R   0.559216 0.936682 0.606561 -0.020478
C6    C     C_3   0.691861 0.928987 0.653802 -0.226934
C7    C     C_3   0.693571 0.070155 0.649094 0.013580
C8    C     C_R   0.588788 0.562430 0.074750 0.190088
C9    C     C_R   0.419464 0.428862 0.073124 -0.027438
C10   C     C_R   0.418747 0.428798 0.924036 0.199054
C11   C     C_R   0.591952 0.557917 0.928127 0.055225
C12   C     C_R   0.065127 0.559402 0.614694 0.045393
C13   C     C_3   0.631989 0.688909 0.914014 -0.216556
C14   C     C_3   0.620535 0.699210 0.072141 0.270345
C15   C     C_R   0.500517 0.737542 0.500160 0.558546
C16   C     C_R   0.738071 0.491498 0.502474 0.562548
C17   C     C_R   0.120309 0.634797 0.720781 0.179422
C18   C     C_R   0.069154 0.637303 0.853596 -0.116722
C19   C     C_R   0.961456 0.572223 0.878449 -0.169757
C20   C     C_R   0.897038 0.515730 0.768175 -0.123688
C21   C     C_R   0.942788 0.519158 0.630805 -0.031629
C22   C     C_3   0.765937 0.089964 0.399609 -0.288656
C23   C     C_R   0.128647 0.518999 0.495866 -0.022649
C24   C     C_3   0.795678 0.843478 0.115529 -0.329240
C25   C     C_3   0.393639 0.757941 0.077319 -0.310113
C26   C     C_3   0.174768 0.825518 0.608938 -0.316897
C27   C     C_R   0.063964 0.465445 0.383372 -0.168579
C28   C     C_R   0.936892 0.450327 0.387192 0.066256
C29   C     C_R   0.873720 0.482293 0.509145 0.017184
C30   C     C_R   0.560125 0.064435 0.604074 0.036690
C31   C     C_R   0.494114 0.129825 0.501721 0.021173
C32   C     C_R   0.418463 0.065062 0.406068 -0.172845
Cu1   Cu    Cu3+1 0.499990 0.499980 0.640670 0.964699
Cu2   Cu    Cu3+1 0.500010 0.500020 0.359330 0.950934
H1    H     H_    0.112263 0.432434 0.292756 0.124537
H2    H     H_    0.361322 0.114174 0.329931 0.119858
H3    H     H_    0.359774 0.886245 0.333253 0.119655
H4    H     H_    0.702589 0.894051 0.762240 0.098790
H5    H     H_    0.798816 0.213896 0.563617 0.255470
H6    H     H_    0.858145 0.095716 0.352081 0.130516
H7    H     H_    0.703929 0.156616 0.344414 0.165549
H8    H     H_    0.730036 0.994790 0.383200 0.154681
H9    H     H_    0.242852 0.380244 0.878692 0.205574
H10   H     H_    0.344596 0.261519 0.880641 0.197804
H11   H     H_    0.797946 0.653411 0.154039 0.241410
H12   H     H_    0.751813 0.881121 0.578341 0.147195
H13   H     H_    0.868434 0.862306 0.196247 0.133581
H14   H     H_    0.728351 0.920947 0.116526 0.154096
H15   H     H_    0.839672 0.839854 0.012031 0.130480
H16   H     H_    0.538923 0.839538 0.196330 0.280342
H17   H     H_    0.341646 0.846284 0.068056 0.113389
H18   H     H_    0.352918 0.701598 0.161615 0.177716
H19   H     H_    0.382931 0.707615 0.977238 0.136225
H20   H     H_    0.269300 0.745744 0.775850 0.243000
H21   H     H_    0.147412 0.796419 0.501364 0.146125
H22   H     H_    0.249932 0.894743 0.602975 0.150550
H23   H     H_    0.706994 0.112526 0.754269 0.120664
H24   H     H_    0.095301 0.870889 0.659590 0.141491
H25   H     H_    0.889968 0.447764 0.181760 0.212315
H26   H     H_    0.912073 0.306723 0.254080 0.213550
H27   H     H_    0.353047 0.373204 0.128081 0.108293
H28   H     H_    0.727678 0.694500 0.876058 0.109560
H29   H     H_    0.564681 0.746925 0.854539 0.160243
H30   H     H_    0.112049 0.690822 0.937147 0.092643
H31   H     H_    0.924901 0.569989 0.982266 0.096098
H32   H     H_    0.815833 0.464116 0.795061 0.150534
N1    N     N_R   0.500790 0.500930 0.147930 -0.250396
N2    N     N_R   0.500790 0.500890 0.852020 -0.213000
N3    N     N_2   0.777507 0.121881 0.546731 -0.514506
N4    N     N_3   0.331251 0.353529 0.849265 -0.552635
N5    N     N_2   0.736665 0.726208 0.146069 -0.492255
N6    N     N_2   0.522287 0.784728 0.110250 -0.487440
N7    N     N_2   0.216604 0.719611 0.689940 -0.489841
N8    N     N_3   0.873539 0.394193 0.270321 -0.612723
O1    O     O_R   0.500000 0.319640 0.618810 -0.477926
O2    O     O_R   0.500010 0.319680 0.381230 -0.514584
O3    O     O_R   0.319640 0.499980 0.618820 -0.438325
O4    O     O_R   0.319650 0.500020 0.381230 -0.535000
O5    O     O_R   0.499990 0.680320 0.618770 -0.504358
O6    O     O_R   0.500000 0.680360 0.381190 -0.493061
O7    O     O_R   0.680350 0.499980 0.618770 -0.533319
O8    O     O_R   0.680360 0.500020 0.381180 -0.449089

loop_
_geom_bond_atom_site_label_1
_geom_bond_atom_site_label_2
_ccdc_geom_bond_type
H11   N5    S    
C14   N5    S    
C19   C20   A    
C28   N8    S    
C26   H21   S    
C9    N1    A    
C22   H8    S    
C12   C23   A    
C9    H27   S    
C32   H2    S    
C20   H32   S    
C28   C29   A    
C25   H19   S    
C30   C31   A    
C22   H7    S    
C1    C31   S    
C26   N7    S    
C2    C32   A    
C18   C19   A    
Cu1   O3    S    
H16   N6    S    
Cu2   O6    S    
Cu1   O1    S    
C15   O5    A    
C13   H28   S    
C15   O6    A    
C12   C17   A    
C6    H4    S    
H10   N4    S    
C23   C27   A    
C9    C10   A    
C22   N3    S    
C7    C30   S    
C13   C14   S    
C17   N7    S    
C24   H13   S    
Cu1   Cu2   S    
C24   H14   S    
C4    C23   S    
Cu1   O5    S    
C27   H1    S    
C16   C29   S    
C21   C29   A    
C12   C21   A    
C1    O1    A    
C25   H17   S    
C4    O4    A    
H20   N7    S    
C31   C32   A    
C13   H29   S    
C22   H6    S    
C16   O8    A    
C17   C18   A    
H5    N3    S    
C25   N6    S    
C26   H24   S    
H25   N8    S    
C10   N4    S    
H9    N4    S    
C3    C15   S    
C11   N2    A    
C5    C30   A    
C24   H15   S    
C8    C14   S    
C6    H12   S    
C1    O2    A    
C14   N6    S    
C3    C5    A    
C26   H22   S    
Cu2   N1    S    
C7    N3    S    
C6    C7    S    
C10   N2    A    
C2    C3    A    
C25   H18   S    
C4    O3    A    
Cu2   O4    S    
C11   C13   S    
C2    H3    S    
C18   H30   S    
C5    C6    S    
C8    C11   A    
H26   N8    S    
C16   O7    A    
C19   H31   S    
C20   C21   A    
Cu1   N2    S    
C8    N1    A    
C27   C28   A    
Cu2   O8    S    
Cu1   O7    S    
C7    H23   S    
C24   N5    S    
Cu2   O2    S    
