data_mof_unit_9849.cif
_audit_creation_date              2012-12-10T20:26:25-0500
_audit_creation_method            fapswitch 2.2
_symmetry_space_group_name_H-M    P1
_symmetry_Int_Tables_number       1
_space_group_crystal_system       triclinic
_cell_length_a                    10.73491
_cell_length_b                    10.63096
_cell_length_c                    9.893027
_cell_angle_alpha                 88.820498
_cell_angle_beta                  91.032648
_cell_angle_gamma                 90.1504
_cell_volume                      1128.59055189

loop_
_atom_site_label
_atom_site_type_symbol
_atom_type_description
_atom_site_fract_x
_atom_site_fract_y
_atom_site_fract_z
_atom_type_partial_charge
C1    C     C_R   0.500866 0.260525 0.501052 0.890319
C2    C     C_R   0.499961 0.128787 0.500278 -0.092793
C3    C     C_R   0.405661 0.068427 0.426773 -0.257129
C4    C     C_R   0.404948 0.937745 0.422025 0.058623
C5    C     C_R   0.500126 0.871598 0.492398 -0.088284
C6    C     C_R   0.602904 0.934521 0.545208 0.072922
C7    C     C_3   0.669541 0.921179 0.678389 -0.484814
C8    C     C_3   0.670908 0.064018 0.681492 -0.460509
C9    C     C_R   0.400751 0.452606 0.070690 0.188224
C10   C     C_R   0.590791 0.561268 0.072028 0.134033
C11   C     C_R   0.590712 0.559991 0.927705 -0.170451
C12   C     C_R   0.262627 0.501240 0.498114 0.970275
C13   C     C_R   0.401201 0.451790 0.928552 0.158152
C14   C     C_3   0.350110 0.320400 0.927351 -0.198410
C15   C     C_3   0.349020 0.322679 0.081659 0.128575
C16   C     C_R   0.499085 0.739525 0.498414 0.901563
C17   C     C_R   0.737177 0.508009 0.501248 0.897868
C18   C     C_2   0.931161 0.534803 0.390515 -0.186816
C19   C     C_2   0.866814 0.540397 0.504759 -0.138578
C20   C     C_2   0.064217 0.550730 0.391160 0.490526
C21   C     C_2   0.130653 0.495426 0.491977 -0.363445
C22   C     C_R   0.603557 0.062733 0.548086 0.110738
H1    H     H_    0.886853 0.512217 0.294417 0.197347
H2    H     H_    0.765943 0.104931 0.673300 0.205510
H3    H     H_    0.664304 0.606643 0.872453 0.147146
H4    H     H_    0.256838 0.314760 0.876976 0.212942
H5    H     H_    0.413398 0.255155 0.134122 0.125957
H6    H     H_    0.086730 0.439730 0.571187 0.133378
H7    H     H_    0.331163 0.122460 0.378303 0.180359
H8    H     H_    0.611054 0.877075 0.758109 0.216230
H9    H     H_    0.763822 0.879857 0.668543 0.201026
H10   H     H_    0.614195 0.102069 0.763463 0.218378
N1    N     N_R   0.499170 0.499140 0.142800 -0.134128
N2    N     N_R   0.499170 0.499180 0.857150 -0.108181
O1    O     O_R   0.500020 0.316790 0.614690 -0.590493
O2    O     O_R   0.500000 0.316760 0.385350 -0.628098
O3    O     O_R   0.319080 0.500020 0.614640 -0.620189
O4    O     O_R   0.319070 0.499980 0.385300 -0.531697
O5    O     O_R   0.500000 0.683240 0.614650 -0.622541
O6    O     O_R   0.499980 0.683210 0.385310 -0.624969
O7    O     O_R   0.680930 0.500020 0.614700 -0.631371
O8    O     O_R   0.680920 0.499980 0.385360 -0.604350
Zn1   Zn    Zn3+2 0.500010 0.500020 0.653130 0.965564
Zn2   Zn    Zn3+2 0.499990 0.499980 0.346870 0.998695
N3    N     N_3   0.686803 0.627185 0.143995 -0.400891
H11   H     H_    0.646881 0.708722 0.181126 0.200422
H12   H     H_    0.756614 0.656618 0.078036 0.170318
N4    N     N_3   0.438461 0.229255 0.876197 -0.422510
H13   H     H_    0.523872 0.236526 0.928287 0.175519
H14   H     H_    0.403213 0.139215 0.896625 0.195415
Cl1   Cl    Cl    0.195288 0.321583 0.147050 -0.595917
N5    N     N_3   0.921257 0.588807 0.627360 -0.445196
H15   H     H_    0.870812 0.668245 0.654018 0.191511
H16   H     H_    0.911180 0.520863 0.704363 0.205211
Cl2   Cl    Cl    0.127516 0.638320 0.254875 -0.586006
N6    N     N_3   0.304976 0.872323 0.355073 -0.400768
H17   H     H_    0.339761 0.838758 0.264665 0.229601
H18   H     H_    0.233145 0.934707 0.328089 0.216187

loop_
_geom_bond_atom_site_label_1
_geom_bond_atom_site_label_2
_ccdc_geom_bond_type
C2    C22   A    
C8    C22   S    
O4    Zn2   S    
C6    C7    S    
C15   Cl1   S    
C14   N4    S    
O1    Zn1   S    
C15   H5    S    
N5    H16   S    
C10   N3    S    
N4    H14   S    
C2    C3    A    
C9    C15   S    
C13   N2    A    
C7    H8    S    
C13   C14   S    
C14   H4    S    
C9    N1    A    
O7    Zn1   S    
O8    Zn2   S    
C16   O6    A    
C20   Cl2   S    
C12   C21   S    
N4    H13   S    
C17   C19   S    
C21   H6    S    
N6    H18   S    
C18   C19   D    
C10   N1    A    
C18   C20   S    
N3    H12   S    
C12   O4    A    
C5    C6    A    
C17   O7    A    
O3    Zn1   S    
O2    Zn2   S    
C7    H9    S    
N6    H17   S    
C11   H3    S    
C16   O5    A    
C3    C4    A    
C6    C22   A    
O6    Zn2   S    
C20   C21   D    
C1    O1    A    
C1    C2    S    
C10   C11   A    
C17   O8    A    
C12   O3    A    
C3    H7    S    
C7    C8    S    
C9    C13   A    
C14   C15   S    
C5    C16   S    
O5    Zn1   S    
C8    H2    S    
N3    H11   S    
N1    Zn2   S    
C19   N5    S    
C11   N2    A    
C4    N6    S    
N2    Zn1   S    
C18   H1    S    
C1    O2    A    
N5    H15   S    
C4    C5    A    
C8    H10   S    
