data_mof_unit_15382.cif
_audit_creation_date              2013-03-05T16:47:20-0500
_audit_creation_method            fapswitch 2.2
_symmetry_space_group_name_H-M    P1
_symmetry_Int_Tables_number       1
_space_group_crystal_system       triclinic
_cell_length_a                    10.912201
_cell_length_b                    10.915401
_cell_length_c                    9.889932
_cell_angle_alpha                 90.049566
_cell_angle_beta                  92.95173
_cell_angle_gamma                 90.327179
_cell_volume                      1176.41732297

loop_
_atom_site_label
_atom_site_type_symbol
_atom_site_description
_atom_site_fract_x
_atom_site_fract_y
_atom_site_fract_z
_atom_type_partial_charge
O1    O     O_R   0.500020 0.321960 0.617040 -0.555465
O2    O     O_R   0.499980 0.321920 0.382900 -0.573518
C1    C     C_R   0.500491 0.266018 0.499930 0.861943
O3    O     O_R   0.319660 0.500030 0.617070 -0.523925
O4    O     O_R   0.319620 0.499990 0.382930 -0.607633
C2    C     C_R   0.263292 0.496878 0.496112 0.849354
Cu1   Cu    Cu3+1 0.500020 0.500020 0.638630 1.054708
Cu2   Cu    Cu3+1 0.499980 0.499980 0.361370 1.087095
O5    O     O_R   0.500020 0.678080 0.617100 -0.559084
O6    O     O_R   0.499980 0.678040 0.382960 -0.548807
O7    O     O_R   0.680380 0.500010 0.617070 -0.599330
O8    O     O_R   0.680340 0.499970 0.382930 -0.467521
C3    C     C_R   0.509448 0.733675 0.500408 0.878853
C4    C     C_R   0.737970 0.502785 0.501671 0.861267
C5    C     C_R   0.194592 0.808040 0.175123 -0.084646
C6    C     C_R   0.141166 0.749072 0.283944 0.334988
C7    C     C_R   0.117013 0.621602 0.275947 0.025033
C8    C     C_R   0.145516 0.556704 0.158927 -0.120939
H1    H     H_    0.126245 0.459427 0.150765 0.177041
C9    C     C_R   0.200435 0.616468 0.052739 -0.134001
C10   C     C_R   0.225169 0.741806 0.060947 -0.065413
C11   C     C_R   0.932599 0.558771 0.394157 -0.058606
C12   C     C_R   0.873791 0.501582 0.499943 -0.078534
C13   C     C_R   0.945882 0.444693 0.602123 -0.042711
C14   C     C_R   0.070867 0.427071 0.589108 0.318452
C15   C     C_R   0.129705 0.489115 0.486716 -0.159940
C16   C     C_R   0.059770 0.554426 0.386761 -0.020057
C17   C     C_R   0.903862 0.566461 0.800974 0.222015
C18   C     C_R   0.860400 0.576243 0.929419 0.183373
C19   C     C_R   0.825344 0.468638 0.996932 0.209508
C20   C     C_R   0.832939 0.353574 0.934443 -0.200359
C21   C     C_R   0.871075 0.344954 0.803949 -0.123345
C22   C     C_R   0.905458 0.451039 0.737858 -0.024810
C23   C     C_2   0.548380 0.936317 0.395259 0.304841
C24   C     C_2   0.537184 0.864275 0.504714 -0.337508
C25   C     C_2   0.566908 0.069210 0.415377 0.138726
C26   C     C_2   0.494293 0.133263 0.497415 0.017066
C27   C     C_2   0.467374 0.406803 0.921299 -0.040378
N1    N     N_2   0.498640 0.498660 0.846910 -0.299407
C28   C     C_2   0.478928 0.403691 0.075434 -0.007587
N2    N     N_2   0.498610 0.498630 0.153040 -0.235267
H2    H     H_    0.267583 0.787890 0.978348 0.207535
N3    N     N_R   0.773595 0.475830 0.124502 0.103060
O9    O     O_R   0.759918 0.376620 0.195203 -0.300444
O10   O     O_R   0.722221 0.577395 0.158933 -0.325191
H3    H     H_    0.804787 0.270729 0.984651 0.235717
H4    H     H_    0.873834 0.256495 0.754426 0.214077
N4    N     N_R   0.546053 0.888318 0.259919 0.161471
O11   O     O_R   0.475916 0.939427 0.166025 -0.339954
O12   O     O_R   0.634524 0.817705 0.224451 -0.233199
H5    H     H_    0.549576 0.904180 0.605267 0.186991
N5    N     N_R   0.668572 0.127573 0.352477 0.157898
O13   O     O_R   0.701776 0.091126 0.234633 -0.225738
O14   O     O_R   0.740273 0.202537 0.422303 -0.342320
N6    N     N_R   0.397575 0.076000 0.568199 0.116254
O15   O     O_R   0.391894 0.091356 0.698177 -0.273180
O16   O     O_R   0.309414 0.017916 0.501343 -0.271101
H6    H     H_    0.434367 0.323856 0.870882 0.224384
H7    H     H_    0.537205 0.573485 0.896264 0.225907
H8    H     H_    0.467779 0.315050 0.122652 0.190179
H9    H     H_    0.213910 0.905398 0.179576 0.203181
H10   H     H_    0.495623 0.582806 0.106410 0.237839
N7    N     N_R   0.110686 0.819619 0.399875 0.148344
O17   O     O_R   0.135201 0.778216 0.521414 -0.277941
O18   O     O_R   0.070278 0.930941 0.384647 -0.227045
H11   H     H_    0.223808 0.565747 0.963810 0.201407
H12   H     H_    0.880877 0.614945 0.323024 0.234648
N8    N     N_R   0.138495 0.348703 0.682375 0.132306
O19   O     O_R   0.194180 0.253407 0.636798 -0.266757
O20   O     O_R   0.150998 0.375740 0.810507 -0.378750
N9    N     N_R   0.948640 0.673918 0.735780 0.158752
O21   O     O_R   0.049129 0.725917 0.783984 -0.273526
O22   O     O_R   0.876283 0.734424 0.651585 -0.301369
N10   N     N_R   0.846694 0.696099 0.986364 0.199952
O23   O     O_R   0.776314 0.776086 0.923960 -0.245472
O24   O     O_R   0.911278 0.728901 0.094428 -0.313384

loop_
_geom_bond_atom_site_label_1
_geom_bond_atom_site_label_2
_geom_bond_distance
_ccdc_geom_bond_type
C4    C12   1.483213 S    
O4    Cu2   1.990528 S    
Cu1   O7    1.990527 S    
N3    O9    1.301578 A    
N7    O18   1.301253 A    
C28   N2    1.299312 D    
C18   C19   1.412180 A    
C28   H8    1.083661 S    
C6    N7    1.434874 S    
O5    C3    1.312806 A    
C8    C9    1.396119 A    
C13   C22   1.436177 S    
C25   N5    1.444728 S    
C5    C10   1.396154 A    
C19   C20   1.404069 A    
Cu2   O8    1.968695 S    
N1    H7    1.027936 S    
C21   C22   1.389418 A    
C9    C10   1.394457 A    
N6    O15   1.300898 A    
N4    O12   1.300788 A    
C7    C8    1.405747 A    
C5    H9    1.082650 S    
N9    O21   1.300168 A    
N7    O17   1.299930 A    
O1    Cu1   1.955106 S    
N5    O13   1.300843 A    
C27   C28   1.523530 S    
N3    O10   1.298219 A    
C15   C16   1.413357 A    
C2    C15   1.457883 S    
C14   N8    1.437231 S    
N10   O24   1.298458 A    
N2    H10   1.028339 S    
O3    Cu1   1.968696 S    
N4    O11   1.300715 A    
O4    C2    1.304848 A    
C9    H11   1.081188 S    
C25   C26   1.358882 D    
O7    C4    1.331200 A    
N5    O14   1.301801 A    
C17   C22   1.406155 A    
C3    C24   1.455764 S    
C23   C25   1.475347 S    
C11   C16   1.394469 A    
N6    O16   1.300570 A    
C24   H5    1.087064 S    
C27   N1    1.298542 D    
C19   N3    1.410860 S    
C21   H4    1.083581 S    
C11   H12   1.073893 S    
C17   N9    1.434383 S    
C23   N4    1.435921 S    
N10   O23   1.301078 A    
C12   C13   1.396589 A    
O3    C2    1.316998 A    
C5    C6    1.404982 A    
C7    C16   1.481757 S    
Cu1   Cu2   2.742061 S    
C8    H1    1.083392 S    
C13   C14   1.390942 A    
C1    C26   1.450404 S    
Cu2   O6    1.955106 S    
C23   C24   1.348749 D    
N9    O22   1.300841 A    
Cu1   O5    1.955408 S    
N8    O20   1.301005 A    
Cu1   N1    2.060770 S    
C11   C12   1.400624 A    
C17   C18   1.382901 A    
O2    C1    1.308659 A    
C18   N10   1.435536 S    
Cu2   N2    2.059693 S    
C14   C15   1.399831 A    
C27   H6    1.084020 S    
O6    C3    1.309341 A    
C10   H2    1.082389 S    
O2    Cu2   1.955407 S    
C20   C21   1.379548 A    
C6    C7    1.416029 A    
O8    C4    1.303522 A    
N8    O19   1.299628 A    
O1    C1    1.309105 A    
C20   H3    1.082578 S    
C26   N6    1.436638 S    
