data_mof_unit_38517.cif
_audit_creation_date              2012-12-10T19:44:35-0500
_audit_creation_method            fapswitch 2.2
_symmetry_space_group_name_H-M    P1
_symmetry_Int_Tables_number       1
_space_group_crystal_system       triclinic
_cell_length_a                    8.565126
_cell_length_b                    14.98807
_cell_length_c                    14.18396
_cell_angle_alpha                 90.187742
_cell_angle_beta                  99.011304
_cell_angle_gamma                 89.960484
_cell_volume                      1798.37797861

loop_
_atom_site_label
_atom_site_type_symbol
_atom_type_description
_atom_site_fract_x
_atom_site_fract_y
_atom_site_fract_z
_atom_type_partial_charge
C1    C     C_R   0.498015 0.327757 0.499675 0.850525
C2    C     C_R   0.498748 0.672251 0.499999 0.855835
C3    C     C_R   0.369603 0.470192 0.092602 -0.442431
C4    C     C_R   0.563551 0.568997 0.902427 -0.351708
C5    C     C_R   0.372601 0.467731 0.192045 0.571642
C6    C     C_R   0.572309 0.566854 0.804259 0.587352
C7    C     C_R   0.630683 0.528514 0.217463 -0.260345
C8    C     C_R   0.429090 0.431410 0.787376 -0.205703
C9    C     C_R   0.639541 0.524223 0.117708 0.415664
C10   C     C_R   0.432818 0.426135 0.887081 0.404109
C11   C     C_R   0.502952 0.497303 0.053904 0.036467
C12   C     C_R   0.498861 0.497214 0.946705 0.009757
C13   C     C_R   0.200929 0.499622 0.474926 0.955963
C14   C     C_R   0.799079 0.499891 0.525084 0.964380
C15   C     C_2   0.035574 0.498441 0.461527 -0.397674
C16   C     C_2   0.964459 0.500076 0.538550 -0.392076
C17   C     C_R   0.419354 0.096040 0.571193 -0.177907
C18   C     C_R   0.415480 0.903798 0.414379 -0.183000
C19   C     C_R   0.430404 0.187924 0.572741 -0.192579
C20   C     C_R   0.427282 0.811937 0.414855 -0.197001
C21   C     C_R   0.487931 0.232029 0.498401 -0.014206
C22   C     C_R   0.489598 0.768011 0.499330 -0.025935
C23   C     C_R   0.532787 0.184373 0.422051 -0.211266
C24   C     C_R   0.539757 0.815862 0.583387 -0.190145
C25   C     C_R   0.523489 0.092446 0.421107 -0.186828
C26   C     C_R   0.530102 0.907809 0.582565 -0.182602
C27   C     C_R   0.467633 0.048200 0.495951 0.120186
C28   C     C_R   0.468393 0.951839 0.497981 0.119482
H1    H     H_    0.972931 0.496161 0.388677 0.171875
H2    H     H_    0.027098 0.502044 0.611467 0.176430
H3    H     H_    0.374276 0.062292 0.628783 0.132323
H4    H     H_    0.366030 0.937367 0.348928 0.129935
H5    H     H_    0.393113 0.224337 0.631485 0.143949
H6    H     H_    0.386603 0.775338 0.349677 0.156723
H7    H     H_    0.577584 0.217938 0.364245 0.146980
H8    H     H_    0.588921 0.782449 0.648948 0.191257
H9    H     H_    0.563519 0.055882 0.363356 0.132403
H10   H     H_    0.574037 0.944558 0.647177 0.134000
H11   H     H_    0.262500 0.450864 0.046000 0.206925
H12   H     H_    0.609660 0.626514 0.943963 0.200759
H13   H     H_    0.727134 0.554010 0.268270 0.165188
H14   H     H_    0.373048 0.378731 0.741903 0.170846
N1    N     N_R   0.500000 0.499980 0.252470 -0.131386
N2    N     N_R   0.500000 0.500020 0.747530 -0.154955
O1    O     O_R   0.500010 0.369070 0.579480 -0.633701
O2    O     O_R   0.499990 0.630930 0.420520 -0.624461
O3    O     O_R   0.500010 0.369060 0.420520 -0.620828
O4    O     O_R   0.499990 0.630940 0.579480 -0.577400
O5    O     O_R   0.271750 0.500000 0.560890 -0.614496
O6    O     O_R   0.728250 0.500000 0.439110 -0.619783
O7    O     O_R   0.271750 0.499990 0.401930 -0.573965
O8    O     O_R   0.728250 0.500010 0.598070 -0.635880
Zn1   Zn    Zn3+2 0.500000 0.500010 0.606140 0.956874
Zn2   Zn    Zn3+2 0.500000 0.499990 0.393860 0.957542
O9    O     O_3   0.242605 0.437523 0.228875 -0.638651
C29   C     C_3   0.231608 0.343934 0.217943 0.072994
H15   H     H_    0.347993 0.310926 0.241696 0.140579
H16   H     H_    0.189082 0.326476 0.141902 0.138441
C30   C     C_3   0.113300 0.308577 0.279008 -0.302734
H17   H     H_    0.154340 0.325893 0.355100 0.229587
H18   H     H_    0.996259 0.340476 0.256339 0.208103
C31   C     C_3   0.095370 0.207501 0.269945 -0.977531
H19   H     H_    0.051872 0.188459 0.194660 0.261675
H20   H     H_    0.008823 0.184152 0.315120 0.267576
H21   H     H_    0.210479 0.174175 0.294181 0.274149
O10   O     O_3   0.652260 0.633888 0.765343 -0.645803
C32   C     C_3   0.814393 0.610807 0.772657 0.124020
H22   H     H_    0.856062 0.634563 0.706764 0.166850
H23   H     H_    0.837067 0.537327 0.776578 0.136996
C33   C     C_3   0.913228 0.657409 0.858172 -0.418532
H24   H     H_    0.894578 0.730696 0.852316 0.230881
H25   H     H_    0.876180 0.634405 0.925479 0.249668
C34   C     C_3   0.089048 0.636932 0.862882 -0.933934
H26   H     H_    0.110567 0.564013 0.870733 0.268795
H27   H     H_    0.157488 0.671377 0.925497 0.267227
H28   H     H_    0.131585 0.660532 0.797213 0.267561
O11   O     O_3   0.773536 0.546139 0.077404 -0.677941
C35   C     C_3   0.916354 0.555409 0.141692 0.101488
H29   H     H_    0.013512 0.536138 0.102222 0.188915
H30   H     H_    0.927065 0.508682 0.203071 0.144164
C36   C     C_3   0.942150 0.653268 0.171908 -0.396969
H31   H     H_    0.945430 0.694638 0.107333 0.225420
H32   H     H_    0.842850 0.677514 0.206879 0.217920
C37   C     C_3   0.096694 0.665856 0.240254 -0.881078
H33   H     H_    0.093159 0.628402 0.307152 0.274378
H34   H     H_    0.113402 0.737704 0.258249 0.244125
H35   H     H_    0.198389 0.642505 0.206834 0.269082
O12   O     O_3   0.366327 0.352617 0.924071 -0.659463
C38   C     C_3   0.486427 0.291199 0.960192 0.086345
H36   H     H_    0.444782 0.254159 0.019276 0.156878
H37   H     H_    0.599965 0.323789 0.991762 0.133964
C39   C     C_3   0.514562 0.224318 0.882545 -0.362950
H38   H     H_    0.400512 0.192877 0.851383 0.229216
H39   H     H_    0.563108 0.259513 0.824724 0.215580
C40   C     C_3   0.630822 0.151660 0.922756 -0.956743
H40   H     H_    0.746514 0.181609 0.953084 0.266094
H41   H     H_    0.649173 0.104695 0.864767 0.265715
H42   H     H_    0.583717 0.113743 0.979313 0.260833

loop_
_geom_bond_atom_site_label_1
_geom_bond_atom_site_label_2
_ccdc_geom_bond_type
O9    C29   S    
C1    C21   S    
C34   H26   S    
C40   H40   S    
C37   H35   S    
C8    H14   S    
C36   H31   S    
C40   H42   S    
O11   C35   S    
C2    O2    A    
C10   O12   S    
O6    Zn2   S    
C19   C21   A    
C24   C26   A    
C35   H30   S    
C16   H2    S    
C15   C16   D    
C29   H15   S    
C31   H20   S    
C25   H9    S    
C13   O7    A    
N2    Zn1   S    
C14   O8    A    
C4    H12   S    
C2    C22   S    
C33   H24   S    
C7    N1    A    
C38   H37   S    
C4    C12   A    
C18   C20   A    
C20   H6    S    
C23   C25   A    
O10   C32   S    
C5    N1    A    
O1    Zn1   S    
C30   H17   S    
C6    N2    A    
C34   H27   S    
C36   H32   S    
C15   H1    S    
O4    Zn1   S    
C30   H18   S    
C32   H22   S    
C17   C27   A    
C18   C28   A    
C37   H33   S    
C4    C6    A    
C19   H5    S    
C35   H29   S    
C26   H10   S    
C9    O11   S    
C2    O4    A    
C39   C40   S    
C32   H23   S    
C31   H19   S    
N1    Zn2   S    
O2    Zn2   S    
C33   C34   S    
C39   H39   S    
C24   H8    S    
C38   C39   S    
C9    C11   A    
C10   C12   A    
O3    Zn2   S    
C13   O5    A    
C20   C22   A    
C23   H7    S    
C13   C15   S    
C17   H3    S    
C34   H28   S    
C22   C24   A    
C18   H4    S    
C36   C37   S    
O8    Zn1   S    
C7    C9    A    
C30   C31   S    
C31   H21   S    
C5    O9    S    
C1    O3    A    
C8    N2    A    
C37   H34   S    
C3    C5    A    
C11   C12   S    
C40   H41   S    
C25   C27   A    
C26   C28   A    
C29   C30   S    
O7    Zn2   S    
C32   C33   S    
C21   C23   A    
C35   C36   S    
C1    O1    A    
C14   O6    A    
O5    Zn1   S    
C39   H38   S    
C17   C19   A    
C29   H16   S    
C14   C16   S    
C7    H13   S    
C3    C11   A    
C3    H11   S    
C6    O10   S    
O12   C38   S    
C8    C10   A    
C27   C28   S    
C33   H25   S    
C38   H36   S    
