data_mof_unit_61571.cif
_audit_creation_date              2013-03-05T16:31:43-0500
_audit_creation_method            fapswitch 2.2
_symmetry_space_group_name_H-M    P1
_symmetry_Int_Tables_number       1
_space_group_crystal_system       triclinic
_cell_length_a                    41.766544
_cell_length_b                    35.649706
_cell_length_c                    21.586625
_cell_angle_alpha                 89.972606
_cell_angle_beta                  58.602138
_cell_angle_gamma                 89.983424
_cell_volume                      27435.2204552

loop_
_atom_site_label
_atom_site_type_symbol
_atom_site_description
_atom_site_fract_x
_atom_site_fract_y
_atom_site_fract_z
_atom_type_partial_charge
O1    O     O_R   0.945620 0.531450 0.554380 -0.583146
O2    O     O_R   0.054380 0.531450 0.445620 -0.583150
O3    O     O_R   0.445620 0.031450 0.554380 -0.582821
O4    O     O_R   0.554380 0.031450 0.445620 -0.582446
O5    O     O_R   0.945570 0.468490 0.554430 -0.539690
O6    O     O_R   0.054430 0.468490 0.445570 -0.539741
O7    O     O_R   0.445570 0.968490 0.554430 -0.539183
O8    O     O_R   0.554430 0.968490 0.445570 -0.539500
C1    C     C_R   0.927561 0.499926 0.572813 0.904037
C2    C     C_R   0.072440 0.499919 0.427199 0.904100
C3    C     C_R   0.427516 0.999942 0.572652 0.904025
C4    C     C_R   0.572483 0.999941 0.427366 0.903903
O9    O     O_R   0.999990 0.531450 0.408860 -0.573560
O10   O     O_R   0.000010 0.531450 0.591140 -0.573527
O11   O     O_R   0.499990 0.031450 0.408860 -0.573231
O12   O     O_R   0.500010 0.031450 0.591140 -0.573200
O13   O     O_R   0.999940 0.468490 0.408900 -0.574040
O14   O     O_R   0.000060 0.468490 0.591100 -0.574198
O15   O     O_R   0.499940 0.968490 0.408900 -0.574668
O16   O     O_R   0.500060 0.968490 0.591100 -0.574963
C5    C     C_R   0.001067 0.500027 0.378838 0.932122
C6    C     C_R   0.998937 0.500017 0.621157 0.932015
C7    C     C_R   0.501129 0.000036 0.378777 0.930781
C8    C     C_R   0.498879 0.000016 0.621218 0.931185
Cu1   Cu    Cu3+1 0.000000 0.537250 0.500000 1.074094
Cu2   Cu    Cu3+1 0.500000 0.037250 0.500000 1.075555
Cu3   Cu    Cu3+1 0.000000 0.462700 0.500000 1.144018
Cu4   Cu    Cu3+1 0.500000 0.962700 0.500000 1.134988
C9    C     C_3   0.958641 0.504856 0.330843 0.785633
C10   C     C_3   0.041370 0.504789 0.669136 0.785636
C11   C     C_3   0.458532 0.003034 0.330939 0.786874
C12   C     C_3   0.541432 0.003496 0.669097 0.786575
C13   C     C_3   0.959349 0.504967 0.256876 -0.558614
C14   C     C_3   0.040659 0.504896 0.743104 -0.558444
C15   C     C_3   0.459234 0.003339 0.256979 -0.558239
C16   C     C_3   0.540731 0.003788 0.743053 -0.558476
H1    H     H_    0.943089 0.481535 0.253267 0.178507
H2    H     H_    0.056880 0.481434 0.746785 0.178475
H3    H     H_    0.443931 0.979366 0.252119 0.178633
H4    H     H_    0.556337 0.980003 0.747621 0.178938
H5    H     H_    0.944088 0.529325 0.253679 0.155034
H6    H     H_    0.055956 0.529229 0.746231 0.155053
H7    H     H_    0.443009 0.027121 0.254960 0.155925
H8    H     H_    0.556669 0.027763 0.745324 0.155607
H9    H     H_    0.008914 0.560794 0.289213 0.156766
H10   H     H_    0.991169 0.560792 0.710613 0.156803
H11   H     H_    0.506391 0.061107 0.291719 0.155498
H12   H     H_    0.492877 0.060977 0.708941 0.155701
C17   C     C_3   0.024626 0.535020 0.261349 0.006288
C18   C     C_3   0.975422 0.535040 0.738546 0.006519
C19   C     C_3   0.523186 0.036039 0.262711 0.008347
C20   C     C_3   0.476384 0.035704 0.737659 0.007770
C21   C     C_3   0.016359 0.462997 0.267644 -0.382196
C22   C     C_3   0.983603 0.463006 0.732437 -0.383024
C23   C     C_3   0.517993 0.963751 0.266076 -0.395056
C24   C     C_3   0.482456 0.963478 0.733576 -0.392925
C25   C     C_3   0.000620 0.500656 0.310290 -0.133651
C26   C     C_3   0.999386 0.500640 0.689697 -0.133228
C27   C     C_3   0.500654 0.000677 0.310260 -0.128319
C28   C     C_3   0.499342 0.000621 0.689757 -0.128959
H13   H     H_    0.045886 0.458611 0.252310 0.270696
H14   H     H_    0.954072 0.458658 0.747768 0.270583
H15   H     H_    0.547691 0.960670 0.250539 0.267092
H16   H     H_    0.452796 0.960033 0.749104 0.267439
H17   H     H_    0.000408 0.438651 0.302339 0.227672
H18   H     H_    0.999530 0.438640 0.697815 0.227375
H19   H     H_    0.503141 0.938728 0.299692 0.225365
H20   H     H_    0.497610 0.938642 0.699670 0.225226
C29   C     C_3   0.000285 0.501438 0.188849 -0.165941
C30   C     C_3   0.999717 0.501431 0.811140 -0.165628
C31   C     C_3   0.500262 0.001471 0.188870 -0.163107
C32   C     C_3   0.499727 0.001423 0.811151 -0.163284
C33   C     C_3   0.028673 0.533007 0.184934 0.611732
C34   C     C_3   0.971371 0.533039 0.814967 0.611529
C35   C     C_3   0.527287 0.034199 0.186217 0.609771
C36   C     C_3   0.472293 0.033814 0.814131 0.610480
C37   C     C_3   0.013309 0.462389 0.199456 -0.407610
C38   C     C_3   0.986638 0.462405 0.800639 -0.408180
C39   C     C_3   0.514927 0.963017 0.197933 -0.409944
C40   C     C_3   0.485553 0.962772 0.801710 -0.409473
H21   H     H_    0.992791 0.440390 0.206143 0.188410
H22   H     H_    0.007104 0.440365 0.794071 0.188041
H23   H     H_    0.495389 0.940147 0.203617 0.186691
H24   H     H_    0.505428 0.940179 0.795656 0.187056
H25   H     H_    0.040016 0.453179 0.151222 0.275193
H26   H     H_    0.959901 0.453269 0.848867 0.275965
H27   H     H_    0.542051 0.955030 0.149457 0.277135
H28   H     H_    0.458582 0.954359 0.850208 0.275126
C41   C     C_R   0.673091 0.481938 0.873782 -0.218392
C42   C     C_R   0.326869 0.481040 0.127635 -0.216214
C43   C     C_R   0.173457 0.975777 0.858024 -0.215919
C44   C     C_R   0.826539 0.975784 0.142109 -0.216281
H29   H     H_    0.688532 0.466831 0.893597 0.227907
H30   H     H_    0.311370 0.465549 0.108433 0.228302
H31   H     H_    0.189628 0.954530 0.865798 0.231029
H32   H     H_    0.810366 0.954518 0.134423 0.231003
C45   C     C_R   0.633923 0.479482 0.911681 0.278086
C46   C     C_R   0.366051 0.478754 0.089421 0.272049
C47   C     C_R   0.134256 0.973393 0.896933 0.273096
C48   C     C_R   0.865741 0.973401 0.103183 0.274061
C49   C     C_R   0.613776 0.498913 0.885376 -0.296745
C50   C     C_R   0.386256 0.498753 0.114880 -0.288897
C51   C     C_R   0.113358 0.000883 0.885719 -0.270331
C52   C     C_R   0.886643 0.000915 0.114284 -0.270685
C53   C     C_R   0.633778 0.518650 0.818733 0.335209
C54   C     C_R   0.366347 0.518936 0.181012 0.350570
C55   C     C_R   0.132112 0.029967 0.834833 0.326912
C56   C     C_R   0.867893 0.030020 0.165075 0.326372
C57   C     C_R   0.673223 0.521847 0.782295 0.259955
C58   C     C_R   0.326878 0.521915 0.217762 0.256341
C59   C     C_R   0.171670 0.032612 0.797432 0.267058
C60   C     C_R   0.828335 0.032665 0.202484 0.267475
C61   C     C_R   0.692664 0.502883 0.810033 -0.128695
C62   C     C_R   0.307362 0.502378 0.190858 -0.129231
C63   C     C_R   0.192149 0.004799 0.808574 -0.130310
C64   C     C_R   0.807851 0.004828 0.191462 -0.130403
C65   C     C_1   0.732895 0.504128 0.773415 0.181269
C66   C     C_1   0.267129 0.503655 0.227529 0.181953
C67   C     C_1   0.232498 0.005597 0.770722 0.177192
C68   C     C_1   0.767501 0.005623 0.229338 0.177029
C69   C     C_1   0.766608 0.504510 0.741818 0.184679
C70   C     C_1   0.233420 0.504121 0.259045 0.184102
C71   C     C_1   0.266261 0.005507 0.738873 0.177842
C72   C     C_1   0.733737 0.005528 0.261205 0.177837
C73   C     C_R   0.825554 0.470201 0.699070 0.229216
C74   C     C_R   0.174428 0.469973 0.301574 0.229040
C75   C     C_R   0.324949 0.970115 0.694308 0.229453
C76   C     C_R   0.675056 0.970147 0.305690 0.229595
C77   C     C_R   0.864968 0.468187 0.655543 0.258040
C78   C     C_R   0.135004 0.468066 0.344833 0.257912
C79   C     C_R   0.364434 0.967979 0.651830 0.254967
C80   C     C_R   0.635572 0.968002 0.348160 0.254908
C81   C     C_R   0.885933 0.500099 0.616423 -0.234101
C82   C     C_R   0.114070 0.500039 0.383700 -0.233965
C83   C     C_R   0.385796 0.000255 0.615553 -0.236476
C84   C     C_R   0.614202 0.000253 0.384514 -0.236667
C85   C     C_R   0.866937 0.533492 0.621371 -0.278663
C86   C     C_R   0.133109 0.533395 0.378715 -0.278779
C87   C     C_R   0.367067 0.034166 0.622658 -0.273557
C88   C     C_R   0.632923 0.034144 0.377546 -0.273785
H33   H     H_    0.882788 0.558113 0.592060 0.213091
H34   H     H_    0.117283 0.558061 0.407815 0.213171
H35   H     H_    0.383124 0.059133 0.595884 0.214711
H36   H     H_    0.616862 0.059087 0.404432 0.214732
C89   C     C_R   0.827782 0.536016 0.664404 0.332220
C90   C     C_R   0.172284 0.535812 0.335931 0.331897
C91   C     C_R   0.327898 0.036848 0.665012 0.326979
C92   C     C_R   0.672092 0.036836 0.335194 0.326962
C93   C     C_R   0.807011 0.504025 0.703034 -0.170978
C94   C     C_R   0.193020 0.503748 0.297610 -0.171245
C95   C     C_R   0.306719 0.004493 0.700471 -0.172326
C96   C     C_R   0.693279 0.004509 0.299622 -0.172498
O17   O     O_R   0.968510 0.554330 0.031500 -0.581858
O18   O     O_R   0.031490 0.554330 0.968500 -0.581838
O19   O     O_R   0.468510 0.054330 0.031500 -0.582652
O20   O     O_R   0.531490 0.054330 0.968500 -0.582399
C97   C     C_R   0.999999 0.572305 0.999999 0.847360
C98   C     C_R   0.499998 0.072306 0.999998 0.850770
O21   O     O_R   0.968510 0.499950 0.122650 -0.615885
O22   O     O_R   0.031490 0.499950 0.877350 -0.616234
O23   O     O_R   0.468510 0.999950 0.122650 -0.617230
O24   O     O_R   0.531490 0.999950 0.877350 -0.616576
O25   O     O_R   0.031450 0.499990 0.059700 -0.521133
O26   O     O_R   0.968550 0.499990 0.940300 -0.520826
O27   O     O_R   0.531450 0.999990 0.059700 -0.519979
O28   O     O_R   0.468550 0.999990 0.940300 -0.521053
C99   C     C_R   0.999938 0.500723 0.120285 0.833825
C100  C     C_R   0.000062 0.500715 0.879712 0.833302
C101  C     C_R   0.499933 0.000700 0.120289 0.836332
C102  C     C_R   0.500065 0.000688 0.879715 0.835659
Cu5   Cu    Cu3+1 0.962700 0.499940 0.037300 1.083978
Cu6   Cu    Cu3+1 0.037300 0.499940 0.962700 1.082556
Cu7   Cu    Cu3+1 0.462700 0.999940 0.037300 1.085290
Cu8   Cu    Cu3+1 0.537300 0.999940 0.962700 1.086703
O29   O     O_R   0.968500 0.445560 0.031500 -0.544908
O30   O     O_R   0.031500 0.445560 0.968500 -0.545106
O31   O     O_R   0.468500 0.945560 0.031500 -0.541883
O32   O     O_R   0.531500 0.945560 0.968500 -0.541742
C103  C     C_R   0.999955 0.427521 0.999927 0.901189
C104  C     C_R   0.500030 0.927496 0.000246 0.909360
O33   O     O_R   0.499920 0.445680 0.947340 -0.582346
O34   O     O_R   0.500080 0.445680 0.052660 -0.581090
O35   O     O_R   0.999920 0.945680 0.947340 -0.581928
O36   O     O_R   0.000080 0.945680 0.052660 -0.581990
C105  C     C_R   0.500002 0.427825 0.000009 0.818872
C106  C     C_R   0.000001 0.927824 0.000012 0.860917
O37   O     O_R   0.554340 0.500070 0.892900 -0.575724
O38   O     O_R   0.445660 0.500070 0.107100 -0.582168
O39   O     O_R   0.054340 0.000070 0.892900 -0.606638
O40   O     O_R   0.945660 0.000070 0.107100 -0.606225
O41   O     O_R   0.554350 0.500090 0.998410 -0.545502
O42   O     O_R   0.445650 0.500090 0.001590 -0.540550
O43   O     O_R   0.054350 0.000090 0.998410 -0.531077
O44   O     O_R   0.945650 0.000090 0.001590 -0.532275
C107  C     C_R   0.572166 0.499570 0.927599 0.912201
C108  C     C_R   0.427847 0.499484 0.072425 0.940585
C109  C     C_R   0.072019 0.000260 0.927778 0.951554
C110  C     C_R   0.927981 0.000286 0.072220 0.946700
Cu9   Cu    Cu3+1 0.499970 0.500070 0.937560 1.073433
Cu10  Cu    Cu3+1 0.500030 0.500070 0.062440 1.056580
Cu11  Cu    Cu3+1 0.999970 0.000070 0.937560 1.081668
Cu12  Cu    Cu3+1 0.000030 0.000070 0.062440 1.076150
O45   O     O_R   0.500010 0.554450 0.947200 -0.544496
O46   O     O_R   0.499990 0.554450 0.052800 -0.576020
O47   O     O_R   0.000010 0.054450 0.947200 -0.560815
O48   O     O_R   0.999990 0.054450 0.052800 -0.568498
C111  C     C_R   0.500151 0.572083 0.999795 0.930677
C112  C     C_R   0.000161 0.072136 0.999812 0.935035
C113  C     C_R   0.499313 0.327035 0.944639 -0.134347
C114  C     C_R   0.500664 0.326999 0.055424 -0.134221
C115  C     C_R   0.999535 0.827022 0.944449 -0.130089
C116  C     C_R   0.000460 0.827005 0.055673 -0.130124
H37   H     H_    0.498785 0.312075 0.901497 0.148205
H38   H     H_    0.501187 0.312011 0.098566 0.148345
H39   H     H_    0.999176 0.812055 0.901139 0.148576
H40   H     H_    0.000818 0.812024 0.098994 0.148556
C117  C     C_R   0.499309 0.366249 0.944576 -0.136589
C118  C     C_R   0.500680 0.366216 0.055481 -0.137264
C119  C     C_R   0.999526 0.866237 0.944373 -0.123891
C120  C     C_R   0.000472 0.866221 0.055716 -0.123743
H41   H     H_    0.498747 0.380822 0.901131 0.173460
H42   H     H_    0.501245 0.380765 0.098921 0.173716
H43   H     H_    0.999134 0.880804 0.900748 0.170950
H44   H     H_    0.000865 0.880776 0.099327 0.170924
C121  C     C_R   0.499998 0.386294 0.000026 -0.022773
C122  C     C_R   1.000000 0.886290 0.000036 -0.003832
C123  C     C_R   0.499985 0.307350 0.000031 0.117670
C124  C     C_R   0.999997 0.807346 0.000068 0.116100
C125  C     C_1   0.499982 0.267009 0.000020 -0.025619
C126  C     C_1   0.999996 0.767006 0.000076 -0.022246
C127  C     C_1   0.999995 0.733207 0.000069 0.096028
C128  C     C_1   0.499980 0.233211 0.999996 0.096534
C129  C     C_R   0.033867 0.673082 0.958841 0.413404
C130  C     C_R   0.966125 0.673077 0.041231 0.413423
C131  C     C_R   0.533941 0.173087 0.959948 0.412927
C132  C     C_R   0.466022 0.173084 0.039968 0.412685
C133  C     C_R   0.033790 0.633733 0.960294 -0.276244
C134  C     C_R   0.966203 0.633729 0.039739 -0.276083
C135  C     C_R   0.533851 0.133739 0.961480 -0.272815
C136  C     C_R   0.466124 0.133732 0.038462 -0.275386
H45   H     H_    0.060212 0.618933 0.929753 0.195583
H46   H     H_    0.939782 0.618928 0.070266 0.195526
H47   H     H_    0.560324 0.118942 0.931930 0.196160
H48   H     H_    0.439655 0.118928 0.067984 0.196314
C137  C     C_R   0.999997 0.613764 0.000009 -0.163267
C138  C     C_R   0.499992 0.113767 0.999989 -0.162254
C139  C     C_R   0.999996 0.692761 0.000050 -0.083003
C140  C     C_R   0.499980 0.192765 0.999966 -0.083045
C141  C     C_R   0.532858 0.672664 0.950727 0.239240
C142  C     C_R   0.469987 0.672318 0.059808 0.235906
C143  C     C_R   0.020662 0.173092 0.023632 0.235102
C144  C     C_R   0.974755 0.172456 0.985590 0.236048
C145  C     C_R   0.531667 0.633271 0.947060 0.192189
C146  C     C_R   0.469101 0.632887 0.056316 0.196945
C147  C     C_R   0.022423 0.133612 0.020038 0.206648
C148  C     C_R   0.976518 0.133091 0.982081 0.209419
C149  C     C_R   0.499957 0.613396 0.000057 -0.334184
C150  C     C_R   0.000047 0.113534 0.999887 -0.346989
C151  C     C_R   0.501869 0.692048 0.006922 -0.225391
C152  C     C_R   0.996641 0.192310 0.006814 -0.222479
C153  C     C_1   0.501319 0.732465 0.006380 0.163976
C154  C     C_1   0.996539 0.232694 0.006153 0.159143
C155  C     C_1   0.996834 0.266405 0.005292 0.142125
C156  C     C_1   0.500834 0.766184 0.005562 0.170868
C157  C     C_R   0.030129 0.325685 0.990846 0.345659
C158  C     C_R   0.966274 0.326856 0.014841 0.339634
C159  C     C_R   0.529984 0.826550 0.001832 0.347737
C160  C     C_R   0.470913 0.825510 0.005065 0.345884
C161  C     C_R   0.030282 0.365121 0.993443 0.207515
C162  C     C_R   0.967985 0.366120 0.008643 0.209587
C163  C     C_R   0.530394 0.865973 0.998995 0.195120
C164  C     C_R   0.470263 0.865007 0.004721 0.198481
C165  C     C_R   0.999564 0.385782 0.000241 -0.408638
C166  C     C_R   0.500218 0.885713 0.001266 -0.391370
C167  C     C_R   0.997729 0.306717 0.003672 -0.219296
C168  C     C_R   0.500509 0.806536 0.004284 -0.210161
O49   O     O_3   0.945877 0.540266 0.366409 -0.631656
C169  C     C_3   0.906567 0.544899 0.404114 0.045471
H49   H     H_    0.892692 0.526088 0.452172 0.191693
H50   H     H_    0.895208 0.540072 0.368360 0.134051
C170  C     C_3   0.897231 0.585078 0.431291 -0.709163
H51   H     H_    0.910552 0.604847 0.384704 0.234052
H52   H     H_    0.866379 0.589270 0.461252 0.246324
H53   H     H_    0.907672 0.591131 0.468195 0.261848
O50   O     O_3   0.054173 0.540184 0.633480 -0.631673
C171  C     C_3   0.093486 0.544778 0.595786 0.045312
H54   H     H_    0.107349 0.525963 0.547761 0.191655
H55   H     H_    0.104834 0.539927 0.631558 0.134060
C172  C     C_3   0.102861 0.584954 0.568547 -0.708972
H56   H     H_    0.089544 0.604725 0.615102 0.234057
H57   H     H_    0.133715 0.589117 0.538612 0.246391
H58   H     H_    0.092440 0.591030 0.531609 0.261858
O51   O     O_3   0.444219 0.037803 0.368233 -0.632492
C173  C     C_3   0.404730 0.040595 0.406391 0.041587
H59   H     H_    0.391838 0.021134 0.453527 0.189823
H60   H     H_    0.393499 0.035255 0.370572 0.134450
C174  C     C_3   0.393561 0.080286 0.435524 -0.712508
H61   H     H_    0.405489 0.100629 0.389845 0.235421
H62   H     H_    0.362525 0.082897 0.466646 0.241871
H63   H     H_    0.404228 0.086978 0.471817 0.263119
O52   O     O_3   0.555320 0.038439 0.632184 -0.632043
C175  C     C_3   0.594772 0.041711 0.594040 0.042580
H64   H     H_    0.607905 0.022366 0.546762 0.190019
H65   H     H_    0.606063 0.036571 0.629828 0.134196
C176  C     C_3   0.605455 0.081508 0.565174 -0.712914
H66   H     H_    0.593195 0.101762 0.610977 0.235290
H67   H     H_    0.636453 0.084524 0.534242 0.242190
H68   H     H_    0.594799 0.087961 0.528759 0.262954
N1    N     N_R   0.061206 0.539976 0.255500 0.167405
O53   O     O_R   0.076379 0.513695 0.273776 -0.342387
O54   O     O_R   0.079097 0.571534 0.230757 -0.257150
N2    N     N_R   0.938851 0.540051 0.744374 0.167467
O55   O     O_R   0.923641 0.513792 0.726178 -0.342610
O56   O     O_R   0.921004 0.571635 0.769019 -0.257235
N3    N     N_R   0.559547 0.042563 0.257000 0.169524
O57   O     O_R   0.575805 0.017006 0.274324 -0.343413
O58   O     O_R   0.576099 0.074831 0.233445 -0.256481
N4    N     N_R   0.439953 0.041784 0.743410 0.168979
O59   O     O_R   0.424000 0.016014 0.725866 -0.343501
O60   O     O_R   0.423016 0.073856 0.767252 -0.256339
N5    N     N_R   0.067847 0.522246 0.128794 0.184364
O61   O     O_R   0.086286 0.541987 0.069526 -0.237692
O62   O     O_R   0.085951 0.495536 0.138798 -0.298166
N6    N     N_R   0.932183 0.522333 0.871144 0.184416
O63   O     O_R   0.913784 0.542084 0.930379 -0.237733
O64   O     O_R   0.914029 0.495672 0.861198 -0.298017
N7    N     N_R   0.566848 0.025068 0.129548 0.184318
O65   O     O_R   0.584254 0.045292 0.070732 -0.239162
O66   O     O_R   0.586179 0.999324 0.138546 -0.301422
N8    N     N_R   0.432840 0.024197 0.870655 0.184437
O67   O     O_R   0.415104 0.044311 0.929537 -0.238706
O68   O     O_R   0.413893 0.998124 0.861433 -0.301725
N9    N     N_R   0.615350 0.455589 0.974449 0.154858
O69   O     O_R   0.628194 0.452755 0.017739 -0.298576
O70   O     O_R   0.589702 0.432138 0.981860 -0.361770
N10   N     N_R   0.384604 0.454562 0.027125 0.153802
O71   O     O_R   0.371478 0.451012 0.984412 -0.296296
O72   O     O_R   0.410619 0.431589 0.019622 -0.365988
N11   N     N_R   0.116353 0.942358 0.945745 0.148354
O73   O     O_R   0.131695 0.927432 0.979132 -0.291110
O74   O     O_R   0.087645 0.925719 0.949615 -0.386274
N12   N     N_R   0.883641 0.942344 0.054472 0.148520
O75   O     O_R   0.868291 0.927386 0.021151 -0.291143
O76   O     O_R   0.912355 0.925722 0.050639 -0.385844
O77   O     O_3   0.614485 0.536370 0.790884 -0.480159
C177  C     C_3   0.616464 0.513824 0.735104 0.109011
H69   H     H_    0.606656 0.484663 0.754353 0.121660
H70   H     H_    0.645618 0.512733 0.687432 0.166639
C178  C     C_3   0.591414 0.530613 0.710524 -0.607208
H71   H     H_    0.600714 0.559594 0.690139 0.279119
H72   H     H_    0.592983 0.513303 0.666269 0.178320
H73   H     H_    0.561873 0.531346 0.756610 0.251552
O78   O     O_3   0.385797 0.537770 0.207337 -0.478251
C179  C     C_3   0.384379 0.516433 0.263916 0.102627
H74   H     H_    0.394356 0.487163 0.246127 0.122813
H75   H     H_    0.355374 0.515534 0.312093 0.168837
C180  C     C_3   0.409684 0.534591 0.286520 -0.619388
H76   H     H_    0.399940 0.563575 0.306183 0.279758
H77   H     H_    0.408979 0.518040 0.330806 0.182587
H78   H     H_    0.438996 0.535640 0.239601 0.246759
O79   O     O_3   0.111271 0.057459 0.826331 -0.521533
C181  C     C_3   0.111524 0.050603 0.761608 0.082263
H79   H     H_    0.102619 0.021372 0.759677 0.139771
H80   H     H_    0.139910 0.055442 0.713187 0.181396
C182  C     C_3   0.084309 0.077431 0.757703 -0.646819
H81   H     H_    0.092773 0.106895 0.758340 0.264250
H82   H     H_    0.084353 0.072523 0.706865 0.201476
H83   H     H_    0.055496 0.072877 0.804771 0.259708
O80   O     O_3   0.888737 0.057543 0.173442 -0.521592
C183  C     C_3   0.888490 0.050765 0.238190 0.085141
H84   H     H_    0.897491 0.021576 0.240160 0.139646
H85   H     H_    0.860085 0.055533 0.286599 0.181218
C184  C     C_3   0.915608 0.077722 0.242072 -0.651846
H86   H     H_    0.907041 0.107145 0.241397 0.266205
H87   H     H_    0.915578 0.072871 0.292918 0.201741
H88   H     H_    0.944438 0.073247 0.195010 0.255611
N13   N     N_R   0.693005 0.544871 0.718298 0.144511
O81   O     O_R   0.679226 0.577068 0.715153 -0.217782
O82   O     O_R   0.723906 0.533093 0.661643 -0.351129
N14   N     N_R   0.307138 0.545413 0.281041 0.144095
O83   O     O_R   0.320744 0.577946 0.282876 -0.216882
O84   O     O_R   0.276392 0.533810 0.338273 -0.350307
N15   N     N_R   0.190553 0.063916 0.750068 0.145711
O85   O     O_R   0.176852 0.097612 0.768885 -0.244798
O86   O     O_R   0.220576 0.058736 0.686613 -0.334576
N16   N     N_R   0.809454 0.063993 0.249731 0.145683
O87   O     O_R   0.823146 0.097686 0.230768 -0.242605
O88   O     O_R   0.779452 0.058838 0.313233 -0.334328
N17   N     N_R   0.804414 0.437660 0.738865 0.157512
O89   O     O_R   0.811239 0.405118 0.707163 -0.262137
O90   O     O_R   0.778598 0.440325 0.807276 -0.305781
N18   N     N_R   0.195529 0.437373 0.262024 0.157437
O91   O     O_R   0.188592 0.404862 0.293915 -0.262211
O92   O     O_R   0.221419 0.439953 0.193644 -0.305558
N19   N     N_R   0.303442 0.937143 0.730848 0.156279
O93   O     O_R   0.310448 0.905419 0.696348 -0.266570
O94   O     O_R   0.277181 0.938537 0.799123 -0.306088
N20   N     N_R   0.696571 0.937199 0.269064 0.156237
O95   O     O_R   0.689576 0.905436 0.303484 -0.266747
O96   O     O_R   0.722830 0.938657 0.200791 -0.306391
N21   N     N_R   0.883457 0.434217 0.654807 0.172243
O97   O     O_R   0.885062 0.424862 0.711376 -0.253687
O98   O     O_R   0.893861 0.410270 0.602231 -0.307306
N22   N     N_R   0.116482 0.434139 0.345539 0.172429
O99   O     O_R   0.114842 0.424875 0.288984 -0.253193
O100  O     O_R   0.106050 0.410150 0.398095 -0.307207
N23   N     N_R   0.382526 0.933435 0.649497 0.172250
O101  O     O_R   0.382745 0.922125 0.706570 -0.262319
O102  O     O_R   0.393807 0.910865 0.594614 -0.316499
N24   N     N_R   0.617487 0.933473 0.350432 0.172025
O103  O     O_R   0.617286 0.922219 0.293329 -0.264152
O104  O     O_R   0.606200 0.910859 0.405291 -0.316229
O105  O     O_3   0.938540 0.474841 0.381132 -0.600863
C185  C     C_3   0.909262 0.457365 0.377251 -0.020312
H89   H     H_    0.921170 0.435260 0.334731 0.171074
H90   H     H_    0.892413 0.477347 0.366385 0.133878
C186  C     C_3   0.882959 0.438350 0.449549 -0.662774
H91   H     H_    0.870601 0.459465 0.493863 0.228890
H92   H     H_    0.859961 0.424037 0.447353 0.211628
H93   H     H_    0.898590 0.417233 0.461463 0.281556
O106  O     O_3   0.061440 0.474752 0.618923 -0.600885
C187  C     C_3   0.090703 0.457246 0.622843 -0.020277
H94   H     H_    0.078777 0.435146 0.665404 0.170946
H95   H     H_    0.107565 0.477208 0.633681 0.133970
C188  C     C_3   0.116997 0.438218 0.550582 -0.662957
H96   H     H_    0.129371 0.459328 0.506229 0.228767
H97   H     H_    0.139983 0.423883 0.552809 0.211859
H98   H     H_    0.101353 0.417118 0.538702 0.281443
O107  O     O_3   0.439733 0.972102 0.379705 -0.599015
C189  C     C_3   0.411465 0.953275 0.374427 -0.026976
H99   H     H_    0.424544 0.931982 0.330459 0.172196
H100  H     H_    0.393612 0.972519 0.364855 0.134284
C190  C     C_3   0.386138 0.932641 0.445288 -0.644703
H101  H     H_    0.372894 0.952856 0.491112 0.230524
H102  H     H_    0.363772 0.917549 0.442149 0.212866
H103  H     H_    0.402782 0.911969 0.455466 0.281850
O108  O     O_3   0.560597 0.972792 0.619999 -0.599563
C191  C     C_3   0.589130 0.954336 0.624996 -0.025984
H104  H     H_    0.576347 0.932869 0.668707 0.172217
H105  H     H_    0.606737 0.973807 0.634775 0.134265
C192  C     C_3   0.614705 0.934041 0.553871 -0.647803
H106  H     H_    0.627669 0.954431 0.508289 0.229835
H107  H     H_    0.637278 0.919237 0.556789 0.212918
H108  H     H_    0.598323 0.913161 0.543470 0.282116
N25   N     N_R   0.809777 0.571154 0.667883 0.164887
O109  O     O_R   0.779003 0.581201 0.726747 -0.277039
O110  O     O_R   0.826141 0.595077 0.614718 -0.336513
N26   N     N_R   0.190341 0.570916 0.332384 0.164941
O111  O     O_R   0.221235 0.580838 0.273626 -0.276146
O112  O     O_R   0.173925 0.594936 0.385329 -0.336611
N27   N     N_R   0.310277 0.072591 0.671323 0.164384
O113  O     O_R   0.279983 0.082239 0.731467 -0.263110
O114  O     O_R   0.326743 0.097387 0.619802 -0.337447
N28   N     N_R   0.689705 0.072560 0.328992 0.164496
O115  O     O_R   0.719971 0.082277 0.268847 -0.262940
O116  O     O_R   0.673250 0.097283 0.380621 -0.337797
O117  O     O_3   0.067343 0.692455 0.920462 -0.548777
C193  C     C_3   0.079157 0.691929 0.846146 0.041650
H109  H     H_    0.056787 0.702763 0.837282 0.140540
H110  H     H_    0.087088 0.662994 0.823821 0.144929
C194  C     C_3   0.113379 0.717018 0.804576 -0.675042
H111  H     H_    0.136476 0.706739 0.811375 0.264014
H112  H     H_    0.122990 0.716778 0.745956 0.202202
H113  H     H_    0.106210 0.746248 0.825110 0.252746
O118  O     O_3   0.932647 0.692446 0.079616 -0.548781
C195  C     C_3   0.920843 0.691895 0.153925 0.041636
H114  H     H_    0.943211 0.702740 0.162771 0.140523
H115  H     H_    0.912941 0.662951 0.176254 0.144863
C196  C     C_3   0.886601 0.716955 0.195510 -0.675228
H116  H     H_    0.863508 0.706666 0.188729 0.263945
H117  H     H_    0.876999 0.716696 0.254126 0.202174
H118  H     H_    0.893742 0.746195 0.174975 0.252781
O119  O     O_3   0.567464 0.192468 0.922679 -0.548452
C197  C     C_3   0.580170 0.191776 0.847948 0.044091
H119  H     H_    0.558229 0.202448 0.837683 0.139912
H120  H     H_    0.588375 0.162817 0.825913 0.145032
C198  C     C_3   0.614421 0.216930 0.807466 -0.682616
H121  H     H_    0.637106 0.206807 0.815662 0.264687
H122  H     H_    0.624731 0.216560 0.748534 0.200552
H123  H     H_    0.606991 0.246184 0.827724 0.251262
O120  O     O_3   0.432497 0.192473 0.077136 -0.548544
C199  C     C_3   0.419614 0.191597 0.151941 0.044201
H124  H     H_    0.441503 0.202051 0.162527 0.140130
H125  H     H_    0.411246 0.162623 0.173806 0.145360
C200  C     C_3   0.385450 0.216875 0.192293 -0.682467
H126  H     H_    0.362813 0.206969 0.183782 0.264716
H127  H     H_    0.375000 0.216361 0.251282 0.200675
H128  H     H_    0.393039 0.246145 0.172197 0.251295
N29   N     N_R   0.565134 0.692948 0.896196 0.165847
O121  O     O_R   0.579760 0.685110 0.827769 -0.248286
O122  O     O_R   0.580214 0.719167 0.914725 -0.300604
N30   N     N_R   0.437828 0.692356 0.115141 0.171345
O123  O     O_R   0.404556 0.685196 0.126903 -0.242010
O124  O     O_R   0.441740 0.718238 0.153191 -0.316848
N31   N     N_R   0.044470 0.193648 0.041407 0.163575
O125  O     O_R   0.080111 0.186041 0.008824 -0.270546
O126  O     O_R   0.030681 0.220104 0.090017 -0.298015
N32   N     N_R   0.950183 0.192160 0.968748 0.168088
O127  O     O_R   0.951016 0.185303 0.908748 -0.247657
O128  O     O_R   0.926767 0.217004 0.013521 -0.330908
N33   N     N_R   0.563342 0.613326 0.890975 0.164033
O129  O     O_R   0.595755 0.615692 0.885710 -0.257771
O130  O     O_R   0.560890 0.596738 0.839977 -0.282451
N34   N     N_R   0.436573 0.612614 0.109347 0.178518
O131  O     O_R   0.423017 0.617897 0.178286 -0.249382
O132  O     O_R   0.419198 0.590411 0.088645 -0.320668
N35   N     N_R   0.047093 0.114015 0.036671 0.177818
O133  O     O_R   0.045268 0.119985 0.097894 -0.263905
O134  O     O_R   0.072153 0.090938 0.989787 -0.298544
N36   N     N_R   0.952091 0.112913 0.965894 0.175820
O135  O     O_R   0.922253 0.096620 0.017844 -0.290239
O136  O     O_R   0.961990 0.107038 0.898741 -0.276298
O137  O     O_3   0.060321 0.305812 0.983880 -0.502178
C201  C     C_3   0.083397 0.294329 0.910862 0.091191
H129  H     H_    0.090904 0.318314 0.872533 0.158181
H130  H     H_    0.069285 0.272366 0.896910 0.134163
C202  C     C_3   0.119508 0.277851 0.900236 -0.577469
H131  H     H_    0.113071 0.253511 0.937008 0.283953
H132  H     H_    0.137745 0.268348 0.843222 0.193122
H133  H     H_    0.134728 0.299380 0.912285 0.269689
O138  O     O_3   0.934589 0.308228 0.026071 -0.504096
C203  C     C_3   0.911469 0.299902 0.100855 0.123239
H134  H     H_    0.909383 0.323844 0.136106 0.138432
H135  H     H_    0.922480 0.274995 0.114875 0.157946
C204  C     C_3   0.872018 0.291062 0.118020 -0.573396
H136  H     H_    0.872557 0.267128 0.084655 0.286266
H137  H     H_    0.853886 0.283641 0.176295 0.188076
H138  H     H_    0.859920 0.315888 0.106405 0.267588
O139  O     O_3   0.559404 0.807406 0.999595 -0.502501
C205  C     C_3   0.550985 0.802006 0.071387 0.084515
H139  H     H_    0.524236 0.786235 0.104362 0.143333
H140  H     H_    0.548862 0.829393 0.098087 0.175508
C206  C     C_3   0.582257 0.779323 0.069711 -0.603977
H141  H     H_    0.609332 0.794503 0.037998 0.272918
H142  H     H_    0.576033 0.774968 0.125876 0.198386
H143  H     H_    0.584663 0.751557 0.044293 0.265905
O140  O     O_3   0.441698 0.805327 0.008629 -0.510656
C207  C     C_3   0.450265 0.798073 0.937261 0.076814
H144  H     H_    0.477279 0.782583 0.905405 0.133949
H145  H     H_    0.451944 0.824684 0.908664 0.180715
C208  C     C_3   0.419404 0.773951 0.940540 -0.618588
H146  H     H_    0.392081 0.788813 0.971064 0.275197
H147  H     H_    0.425765 0.768081 0.884717 0.201528
H148  H     H_    0.417416 0.746938 0.968015 0.256937
N37   N     N_R   0.060849 0.383737 0.993086 0.189795
O141  O     O_R   0.095301 0.377353 0.941582 -0.312574
O142  O     O_R   0.054465 0.404252 0.048192 -0.343613
N38   N     N_R   0.938059 0.385586 0.008091 0.191524
O143  O     O_R   0.903675 0.382298 0.062132 -0.319413
O144  O     O_R   0.944871 0.404669 0.951125 -0.345741
N39   N     N_R   0.560970 0.885516 0.996886 0.165253
O145  O     O_R   0.595401 0.876743 0.948426 -0.259439
O146  O     O_R   0.554591 0.907798 0.049790 -0.385160
N40   N     N_R   0.439832 0.883579 0.004496 0.163865
O147  O     O_R   0.405326 0.874583 0.052107 -0.259584
O148  O     O_R   0.446577 0.905329 0.950619 -0.383083
O149  O     O_3   0.024025 0.569629 0.162702 -0.553009
C209  C     C_3   0.987674 0.585054 0.196259 -0.007602
H149  H     H_    0.971534 0.581234 0.255704 0.176160
H150  H     H_    0.972561 0.573438 0.170855 0.151634
C210  C     C_3   0.991079 0.627149 0.182849 -0.710677
H151  H     H_    0.007446 0.633060 0.123714 0.261609
H152  H     H_    0.962733 0.639715 0.206668 0.171194
H153  H     H_    0.005491 0.640231 0.208485 0.268673
O150  O     O_3   0.976066 0.569657 0.837081 -0.553040
C211  C     C_3   0.012441 0.585017 0.803520 -0.007522
H154  H     H_    0.028580 0.581194 0.744081 0.176172
H155  H     H_    0.027527 0.573353 0.828959 0.151759
C212  C     C_3   0.009103 0.627111 0.816870 -0.710896
H156  H     H_    0.992741 0.633022 0.875998 0.261538
H157  H     H_    0.037469 0.639627 0.793043 0.171311
H158  H     H_    0.994716 0.640245 0.791207 0.268690
O151  O     O_3   0.521099 0.070580 0.165497 -0.554266
C213  C     C_3   0.484171 0.084598 0.199990 -0.006826
H159  H     H_    0.468254 0.080033 0.259240 0.176084
H160  H     H_    0.469438 0.072522 0.174187 0.154086
C214  C     C_3   0.485929 0.126822 0.188581 -0.715844
H161  H     H_    0.501971 0.133495 0.129743 0.260117
H162  H     H_    0.457108 0.138301 0.213145 0.172551
H163  H     H_    0.499909 0.140326 0.214688 0.268872
O152  O     O_3   0.478019 0.070278 0.835238 -0.553940
C215  C     C_3   0.514785 0.084704 0.801051 -0.007095
H164  H     H_    0.530773 0.080401 0.741728 0.176008
H165  H     H_    0.529623 0.072719 0.826734 0.153227
C216  C     C_3   0.512546 0.126886 0.813121 -0.714452
H166  H     H_    0.496361 0.133288 0.872059 0.260589
H167  H     H_    0.541229 0.138672 0.788891 0.172176
H168  H     H_    0.498483 0.140326 0.787094 0.268703

loop_
_geom_bond_atom_site_label_1
_geom_bond_atom_site_label_2
_geom_bond_distance
_ccdc_geom_bond_type
C47   C51   1.414310 A    
C141  C145  1.408989 A    
C180  H76   1.110699 S    
C35   N7    1.492173 S    
C188  H96   1.110889 S    
N31   O125  1.301220 A    
C14   H6    1.100232 S    
C84   C88   1.404146 A    
C39   H27   1.106526 S    
O108  C191  1.413547 S    
C170  H53   1.110633 S    
C81   C85   1.403325 A    
C209  C210  1.520788 S    
O149  C209  1.409317 S    
C23   C27   1.564617 S    
N35   O134  1.301217 A    
C9    O49   1.428701 S    
C9    C13   1.581484 S    
C48   C52   1.414321 A    
C205  H139  1.114582 S    
C216  H166  1.109863 S    
C11   C27   1.575774 S    
C129  C133  1.403090 A    
C185  C186  1.521530 S    
O18   C97   1.292658 A    
C90   C94   1.412397 A    
O30   C103  1.295525 A    
C10   O106  1.441546 S    
N6    O63   1.303085 A    
C210  H152  1.110106 S    
C30   C34   1.604874 S    
C215  H164  1.103834 S    
O4    C4    1.295463 A    
C13   C29   1.574657 S    
C160  O140  1.383896 S    
C15   C31   1.573960 S    
Cu9   Cu10  2.697042 S    
C34   O150  1.438326 S    
O19   C98   1.292650 A    
C185  H90   1.108727 S    
C78   C82   1.415483 A    
N40   O148  1.300419 A    
C175  H65   1.110062 S    
O27   C101  1.284582 A    
C127  C139  1.441906 S    
N8    O67   1.303078 A    
O35   Cu11  1.950234 S    
O26   C100  1.284485 A    
O36   Cu12  1.950434 S    
N18   O92   1.301321 A    
C184  H88   1.110346 S    
C202  H132  1.110463 S    
N12   O75   1.301444 A    
C212  H158  1.110686 S    
C116  C120  1.398040 A    
C60   N16   1.439409 S    
N9    O69   1.301357 A    
O44   Cu11  1.946871 S    
C113  H37   1.083540 S    
O7    Cu4   1.951426 S    
O34   C105  1.304401 A    
C83   C87   1.404142 A    
C190  H101  1.110936 S    
C213  H159  1.103723 S    
C143  C152  1.409475 A    
C38   H22   1.114278 S    
C183  H85   1.112044 S    
C158  C167  1.403297 A    
C190  H103  1.110498 S    
O20   Cu8   1.950013 S    
C215  C216  1.520848 S    
N32   O127  1.300707 A    
O22   Cu6   1.979711 S    
O9    C5    1.283433 A    
C87   H35   1.082579 S    
N1    O53   1.301866 A    
N22   O99   1.300664 A    
O25   Cu6   1.977635 S    
C44   C64   1.396587 A    
C73   C93   1.411244 A    
C77   C81   1.415391 A    
C180  H78   1.110865 S    
C199  H125  1.113431 S    
C206  H142  1.110462 S    
N17   O89   1.301078 A    
O8    Cu4   1.951447 S    
C188  H98   1.110661 S    
C17   C33   1.569816 S    
C16   H8    1.100170 S    
C208  H146  1.110713 S    
N15   O85   1.301307 A    
O42   C108  1.306426 A    
N34   O131  1.301121 A    
C144  C152  1.408399 A    
C51   C55   1.413519 A    
C196  H118  1.110849 S    
O39   C109  1.300548 A    
C209  H149  1.103705 S    
C171  C172  1.519884 S    
C52   C110  1.473939 S    
O3    Cu2   1.949712 S    
C129  C139  1.404846 A    
N10   O71   1.301361 A    
C151  C153  1.441162 S    
C6    C26   1.489602 S    
C142  N30   1.438636 S    
C91   N27   1.441860 S    
C67   C71   1.204601 T    
C208  H148  1.110949 S    
C199  C200  1.520445 S    
C143  N31   1.439183 S    
C113  C117  1.397989 A    
N26   O111  1.301294 A    
O20   C98   1.292704 A    
C170  H51   1.110904 S    
C54   O78   1.383940 S    
C40   H28   1.107257 S    
C182  H81   1.110728 S    
C171  H55   1.109984 S    
C197  H119  1.115738 S    
C202  H131  1.110135 S    
C75   N19   1.439525 S    
C134  C137  1.404657 A    
N38   O144  1.300263 A    
C69   C93   1.441104 S    
N12   O76   1.300968 A    
C42   C62   1.395389 A    
C214  H163  1.110685 S    
O152  C215  1.409388 S    
O140  C207  1.412183 S    
C189  H100  1.108773 S    
O3    C3    1.295489 A    
C132  O120  1.382582 S    
C78   N22   1.431716 S    
C174  H61   1.110889 S    
C73   C77   1.409372 A    
H12   C20   1.106999 S    
C89   C93   1.412298 A    
C198  H122  1.110501 S    
C195  H114  1.115708 S    
C9    O105  1.441554 S    
N14   O83   1.301360 A    
C1    C81   1.484485 S    
C178  H71   1.110711 S    
C132  C140  1.404792 A    
C29   C37   1.554098 S    
O118  C195  1.411567 S    
C136  H48   1.082928 S    
C201  H130  1.112015 S    
C31   C39   1.554619 S    
C183  H84   1.114574 S    
O107  C189  1.413535 S    
C7    C27   1.489654 S    
C200  H126  1.110693 S    
C135  C138  1.404636 A    
C12   C16   1.581431 S    
C148  C150  1.411551 A    
C125  C128  1.204896 T    
C18   C34   1.569769 S    
C59   N15   1.439427 S    
C34   N6    1.492312 S    
C19   N3    1.476719 S    
C181  H79   1.114617 S    
O38   Cu10  1.950660 S    
C146  N34   1.434515 S    
C44   H32   1.084317 S    
C17   C25   1.586821 S    
N2    O55   1.301868 A    
C66   C70   1.203063 T    
C73   N17   1.439660 S    
C159  O139  1.384096 S    
N36   O136  1.300748 A    
C20   C28   1.587555 S    
C75   C95   1.411934 A    
O5    Cu3   1.951426 S    
C21   H13   1.108830 S    
C76   C96   1.411943 A    
C160  C164  1.408390 A    
O21   C99   1.287080 A    
C176  H67   1.110327 S    
C23   H15   1.108860 S    
C10   O50   1.428702 S    
C24   H16   1.108798 S    
N28   O115  1.301293 A    
Cu2   Cu4   2.657682 S    
C21   H17   1.112598 S    
C58   C62   1.407404 A    
Cu10  O46   1.949758 S    
C177  H70   1.112464 S    
O23   C101  1.286922 A    
O31   C104  1.295507 A    
O22   C100  1.287083 A    
C37   H25   1.107309 S    
O49   C169  1.411710 S    
C174  H62   1.110342 S    
C92   N28   1.441826 S    
N25   O109  1.301296 A    
C196  H116  1.110690 S    
C53   C57   1.412696 A    
C186  H92   1.110390 S    
C172  H56   1.110904 S    
C75   C79   1.410900 A    
N1    O54   1.301284 A    
C36   N8    1.492188 S    
C31   C35   1.603724 S    
C193  H109  1.115713 S    
C10   C14   1.581473 S    
O13   Cu3   1.978548 S    
O41   Cu10  1.946864 S    
C182  H83   1.110349 S    
N7    O66   1.301793 A    
O40   Cu12  1.950660 S    
C146  C149  1.409987 A    
C190  H102  1.110401 S    
O27   Cu8   1.977635 S    
C24   H20   1.112568 S    
C76   N20   1.439523 S    
C64   C68   1.440052 S    
C128  C140  1.441899 S    
C91   C95   1.411752 A    
O5    C1    1.291569 A    
O51   C173  1.411761 S    
C79   N23   1.431792 S    
C80   C84   1.415929 A    
C105  C121  1.480561 S    
C160  C168  1.401317 A    
O120  C199  1.411613 S    
C120  C122  1.407412 A    
O15   Cu4   1.978548 S    
N29   O122  1.301362 A    
N24   O103  1.300682 A    
C61   C65   1.437469 S    
C123  C125  1.438131 S    
O28   C102  1.284481 A    
C178  H73   1.110742 S    
C147  N35   1.436460 S    
C115  C124  1.399018 A    
C162  N38   1.434910 S    
C187  H94   1.111575 S    
N20   O96   1.301298 A    
C178  H72   1.110431 S    
O33   Cu9   1.950234 S    
C131  C140  1.404818 A    
C60   C64   1.409334 A    
C177  C178  1.520584 S    
C194  H113  1.110849 S    
O117  C193  1.411579 S    
C14   C30   1.574653 S    
C211  H154  1.103729 S    
C213  C214  1.520799 S    
O14   C6    1.286586 A    
C55   C59   1.414430 A    
C92   C96   1.411748 A    
C20   C36   1.569961 S    
C153  C156  1.202513 T    
C135  H47   1.082940 S    
O1    Cu1   1.949712 S    
C154  C155  1.201890 T    
C22   H18   1.112598 S    
C170  H52   1.110235 S    
C115  C119  1.397989 A    
C5    C25   1.489686 S    
C155  C167  1.437557 S    
C24   C40   1.542337 S    
C133  H45   1.082944 S    
O10   C6    1.283219 A    
N33   O130  1.300109 A    
C201  H129  1.115000 S    
C74   N18   1.439653 S    
C32   C40   1.554691 S    
C74   C94   1.411127 A    
C90   N26   1.442601 S    
O44   C110  1.302658 A    
C86   C90   1.401055 A    
C35   O151  1.438301 S    
C205  H140  1.113777 S    
N23   O102  1.300809 A    
C119  C122  1.407419 A    
C41   H29   1.084383 S    
O41   C107  1.305926 A    
C80   N24   1.431790 S    
N13   O82   1.301258 A    
C203  H134  1.116513 S    
C43   H31   1.084318 S    
N27   O113  1.301293 A    
C145  C149  1.409216 A    
O15   C7    1.286765 A    
C187  C188  1.521532 S    
N6    O64   1.301764 A    
C179  H74   1.115073 S    
C4    C84   1.487435 S    
C204  H138  1.110389 S    
Cu11  O47   1.949957 S    
C169  H49   1.111272 S    
C215  H165  1.109788 S    
C192  H107  1.110398 S    
C43   C47   1.400197 A    
C97   C137  1.477991 S    
Cu6   O30   1.949637 S    
C117  C121  1.407463 A    
C211  C212  1.520794 S    
C142  C146  1.409296 A    
C163  C166  1.421669 A    
C136  C138  1.404711 A    
O105  C185  1.413407 S    
C205  C206  1.520306 S    
C216  H167  1.110189 S    
C142  C151  1.409607 A    
C148  N36   1.432642 S    
C40   H24   1.114273 S    
C57   N13   1.440440 S    
C124  C126  1.438127 S    
O78   C179  1.413339 S    
C55   O79   1.384813 S    
N39   O146  1.299965 A    
N4    O59   1.301910 A    
C46   N10   1.437904 S    
C207  H144  1.114626 S    
O106  C187  1.413409 S    
O21   Cu5   1.979706 S    
C70   C94   1.441100 S    
C85   C89   1.400916 A    
C200  H128  1.110849 S    
C184  H87   1.110409 S    
C33   O149  1.438320 S    
C173  H59   1.111435 S    
O48   C112  1.302600 A    
C212  H157  1.110115 S    
C74   C78   1.409213 A    
C204  H136  1.109486 S    
C111  C149  1.472806 S    
C164  N40   1.435186 S    
C172  H58   1.110634 S    
N30   O123  1.301248 A    
C11   O107  1.441806 S    
C157  C161  1.407179 A    
C191  H104  1.111607 S    
C213  H160  1.109801 S    
C45   N9    1.437806 S    
C159  C163  1.406447 A    
C157  C167  1.405390 A    
C214  H162  1.110153 S    
C169  C170  1.519892 S    
N32   O128  1.300184 A    
C31   C101  1.487907 S    
C29   C33   1.604935 S    
O8    C4    1.292850 A    
Cu8   O32   1.949637 S    
C129  O117  1.382498 S    
O37   C107  1.302603 A    
C196  H117  1.110503 S    
C147  C150  1.413958 A    
N3    O57   1.301928 A    
C180  H77   1.110423 S    
C206  H141  1.110708 S    
Cu9   O45   1.949957 S    
C188  H97   1.110388 S    
C162  C165  1.419511 A    
C48   N12   1.439428 S    
N34   O132  1.300543 A    
C42   H30   1.084381 S    
C209  H150  1.109814 S    
N9    O70   1.301498 A    
O12   Cu2   1.978354 S    
C71   C95   1.443701 S    
C159  C168  1.400005 A    
C144  N32   1.437659 S    
C18   C26   1.586963 S    
O1    C1    1.295198 A    
C117  H41   1.082789 S    
N10   O72   1.301468 A    
C86   H34   1.082745 S    
C21   C25   1.565940 S    
H11   C19   1.106943 S    
C22   H14   1.108860 S    
O150  C211  1.409299 S    
C13   H1    1.104808 S    
O43   Cu12  1.946864 S    
C56   C60   1.414428 A    
C63   C67   1.440039 S    
O37   Cu9   1.950660 S    
C191  C192  1.521029 S    
N26   O112  1.301417 A    
C15   H3    1.104605 S    
C29   C99   1.487915 S    
N21   O97   1.300666 A    
O50   C171  1.411711 S    
C30   C100  1.487994 S    
C23   C39   1.541816 S    
C12   O52   1.428680 S    
C197  H120  1.113491 S    
N11   O73   1.301439 A    
O24   C102  1.286921 A    
O46   C111  1.302193 A    
H9    C17   1.107054 S    
C210  H153  1.110687 S    
C163  N39   1.434655 S    
O34   Cu10  1.950434 S    
C156  C168  1.438981 S    
C189  C190  1.520969 S    
C173  C174  1.519887 S    
C9    C25   1.575679 S    
C195  H115  1.113527 S    
C185  H89   1.111578 S    
C11   C15   1.581500 S    
N40   O147  1.301086 A    
C12   C28   1.575745 S    
C52   C56   1.413504 A    
O40   C110  1.300559 A    
C197  C198  1.520446 S    
N14   O84   1.301256 A    
C192  H106  1.110924 S    
C85   H33   1.082756 S    
O28   Cu7   1.977637 S    
C131  C135  1.403100 A    
O52   C175  1.411756 S    
C88   H36   1.082612 S    
C19   C35   1.570248 S    
N18   O91   1.301073 A    
C192  H108  1.110484 S    
O6    C2    1.291389 A    
C202  H133  1.110659 S    
O32   C104  1.293626 A    
N19   O93   1.301093 A    
C195  C196  1.520446 S    
O16   Cu4   1.978740 S    
C77   N21   1.431724 S    
N5    O61   1.303088 A    
C161  C165  1.418969 A    
O35   C106  1.304327 A    
C13   H5    1.100236 S    
N16   O87   1.301305 A    
N7    O65   1.303074 A    
C46   C50   1.416478 A    
C39   H23   1.114285 S    
C181  H80   1.112037 S    
O36   C106  1.304392 A    
O2    Cu1   1.949692 S    
C36   O152  1.438364 S    
O10   Cu1   1.978354 S    
O17   C97   1.292660 A    
C126  C127  1.204900 T    
O13   C5    1.286413 A    
C183  C184  1.520857 S    
C119  H43   1.082763 S    
C116  C124  1.399048 A    
C24   C28   1.565175 S    
C200  H127  1.110501 S    
C176  H66   1.110893 S    
C206  H143  1.110851 S    
N17   O90   1.301321 A    
C103  C165  1.488047 S    
C172  H57   1.110228 S    
N28   O116  1.301437 A    
C113  C123  1.399010 A    
C41   C61   1.395252 A    
C18   N2    1.476666 S    
C11   O51   1.428632 S    
C22   C38   1.542238 S    
C181  C182  1.520874 S    
C56   O80   1.384801 S    
C115  H39   1.083540 S    
Cu5   Cu6   2.659572 S    
C161  N37   1.435476 S    
C158  O138  1.384625 S    
C157  O137  1.384434 S    
C30   C38   1.554074 S    
Cu11  Cu12  2.697042 S    
N16   O88   1.301217 A    
C32   C36   1.604011 S    
C88   C92   1.401046 A    
C186  H91   1.110890 S    
C177  H69   1.115210 S    
N35   O133  1.301154 A    
C51   C109  1.473945 S    
Cu7   Cu8   2.659572 S    
O7    C3    1.292846 A    
C175  C176  1.519888 S    
C87   C91   1.401053 A    
C198  H121  1.110691 S    
C193  H110  1.113518 S    
N38   O143  1.300531 A    
N22   O100  1.300971 A    
C198  H123  1.110848 S    
C3    C83   1.487479 S    
C182  H82   1.110409 S    
C171  H54   1.111268 S    
C130  C139  1.404848 A    
C10   C26   1.575686 S    
O23   Cu7   1.979706 S    
O137  C201  1.413662 S    
O42   Cu9   1.946871 S    
N25   O110  1.301424 A    
C65   C69   1.203068 T    
C189  H99   1.111614 S    
C104  C166  1.489786 S    
N37   O142  1.300477 A    
C130  O118  1.382492 S    
C143  C147  1.409430 A    
O16   C8    1.286685 A    
N5    O62   1.301753 A    
C193  C194  1.520446 S    
N4    O60   1.301290 A    
N23   O101  1.300680 A    
C37   H21   1.114285 S    
O138  C203  1.414957 S    
C118  C121  1.407439 A    
N24   O104  1.300824 A    
N2    O56   1.301285 A    
C57   C61   1.407379 A    
C144  C148  1.405284 A    
C89   N25   1.442582 S    
O19   Cu7   1.950034 S    
O11   C7    1.283190 A    
C72   C96   1.443721 S    
O12   C8    1.283334 A    
C20   N4    1.476715 S    
C187  H95   1.108722 S    
O9    Cu1   1.978557 S    
N27   O114  1.301446 A    
C141  C151  1.410189 A    
C17   N1    1.476660 S    
C76   C80   1.410904 A    
N21   O98   1.300972 A    
H10   C18   1.107059 S    
C118  H42   1.082789 S    
C141  N29   1.439471 S    
C194  H112  1.110501 S    
C49   C53   1.417642 A    
C211  H155  1.109801 S    
O4    Cu2   1.949692 S    
N3    O58   1.301291 A    
C112  C150  1.475832 S    
C133  C137  1.404653 A    
C116  H40   1.083534 S    
C16   H4    1.104604 S    
C152  C154  1.439751 S    
C158  C162  1.404352 A    
N39   O145  1.301075 A    
O33   C105  1.304290 A    
O11   Cu2   1.978557 S    
O29   C103  1.292689 A    
O39   Cu11  1.950660 S    
O119  C197  1.411627 S    
C114  H38   1.083534 S    
Cu5   O29   1.949617 S    
C199  H124  1.115754 S    
C132  C136  1.403212 A    
C41   C45   1.399531 A    
C32   C102  1.487702 S    
O25   C99   1.284459 A    
N15   O86   1.301219 A    
C194  H111  1.110690 S    
N36   O135  1.300666 A    
C79   C83   1.415942 A    
O6    Cu3   1.951447 S    
C106  C122  1.480685 S    
C114  C123  1.399076 A    
Cu7   O31   1.949617 S    
C8    C28   1.489834 S    
C176  H68   1.110521 S    
O17   Cu5   1.950034 S    
O139  C205  1.412217 S    
N37   O141  1.300598 A    
N8    O68   1.301761 A    
O18   Cu6   1.950013 S    
N31   O126  1.301249 A    
N13   O81   1.301355 A    
C62   C66   1.437470 S    
C203  H135  1.111776 S    
O45   C111  1.300715 A    
C164  C166  1.420921 A    
N11   O74   1.300977 A    
C210  H151  1.109881 S    
C179  H75   1.112393 S    
C204  H137  1.110458 S    
C21   C37   1.542314 S    
C174  H63   1.110472 S    
C169  H50   1.109993 S    
C201  C202  1.520395 S    
C19   C27   1.587880 S    
O2    C2    1.295391 A    
C120  H44   1.082765 S    
C186  H93   1.110666 S    
C15   H7    1.100188 S    
C44   C48   1.400199 A    
O80   C183  1.413054 S    
C22   C26   1.565698 S    
O47   C112  1.302147 A    
C175  H64   1.111407 S    
C43   C63   1.396592 A    
C58   N14   1.440339 S    
C14   H2    1.104817 S    
O14   Cu3   1.978740 S    
C2    C82   1.484514 S    
C207  H145  1.113736 S    
C203  C204  1.521763 S    
C50   C108  1.483026 S    
C82   C86   1.403284 A    
C23   H19   1.112571 S    
O24   Cu8   1.979711 S    
C33   N5    1.492302 S    
Cu1   Cu3   2.657682 S    
C179  C180  1.520592 S    
O79   C181  1.413097 S    
C134  H46   1.082943 S    
C145  N33   1.432811 S    
C114  C118  1.398073 A    
N29   O121  1.301225 A    
C49   C107  1.483628 S    
C208  H147  1.110465 S    
C131  O119  1.382517 S    
C184  H86   1.110738 S    
C173  H60   1.110053 S    
N19   O94   1.301299 A    
C38   H26   1.107012 S    
C212  H156  1.109896 S    
O43   C109  1.302677 A    
C47   N11   1.439431 S    
C216  H168  1.110687 S    
N30   O124  1.301269 A    
C50   C54   1.418046 A    
C53   O77   1.383407 S    
C130  C134  1.403083 A    
O151  C213  1.409375 S    
C191  H105  1.108781 S    
C16   C32   1.574125 S    
C12   O108  1.441791 S    
O38   C108  1.301750 A    
C207  C208  1.520340 S    
C54   C58   1.412622 A    
C214  H161  1.109868 S    
Cu12  O48   1.949758 S    
N20   O95   1.301093 A    
O26   Cu5   1.977637 S    
C59   C63   1.409343 A    
C98   C138  1.478058 S    
O77   C177  1.414158 S    
N33   O129  1.300945 A    
C42   C46   1.399538 A    
C45   C49   1.416885 A    
C68   C72   1.204609 T    
