data_mof_unit_61215.cif
_audit_creation_date              2012-12-10T17:13:15-0500
_audit_creation_method            fapswitch 2.2
_symmetry_space_group_name_H-M    P1
_symmetry_Int_Tables_number       1
_space_group_crystal_system       triclinic
_cell_length_a                    30.44913
_cell_length_b                    30.725107
_cell_length_c                    24.384436
_cell_angle_alpha                 89.311464
_cell_angle_beta                  127.384703
_cell_angle_gamma                 89.947495
_cell_volume                      18124.3441039

loop_
_atom_site_label
_atom_site_type_symbol
_atom_type_description
_atom_site_fract_x
_atom_site_fract_y
_atom_site_fract_z
_atom_type_partial_charge
C1    C     C_R   0.691669 0.190150 0.503809 0.988745
C2    C     C_R   0.526823 0.245635 0.069683 0.394879
C3    C     C_R   0.694372 0.973373 0.493988 0.233946
C4    C     C_R   0.815875 0.437540 0.385345 0.613990
C5    C     C_R   0.134763 0.460058 0.464776 0.634189
C6    C     C_R   0.315575 0.939047 0.387471 0.607308
C7    C     C_R   0.644084 0.960963 0.479238 0.637519
C8    C     C_R   0.845733 0.406434 0.440128 -0.181888
C9    C     C_R   0.133751 0.419147 0.491335 -0.198048
C10   C     C_R   0.345485 0.907217 0.441095 -0.180132
C11   C     C_R   0.638562 0.919332 0.499563 -0.205116
C12   C     C_R   0.820093 0.366809 0.433555 -0.196433
C13   C     C_R   0.966698 0.745358 0.930497 0.390901
C14   C     C_R   0.176871 0.389282 0.514895 -0.203114
C15   C     C_R   0.319342 0.867781 0.434027 -0.192980
C16   C     C_R   0.680449 0.888166 0.523325 -0.201578
C17   C     C_R   0.841320 0.342128 0.494325 -0.207393
C18   C     C_R   0.166465 0.344422 0.518487 -0.260211
C19   C     C_R   0.341239 0.842169 0.494162 -0.207476
C20   C     C_R   0.666382 0.843587 0.519607 -0.255020
C21   C     C_R   0.891461 0.352300 0.556896 0.556243
C22   C     C_R   0.123349 0.332884 0.521495 0.603046
C23   C     C_R   0.392269 0.851318 0.556255 0.558059
C24   C     C_R   0.032250 0.747425 0.069764 0.391114
C25   C     C_R   0.619721 0.832286 0.515473 0.615882
C26   C     C_R   0.922172 0.386280 0.559720 0.611764
C27   C     C_R   0.088500 0.364756 0.515091 0.527289
C28   C     C_R   0.423072 0.885251 0.559177 0.611118
C29   C     C_R   0.585047 0.864559 0.508548 0.526461
C30   C     C_R   0.900484 0.412840 0.501082 -0.212343
C31   C     C_R   0.092621 0.407293 0.498203 -0.240593
C32   C     C_R   0.400774 0.912723 0.501323 -0.214770
C33   C     C_R   0.593373 0.907633 0.498589 -0.242703
C34   C     C_R   0.059765 0.439852 0.499505 1.079980
C35   C     C_R   0.739271 0.128026 0.622031 0.259558
C36   C     C_R   0.937580 0.442308 0.500637 1.055279
C37   C     C_R   0.560287 0.940284 0.499541 1.080157
C38   C     C_R   0.437657 0.942270 0.500680 1.061274
C39   C     C_R   0.819215 0.252038 0.634454 1.064806
C40   C     C_R   0.182746 0.250605 0.365077 0.988885
C41   C     C_R   0.319180 0.752029 0.634491 1.060094
C42   C     C_R   0.682696 0.750666 0.365094 0.991519
C43   C     C_R   0.561093 0.058786 0.499085 1.059937
C44   C     C_R   0.439404 0.059269 0.500479 1.043472
C45   C     C_R   0.060810 0.558977 0.499032 1.061784
C46   C     C_R   0.261294 0.100686 0.434709 0.301204
C47   C     C_R   0.939367 0.559202 0.500510 1.042368
C48   C     C_R   0.629527 0.208372 0.254212 0.363223
C49   C     C_R   0.365105 0.207640 0.747163 0.361658
C50   C     C_R   0.130594 0.708687 0.253678 0.361906
C51   C     C_R   0.835841 0.739364 0.749626 0.358845
C52   C     C_R   0.591711 0.208600 0.182541 -0.199610
C53   C     C_R   0.399629 0.207349 0.819056 -0.208049
C54   C     C_R   0.093870 0.709199 0.181848 -0.196294
C55   C     C_R   0.873310 0.737650 0.821358 -0.202519
C56   C     C_R   0.565479 0.247328 0.145407 -0.194427
C57   C     C_R   0.241922 0.622376 0.615815 0.265026
C58   C     C_R   0.424500 0.245678 0.855184 -0.192914
C59   C     C_R   0.068477 0.748101 0.145172 -0.193400
C60   C     C_R   0.929536 0.745336 0.855043 -0.186689
C61   C     C_R   0.577757 0.286650 0.181372 0.356426
C62   C     C_R   0.416736 0.284545 0.819199 0.335986
C63   C     C_R   0.078543 0.786898 0.181015 0.357704
C64   C     C_R   0.948810 0.754004 0.816224 0.339819
C65   C     C_R   0.615548 0.286434 0.253193 0.612437
C66   C     C_R   0.382906 0.284895 0.747334 0.592902
C67   C     C_R   0.115119 0.786537 0.252948 0.619893
C68   C     C_R   0.760531 0.601697 0.431433 0.298928
C69   C     C_R   0.911528 0.755330 0.744315 0.589465
C70   C     C_R   0.766821 0.091336 0.663860 0.601287
C71   C     C_R   0.249356 0.057563 0.440015 0.562348
C72   C     C_R   0.268439 0.583922 0.652710 0.600898
C73   C     C_R   0.306750 0.190130 0.492900 0.927350
C74   C     C_R   0.747413 0.558534 0.434455 0.557839
C75   C     C_R   0.739404 0.051979 0.647342 0.202329
C76   C     C_R   0.291779 0.026625 0.475752 0.229597
C77   C     C_R   0.238674 0.545704 0.634889 0.200488
C78   C     C_R   0.789130 0.527013 0.469711 0.228666
C79   C     C_R   0.683076 0.050240 0.592743 0.530079
C80   C     C_R   0.345013 0.037522 0.498855 0.587438
C81   C     C_R   0.181556 0.546678 0.584058 0.514774
C82   C     C_R   0.842910 0.537486 0.494532 0.584327
C83   C     C_R   0.654385 0.087443 0.549466 -0.140364
C84   C     C_R   0.191733 0.690080 0.503933 0.982507
C85   C     C_R   0.356669 0.080473 0.490046 -0.188975
C86   C     C_R   0.153963 0.585542 0.545396 -0.142850
C87   C     C_R   0.855779 0.580525 0.487998 -0.191876
C88   C     C_R   0.685135 0.124655 0.559419 -0.215063
C89   C     C_R   0.317030 0.113348 0.468633 -0.227643
C90   C     C_R   0.185959 0.622079 0.556114 -0.212352
C91   C     C_R   0.816674 0.613751 0.467115 -0.233033
C92   C     C_R   0.659785 0.157592 0.507601 -0.175075
C93   C     C_R   0.335445 0.157097 0.482617 -0.214135
C94   C     C_R   0.160144 0.657279 0.508088 -0.181823
C95   C     C_R   0.806951 0.690136 0.493249 0.927995
C96   C     C_R   0.836021 0.657198 0.483543 -0.220791
C97   C     C_R   0.603494 0.157100 0.453189 0.609516
C98   C     C_R   0.386642 0.167794 0.497647 0.640292
C99   C     C_R   0.103088 0.658879 0.456921 0.612834
C100  C     C_R   0.888299 0.667569 0.501579 0.649598
C101  C     C_R   0.681383 0.248643 0.365534 1.022739
C102  C     C_R   0.317714 0.248854 0.634736 0.963803
C103  C     C_R   0.181305 0.748599 0.365469 1.018121
C104  C     C_R   0.816843 0.749764 0.634727 0.973336
C105  C     C_R   0.571065 0.124250 0.449325 0.308548
C106  C     C_R   0.641982 0.247577 0.290061 -0.317510
C107  C     C_R   0.420924 0.135330 0.504124 0.263999
C108  C     C_R   0.070468 0.626067 0.452676 0.304804
C109  C     C_R   0.922398 0.635045 0.507841 0.265539
C110  C     C_R   0.596135 0.089442 0.497598 -0.171250
C111  C     C_R   0.406436 0.091876 0.501558 -0.179500
C112  C     C_R   0.095585 0.589626 0.497288 -0.175457
C113  C     C_R   0.906430 0.591713 0.501801 -0.180631
C114  C     C_R   0.898045 0.220521 0.748137 0.625957
C115  C     C_R   0.100004 0.223879 0.251774 0.600605
C116  C     C_R   0.400326 0.722100 0.748034 0.630618
C117  C     C_R   0.355595 0.246921 0.710537 -0.359251
C118  C     C_R   0.600316 0.723661 0.251782 0.603571
C119  C     C_R   0.934638 0.221927 0.819891 0.305669
C120  C     C_R   0.064739 0.225331 0.179840 0.296307
C121  C     C_R   0.436938 0.723562 0.819777 0.302627
C122  C     C_R   0.565121 0.725096 0.179860 0.296375
C123  C     C_R   0.933140 0.257539 0.854490 -0.332274
C124  C     C_R   0.074210 0.255382 0.144143 -0.331213
C125  C     C_R   0.433363 0.757940 0.854557 -0.332321
C126  C     C_R   0.574130 0.755613 0.144219 -0.331354
C127  C     C_R   0.895167 0.291857 0.816642 0.308418
C128  C     C_R   0.142139 0.747722 0.289827 -0.321182
C129  C     C_R   0.119169 0.283886 0.180951 0.303667
C130  C     C_R   0.393351 0.791041 0.816864 0.309052
C131  C     C_R   0.618562 0.784599 0.181102 0.304370
C132  C     C_R   0.858430 0.290156 0.744868 0.583728
C133  C     C_R   0.154457 0.282197 0.252821 0.563670
C134  C     C_R   0.356523 0.789219 0.745129 0.579735
C135  C     C_R   0.653856 0.782847 0.252955 0.563120
C136  C     C_R   0.859135 0.254297 0.710080 -0.435736
C137  C     C_R   0.145332 0.252154 0.289015 -0.477205
C138  C     C_R   0.359190 0.754476 0.710135 -0.440635
C139  C     C_R   0.854874 0.748184 0.710423 -0.347066
C140  C     C_R   0.645215 0.752317 0.289065 -0.476763
C141  C     C_R   0.037640 0.256782 0.068869 0.459042
C142  C     C_R   0.970008 0.258259 0.929731 0.460504
C143  C     C_R   0.537618 0.757025 0.068946 0.457252
C144  C     C_R   0.470127 0.758564 0.929809 0.458634
C145  C     C_R   0.775327 0.353304 0.366497 0.300610
C146  C     C_R   0.228084 0.406028 0.534674 0.376464
C147  C     C_R   0.273488 0.855274 0.367020 0.300791
C148  C     C_R   0.734020 0.903186 0.549843 0.371407
C149  C     C_R   0.808695 0.309797 0.496786 1.002823
C150  C     C_R   0.458991 0.244483 0.930305 0.390242
C151  C     C_R   0.193808 0.310150 0.507754 0.924356
C152  C     C_R   0.308683 0.809809 0.496760 1.000536
C153  C     C_R   0.693878 0.809959 0.508099 0.931482
C154  C     C_R   0.748212 0.383410 0.311197 0.310137
C155  C     C_R   0.230018 0.447562 0.511418 0.250500
C156  C     C_R   0.245949 0.886179 0.312871 0.309792
C157  C     C_R   0.740432 0.945541 0.533303 0.265879
C158  C     C_R   0.766773 0.426265 0.322113 0.239317
C159  C     C_R   0.182157 0.473445 0.472807 0.228135
C160  C     C_R   0.265431 0.928787 0.324706 0.241228
Cl1   Cl    Cl    0.657702 0.157746 0.296742 -0.426827
Cl2   Cl    Cl    0.010283 0.187599 0.135882 -0.331578
Cl3   Cl    Cl    0.484746 0.680200 0.864661 -0.311048
Cl4   Cl    Cl    0.511425 0.686723 0.135914 -0.327894
Cl5   Cl    Cl    0.893763 0.338264 0.857561 -0.354700
Cl6   Cl    Cl    0.131250 0.323506 0.138549 -0.356758
Cl7   Cl    Cl    0.389380 0.836169 0.857880 -0.350724
Cl8   Cl    Cl    0.629948 0.824924 0.138877 -0.356759
Cl9   Cl    Cl    0.762497 0.297680 0.346968 -0.509455
Cl10  Cl    Cl    0.291322 0.381562 0.602923 -0.319397
Cl11  Cl    Cl    0.259859 0.799954 0.345616 -0.513583
Cl12  Cl    Cl    0.337206 0.157487 0.705902 -0.466381
Cl13  Cl    Cl    0.793932 0.873848 0.616239 -0.415984
Cl14  Cl    Cl    0.691850 0.367329 0.227759 -0.307419
Cl15  Cl    Cl    0.292701 0.467702 0.532252 -0.298911
Cl16  Cl    Cl    0.187905 0.871389 0.229678 -0.308534
Cl17  Cl    Cl    0.806152 0.963927 0.562422 -0.298234
Cl18  Cl    Cl    0.730940 0.465951 0.255676 -0.298418
Cl19  Cl    Cl    0.182215 0.524779 0.439784 -0.391341
Cl20  Cl    Cl    0.229427 0.969407 0.259848 -0.302638
Cl21  Cl    Cl    0.699824 0.025316 0.467259 -0.403475
Cl22  Cl    Cl    0.549555 0.337498 0.139302 -0.304148
Cl23  Cl    Cl    0.158942 0.658009 0.295874 -0.423640
Cl24  Cl    Cl    0.450723 0.333000 0.862524 -0.323793
Cl25  Cl    Cl    0.044101 0.836122 0.137779 -0.325179
Cl26  Cl    Cl    0.019661 0.761127 0.855633 -0.359865
Cl27  Cl    Cl    0.766724 0.178420 0.660062 -0.514335
Cl28  Cl    Cl    0.205116 0.134546 0.372802 -0.390777
Cl29  Cl    Cl    0.274832 0.670676 0.657770 -0.504561
Cl30  Cl    Cl    0.705483 0.636587 0.370252 -0.394772
Cl31  Cl    Cl    0.774564 0.005335 0.698659 -0.309613
Cl32  Cl    Cl    0.277476 0.973458 0.487881 -0.385872
Cl33  Cl    Cl    0.272265 0.497007 0.680337 -0.302596
Cl34  Cl    Cl    0.765248 0.732870 0.711846 -0.425394
Cl35  Cl    Cl    0.773339 0.473779 0.479371 -0.388335
Cl36  Cl    Cl    0.498906 0.129333 0.384080 -0.366678
Cl37  Cl    Cl    0.483421 0.149903 0.518917 -0.447931
Cl38  Cl    Cl    0.998024 0.632835 0.391442 -0.368982
Cl39  Cl    Cl    0.986530 0.649329 0.526997 -0.433808
Cl40  Cl    Cl    0.979724 0.177109 0.865068 -0.312321
F1    F     F_    0.899456 0.185275 0.716075 -0.515088
F2    F     F_    0.115097 0.290960 0.531266 -0.556122
F3    F     F_    0.412790 0.826486 0.613768 -0.590393
F4    F     F_    0.607457 0.790186 0.518121 -0.542004
F5    F     F_    0.831620 0.479709 0.393801 -0.609913
F6    F     F_    0.090040 0.487047 0.430464 -0.604490
F7    F     F_    0.332448 0.980927 0.396702 -0.615019
F8    F     F_    0.600705 0.989282 0.443858 -0.613359
F9    F     F_    0.973353 0.392652 0.619690 -0.545355
F10   F     F_    0.049042 0.353919 0.522452 -0.595036
F11   F     F_    0.474976 0.890650 0.618408 -0.545551
F12   F     F_    0.089826 0.194518 0.284830 -0.514209
F13   F     F_    0.541880 0.853723 0.508764 -0.593776
F14   F     F_    0.627727 0.324661 0.286978 -0.552158
F15   F     F_    0.376550 0.322604 0.713662 -0.524694
F16   F     F_    0.125017 0.824422 0.286763 -0.549052
F17   F     F_    0.930970 0.762518 0.707472 -0.545803
F18   F     F_    0.579957 0.189087 0.403792 -0.584163
F19   F     F_    0.404043 0.209643 0.506957 -0.555403
F20   F     F_    0.079008 0.692640 0.410663 -0.578472
F21   F     F_    0.907016 0.709132 0.514298 -0.542179
F22   F     F_    0.819497 0.094486 0.722481 -0.492683
F23   F     F_    0.404127 0.688149 0.715859 -0.509931
F24   F     F_    0.196372 0.045651 0.409798 -0.499431
F25   F     F_    0.322655 0.584224 0.708251 -0.487669
F26   F     F_    0.694001 0.547181 0.402608 -0.498919
F27   F     F_    0.658075 0.011509 0.581664 -0.632101
F28   F     F_    0.385584 0.006850 0.533015 -0.626357
F29   F     F_    0.154373 0.509008 0.572093 -0.639765
F30   F     F_    0.882890 0.506372 0.528586 -0.628935
F31   F     F_    0.590520 0.693918 0.284782 -0.512075
F32   F     F_    0.822658 0.323959 0.709286 -0.539122
F33   F     F_    0.197311 0.310396 0.286861 -0.542499
F34   F     F_    0.318668 0.821844 0.709849 -0.537384
F35   F     F_    0.696191 0.811505 0.287068 -0.543052
F36   F     F_    0.911281 0.328368 0.615011 -0.592371
H1    H     H_    0.582213 0.178095 0.155765 0.227634
H2    H     H_    0.406598 0.177182 0.846916 0.225097
H3    H     H_    0.085621 0.679134 0.154425 0.227207
H4    H     H_    0.858204 0.731518 0.851100 0.228121
N1    N     N_R   0.484327 0.274529 0.032820 -0.062221
N2    N     N_R   0.058627 0.252466 0.033577 -0.070615
N3    N     N_R   0.448931 0.761540 0.965020 -0.072655
N4    N     N_R   0.558833 0.754179 0.033742 -0.069591
N5    N     N_R   0.982376 0.262067 0.033594 -0.080352
N6    N     N_R   0.025302 0.253196 0.965010 -0.073999
N7    N     N_R   0.482189 0.760868 0.033578 -0.078624
N8    N     N_R   0.525583 0.754967 0.965181 -0.072072
N9    N     N_R   0.451107 0.274113 0.964310 -0.067699
N10   N     N_R   0.036582 0.778370 0.033238 -0.054847
N11   N     N_R   0.004213 0.777436 0.964730 -0.056784
N12   N     N_R   0.500127 0.214486 0.966867 -0.123337
N13   N     N_R   0.533549 0.215114 0.035458 -0.131185
N14   N     N_R   0.962337 0.714376 0.967008 -0.129959
N15   N     N_R   0.994903 0.715201 0.035590 -0.127386
N16   N     N_R   0.949043 0.262734 0.965024 -0.073588
O1    O     O_R   0.678340 0.230070 0.500020 -0.576924
O2    O     O_R   0.482930 0.045810 0.557520 -0.594281
O3    O     O_R   0.017070 0.545810 0.442480 -0.562169
O4    O     O_R   0.982930 0.545810 0.557520 -0.594611
O5    O     O_R   0.574570 0.045820 0.557490 -0.590830
O6    O     O_R   0.425430 0.045820 0.442510 -0.573816
O7    O     O_R   0.074570 0.545820 0.557490 -0.589987
O8    O     O_R   0.925430 0.545820 0.442510 -0.574623
O9    O     O_R   0.730080 0.178340 0.500000 -0.592714
O10   O     O_R   0.269920 0.178340 0.500000 -0.593227
O11   O     O_R   0.230080 0.678340 0.500000 -0.592818
O12   O     O_R   0.321660 0.230070 0.499980 -0.556047
O13   O     O_R   0.769920 0.678340 0.500000 -0.610645
O14   O     O_R   0.673200 0.275870 0.398140 -0.563728
O15   O     O_R   0.326800 0.275870 0.601860 -0.538945
O16   O     O_R   0.173200 0.775870 0.398140 -0.560444
O17   O     O_R   0.826800 0.775870 0.601860 -0.526952
O18   O     O_R   0.724950 0.224150 0.398130 -0.561407
O19   O     O_R   0.275050 0.224150 0.601870 -0.580616
O20   O     O_R   0.224950 0.724150 0.398130 -0.562297
O21   O     O_R   0.775050 0.724150 0.601870 -0.591551
O22   O     O_R   0.769940 0.321680 0.500000 -0.594199
O23   O     O_R   0.178340 0.730070 0.500020 -0.574272
O24   O     O_R   0.230060 0.321680 0.500000 -0.604115
O25   O     O_R   0.269940 0.821680 0.500000 -0.595531
O26   O     O_R   0.730060 0.821680 0.500000 -0.609490
O27   O     O_R   0.821690 0.269960 0.499980 -0.579736
O28   O     O_R   0.178310 0.269960 0.500020 -0.559098
O29   O     O_R   0.321690 0.769960 0.499980 -0.577234
O30   O     O_R   0.678310 0.769960 0.500020 -0.548789
O31   O     O_R   0.775070 0.275880 0.601870 -0.558441
O32   O     O_R   0.224930 0.275880 0.398130 -0.563008
O33   O     O_R   0.275070 0.775880 0.601870 -0.561435
O34   O     O_R   0.821660 0.730070 0.499980 -0.541315
O35   O     O_R   0.724930 0.775880 0.398130 -0.564250
O36   O     O_R   0.826820 0.224150 0.601850 -0.550948
O37   O     O_R   0.173180 0.224150 0.398150 -0.529005
O38   O     O_R   0.326820 0.724150 0.601850 -0.542247
O39   O     O_R   0.673180 0.724150 0.398150 -0.527770
O40   O     O_R   0.017100 0.454190 0.442490 -0.589635
O41   O     O_R   0.982900 0.454190 0.557510 -0.549930
O42   O     O_R   0.517100 0.954190 0.442490 -0.593724
O43   O     O_R   0.482900 0.954190 0.557510 -0.549157
O44   O     O_R   0.074600 0.454200 0.557500 -0.564670
O45   O     O_R   0.925400 0.454200 0.442500 -0.607000
O46   O     O_R   0.574600 0.954200 0.557500 -0.567987
O47   O     O_R   0.425400 0.954200 0.442500 -0.604205
O48   O     O_R   0.517070 0.045810 0.442480 -0.566437
Zn1   Zn    Zn3+2 0.715460 0.284550 0.500010 1.233452
Zn2   Zn    Zn3+2 0.038380 0.500000 0.576800 1.214680
Zn3   Zn    Zn3+2 0.461620 0.000000 0.423200 1.202865
Zn4   Zn    Zn3+2 0.538380 0.000000 0.576800 1.213834
Zn5   Zn    Zn3+2 0.284540 0.284550 0.499990 1.238072
Zn6   Zn    Zn3+2 0.215460 0.784550 0.500010 1.237697
Zn7   Zn    Zn3+2 0.784540 0.784550 0.499990 1.248310
Zn8   Zn    Zn3+2 0.784560 0.215470 0.499990 1.230897
Zn9   Zn    Zn3+2 0.215440 0.215470 0.500010 1.231337
Zn10  Zn    Zn3+2 0.284560 0.715470 0.499990 1.235884
Zn11  Zn    Zn3+2 0.715440 0.715470 0.500010 1.226419
Zn12  Zn    Zn3+2 0.961620 0.500000 0.423200 1.205240

loop_
_geom_bond_atom_site_label_1
_geom_bond_atom_site_label_2
_ccdc_geom_bond_type
C69   C139  A    
C105  C110  A    
C133  C137  A    
C87   C91   A    
C155  C159  A    
C73   C93   S    
C21   C26   A    
C25   F4    S    
C13   C60   S    
O19   Zn9   S    
C115  F12   S    
C16   C20   A    
C103  O20   A    
C154  C158  A    
O14   Zn1   S    
C125  C144  S    
C155  Cl15  S    
C82   C87   A    
C84   O23   A    
C29   C33   A    
C126  C143  S    
C95   O34   A    
C66   F15   S    
C77   Cl33  S    
C91   C96   A    
C130  Cl7   S    
O48   Zn3   S    
C142  N6    A    
O5    Zn4   S    
C95   O13   A    
C43   C110  S    
O6    Zn3   S    
C81   C86   A    
C97   C105  A    
O3    Zn12  S    
C83   C88   A    
C100  C109  A    
C81   F29   S    
C130  C134  A    
C118  C140  A    
C39   C136  S    
C25   C29   A    
C102  O15   A    
C27   C31   A    
C119  Cl40  S    
C28   C32   A    
N1    N9    A    
O25   Zn6   S    
C86   C90   A    
C154  Cl14  S    
O27   Zn8   S    
C39   O31   A    
O24   Zn5   S    
C42   C140  S    
C40   O32   A    
C17   C21   A    
C84   O11   A    
C19   C23   A    
O36   Zn8   S    
C78   C82   A    
C29   F13   S    
C11   C33   A    
C47   O4    A    
C127  Cl5   S    
C114  F1    S    
C50   C54   A    
C41   C138  S    
C129  C133  A    
C72   F25   S    
C109  Cl39  S    
O23   Zn6   S    
O47   Zn3   S    
C53   C58   A    
C150  N12   A    
C119  C123  A    
C43   O48   A    
C59   C63   A    
C141  N2    A    
C30   C36   S    
C60   C64   A    
C116  F23   S    
C158  Cl18  S    
O8    Zn12  S    
C52   C56   A    
C100  F21   S    
C49   C53   A    
C51   C55   A    
C87   C113  A    
C73   O10   A    
C44   O2    A    
C61   C65   A    
C48   C52   A    
C34   O44   A    
C99   F20   S    
C23   F3    S    
C114  C136  A    
C97   F18   S    
C75   C79   A    
C64   Cl26  S    
C58   C150  S    
N12   N13   A    
C15   C147  A    
O45   Zn12  S    
O46   Zn4   S    
C41   O33   A    
O26   Zn7   S    
C36   O45   A    
C46   C89   A    
O28   Zn9   S    
C28   F11   S    
C57   Cl29  S    
C99   C108  A    
C61   Cl22  S    
C129  Cl6   S    
O21   Zn11  S    
C132  C136  A    
C21   F36   S    
C68   C74   A    
C121  Cl3   S    
C122  Cl4   S    
C118  C122  A    
C160  Cl20  S    
C49   C117  A    
C115  C137  A    
C141  N5    A    
O17   Zn7   S    
C114  C119  A    
C120  Cl2   S    
O42   Zn3   S    
C67   F16   S    
C92   C97   A    
C54   C59   A    
C134  F34   S    
C13   N11   A    
C31   C34   S    
C20   C153  S    
C62   C66   A    
O35   Zn7   S    
C156  C160  A    
O10   Zn9   S    
C37   O46   A    
C23   C28   A    
C12   C145  A    
C75   Cl31  S    
C151  O24   A    
C121  C125  A    
C76   Cl32  S    
C73   O12   A    
C123  C127  A    
C118  F31   S    
C8    C12   A    
C149  O27   A    
C83   C110  A    
C64   C69   A    
C102  C117  S    
O22   Zn1   S    
C145  C154  A    
C26   C30   A    
C102  O19   A    
C101  O18   A    
O32   Zn5   S    
C101  C106  S    
C42   O35   A    
C71   F24   S    
C153  O26   A    
C18   C22   A    
C107  C111  A    
C76   C80   A    
C104  O21   A    
C49   Cl12  S    
C47   O8    A    
C144  N8    A    
C74   F26   S    
C2    C56   S    
C67   C128  A    
C24   C59   S    
C13   N14   A    
C96   C100  A    
C148  C157  A    
C89   C93   A    
C124  C141  S    
C62   Cl24  S    
O34   Zn7   S    
O29   Zn10  S    
C70   C75   A    
C3    C157  A    
C98   F19   S    
O1    Zn1   S    
O37   Zn9   S    
C51   C139  A    
C58   C62   A    
C105  Cl36  S    
O40   Zn12  S    
O41   Zn2   S    
C4    F5    S    
C15   C19   A    
C38   O47   A    
N2    N6    A    
C69   F17   S    
C54   H3    S    
C3    C7    A    
C44   O6    A    
C71   C76   A    
C45   O7    A    
C20   C25   A    
C5    F6    S    
C48   C106  A    
C146  C155  A    
C50   Cl23  S    
C63   Cl25  S    
C66   C117  A    
C12   C17   A    
C55   H4    S    
O12   Zn5   S    
C82   F30   S    
C55   C60   A    
C90   C94   A    
C1    O1    A    
C135  C140  A    
C145  Cl9   S    
C22   F2    S    
C57   C90   A    
C107  Cl37  S    
C85   C89   A    
C152  O29   A    
C48   Cl1   S    
N10   N11   A    
C27   F10   S    
C33   C37   S    
C98   C107  A    
C108  C112  A    
C9    C14   A    
C80   C85   A    
C11   C16   A    
C68   Cl30  S    
C40   C137  S    
C84   C94   S    
C80   F28   S    
C147  C156  A    
C3    Cl21  S    
C46   C71   A    
O2    Zn4   S    
C1    C92   S    
N3    N7    A    
C135  F35   S    
C50   C128  A    
O20   Zn10  S    
C18   C151  S    
C2    N13   A    
C43   O5    A    
O44   Zn2   S    
C37   O42   A    
C47   C113  S    
C156  Cl16  S    
C39   O36   A    
O7    Zn2   S    
C159  Cl19  S    
C85   C111  A    
C6    C10   A    
O13   Zn11  S    
C148  Cl13  S    
C104  C139  S    
C16   C148  A    
C8    C30   A    
C65   F14   S    
C79   C83   A    
C123  C142  S    
C24   N10   A    
C70   F22   S    
C143  N7    A    
C124  C129  A    
C57   C72   A    
C108  Cl38  S    
O16   Zn6   S    
C44   C111  S    
N4    N8    A    
C42   O39   A    
C35   Cl27  S    
C77   C81   A    
C74   C78   A    
C153  O30   A    
C56   C61   A    
C5    C9    A    
C151  O28   A    
C104  O17   A    
C14   C18   A    
C95   C96   S    
C4    C8    A    
C45   C112  S    
C142  N16   A    
C7    C11   A    
N14   N15   A    
O15   Zn5   S    
C131  C135  A    
C10   C15   A    
O43   Zn4   S    
C144  N3    A    
C68   C91   A    
C127  C132  A    
C6    C160  A    
O38   Zn10  S    
C125  C130  A    
C4    C158  A    
C88   C92   A    
C35   C70   A    
C5    C159  A    
C32   C38   S    
O11   Zn10  S    
C109  C113  A    
C41   O38   A    
C38   O43   A    
O30   Zn11  S    
C40   O37   A    
O31   Zn1   S    
C132  F32   S    
C79   F27   S    
C147  Cl11  S    
C45   O3    A    
C116  C138  A    
N5    N16   A    
C63   C67   A    
C133  F33   S    
O4    Zn2   S    
C122  C126  A    
C24   N15   A    
C86   C112  A    
C72   C77   A    
C35   C88   A    
O39   Zn11  S    
C19   C152  S    
O9    Zn8   S    
C157  Cl17  S    
C149  O22   A    
C103  C128  S    
C6    F7    S    
C52   H1    S    
C131  Cl8   S    
C146  Cl10  S    
C34   O40   A    
C65   C106  A    
C152  O25   A    
C150  N9    A    
O33   Zn6   S    
C17   C149  S    
C7    F8    S    
C51   Cl34  S    
C53   H2    S    
C134  C138  A    
O18   Zn8   S    
C101  O14   A    
C14   C146  A    
C22   C27   A    
C103  O16   A    
C126  C131  A    
C36   O41   A    
C94   C99   A    
C26   F9    S    
C78   Cl35  S    
C2    N1    A    
C9    C31   A    
C10   C32   A    
C1    O9    A    
C115  C120  A    
C143  N4    A    
C116  C121  A    
C46   Cl28  S    
C93   C98   A    
C120  C124  A    
