data_mof_unit_22802.cif
_audit_creation_date              2012-12-10T18:50:54-0500
_audit_creation_method            fapswitch 2.2
_symmetry_space_group_name_H-M    P1
_symmetry_Int_Tables_number       1
_space_group_crystal_system       triclinic
_cell_length_a                    10.723536
_cell_length_b                    9.988709
_cell_length_c                    15.762179
_cell_angle_alpha                 90.010414
_cell_angle_beta                  93.119044
_cell_angle_gamma                 90.000101
_cell_volume                      1685.85337555

loop_
_atom_site_label
_atom_site_type_symbol
_atom_type_description
_atom_site_fract_x
_atom_site_fract_y
_atom_site_fract_z
_atom_type_partial_charge
C1    C     C_R   0.260263 0.500000 0.499769 0.866737
C2    C     C_R   0.936166 0.622069 0.500877 -0.179941
C3    C     C_R   0.872416 0.499997 0.500505 -0.014860
C4    C     C_R   0.127560 0.499998 0.499961 -0.018937
C5    C     C_R   0.580295 0.071806 0.554570 0.149310
C6    C     C_R   0.580272 0.928220 0.554586 0.154106
C7    C     C_R   0.499712 0.499980 0.338666 0.900874
C8    C     C_R   0.420086 0.929218 0.445927 0.434599
C9    C     C_R   0.420086 0.070756 0.445927 0.433278
C10   C     C_R   0.739688 0.500000 0.500339 0.858790
C11   C     C_R   0.500414 0.500017 0.661337 0.881877
C12   C     C_3   0.639091 0.500404 0.954269 0.753310
C13   C     C_3   0.424746 0.622336 0.048113 0.279649
C14   C     C_3   0.448846 0.362286 0.047284 0.078438
C15   C     C_3   0.430441 0.367631 0.947544 0.421906
C16   C     C_3   0.430808 0.633686 0.949173 0.369355
C17   C     C_1   0.499699 0.500108 0.749996 -0.163523
C18   C     C_3   0.502387 0.498767 0.083063 -0.145512
C19   C     C_3   0.497266 0.500582 0.916964 -0.084423
C20   C     C_3   0.301036 0.667310 0.904524 -0.810548
C21   C     C_3   0.290809 0.355361 0.915388 -0.681137
C22   C     C_3   0.670993 0.142540 0.616380 -0.739740
C23   C     C_3   0.640555 0.513999 0.054989 0.519114
C24   C     C_3   0.670820 0.857513 0.616494 -0.761627
C25   C     C_1   0.498586 0.500378 0.825131 0.155058
C26   C     C_1   0.501622 0.499380 0.174789 0.132144
C27   C     C_1   0.500652 0.499842 0.249958 -0.138023
C28   C     C_R   0.063822 0.377921 0.499696 -0.167941
C29   C     C_R   0.063895 0.622073 0.500569 -0.168591
C30   C     C_R   0.936093 0.377922 0.500009 -0.180625
H1    H     H_    0.520485 0.283902 0.063702 0.167831
H2    H     H_    0.225209 0.403407 0.957264 0.233038
H3    H     H_    0.275271 0.394212 0.849733 0.204056
H4    H     H_    0.261506 0.248647 0.913644 0.247833
H5    H     H_    0.345036 0.770851 0.394975 0.380588
H6    H     H_    0.345084 0.229100 0.394945 0.378173
H7    H     H_    0.259332 0.543561 0.063047 0.387175
H8    H     H_    0.362374 0.276664 0.139061 0.367995
H9    H     H_    0.460452 0.173289 0.939612 0.357619
H10   H     H_    0.510426 0.757879 0.871319 0.367367
H11   H     H_    0.778498 0.640415 0.078182 0.370669
H12   H     H_    0.470201 0.713434 0.076376 0.247611
H13   H     H_    0.736611 0.440545 0.154445 0.362449
H14   H     H_    0.793513 0.596507 0.932770 0.360610
H15   H     H_    0.689982 0.308471 0.966793 0.387428
H16   H     H_    0.667697 0.250818 0.613960 0.283071
H17   H     H_    0.651602 0.115098 0.682587 0.235050
H18   H     H_    0.768341 0.114837 0.603464 0.200732
H19   H     H_    0.667669 0.749235 0.613965 0.284025
H20   H     H_    0.768207 0.885351 0.603791 0.205027
H21   H     H_    0.651120 0.884836 0.682676 0.225874
H22   H     H_    0.112094 0.282651 0.499190 0.180272
H23   H     H_    0.112225 0.717345 0.500776 0.179565
H24   H     H_    0.887775 0.282658 0.499689 0.167576
H25   H     H_    0.887907 0.717334 0.501259 0.167737
H26   H     H_    0.222161 0.607464 0.924914 0.232509
H27   H     H_    0.276464 0.772669 0.919019 0.281080
H28   H     H_    0.303594 0.659510 0.834432 0.205720
N1    N     N_R   0.499970 0.857200 0.499980 -0.193902
N2    N     N_R   0.499970 0.142800 0.499980 -0.193496
O1    O     O_R   0.316750 0.614620 0.499990 -0.643784
O2    O     O_3   0.336232 0.132033 0.389243 -0.708790
O3    O     O_3   0.302905 0.627943 0.077357 -0.734245
O4    O     O_3   0.338199 0.324497 0.085434 -0.747817
O5    O     O_3   0.489982 0.256115 0.912082 -0.746066
O6    O     O_3   0.506602 0.746007 0.933721 -0.690303
O7    O     O_3   0.686156 0.641635 0.080484 -0.740947
O8    O     O_3   0.717829 0.414345 0.094344 -0.805906
O9    O     O_3   0.702614 0.610039 0.920168 -0.703072
O10   O     O_3   0.701850 0.383912 0.927462 -0.714007
O11   O     O_R   0.316750 0.385380 0.499990 -0.642627
O12   O     O_R   0.499990 0.614720 0.377140 -0.613330
O13   O     O_R   0.499990 0.385280 0.377140 -0.626886
O14   O     O_R   0.683220 0.614710 0.500000 -0.631903
O15   O     O_R   0.683220 0.385290 0.500000 -0.633836
O16   O     O_R   0.499980 0.614620 0.622860 -0.625761
O17   O     O_R   0.499980 0.385380 0.622860 -0.607449
O18   O     O_3   0.336214 0.867915 0.389254 -0.699881
Zn1   Zn    Zn3+2 0.499980 0.653120 0.500000 0.950536
Zn2   Zn    Zn3+2 0.499980 0.346880 0.500000 0.951674

loop_
_geom_bond_atom_site_label_1
_geom_bond_atom_site_label_2
_ccdc_geom_bond_type
C22   H18   S    
C12   O9    S    
C10   O14   A    
C14   C18   S    
C18   C26   S    
O16   Zn1   S    
C14   H1    S    
C20   H26   S    
C7    O13   A    
C15   C19   S    
C30   H24   S    
C12   C23   S    
C26   C27   T    
C1    O11   A    
C13   C18   S    
C2    C29   A    
O12   Zn1   S    
C2    H25   S    
C8    N1    A    
C5    C6    A    
C21   H3    S    
C15   O5    S    
C7    C27   S    
C23   O7    S    
O11   Zn2   S    
C11   O17   A    
C4    C28   A    
C11   C17   S    
C5    C22   S    
C8    C9    A    
O15   Zn2   S    
C4    C29   A    
C24   H21   S    
C22   H17   S    
C6    C24   S    
H10   O6    S    
C8    O18   S    
H9    O5    S    
H6    O2    S    
C13   H12   S    
H7    O3    S    
H8    O4    S    
C24   H20   S    
C21   H2    S    
C18   C23   S    
H11   O7    S    
N1    Zn1   S    
C7    O12   A    
H13   O8    S    
C21   H4    S    
C9    O2    S    
C23   O8    S    
C3    C30   A    
C10   O15   A    
C13   O3    S    
C16   C20   S    
C14   O4    S    
H14   O9    S    
C22   H16   S    
O14   Zn1   S    
C16   O6    S    
C20   H28   S    
O17   Zn2   S    
C24   H19   S    
C12   O10   S    
N2    Zn2   S    
C5    N2    A    
H15   O10   S    
C6    N1    A    
C1    O1    A    
H5    O18   S    
C11   O16   A    
C1    C4    S    
C17   C25   T    
C9    N2    A    
C28   C30   A    
C2    C3    A    
C3    C10   S    
C28   H22   S    
C29   H23   S    
O1    Zn1   S    
C16   C19   S    
C12   C19   S    
O13   Zn2   S    
C19   C25   S    
C15   C21   S    
C13   C16   S    
C14   C15   S    
C20   H27   S    
