data_mof_unit_46809.cif
_audit_creation_date              2013-03-05T15:57:47-0500
_audit_creation_method            fapswitch 2.2
_symmetry_space_group_name_H-M    P1
_symmetry_Int_Tables_number       1
_space_group_crystal_system       triclinic
_cell_length_a                    15.66589
_cell_length_b                    14.853101
_cell_length_c                    15.170034
_cell_angle_alpha                 109.620594
_cell_angle_beta                  121.906284
_cell_angle_gamma                 59.126331
_cell_volume                      2561.82501944

loop_
_atom_site_label
_atom_site_type_symbol
_atom_site_description
_atom_site_fract_x
_atom_site_fract_y
_atom_site_fract_z
_atom_type_partial_charge
C1    C     C_R   0.758017 0.991658 0.790619 -0.111315
C2    C     C_R   0.197998 0.061285 0.225833 -0.126575
H1    H     H_    0.772578 0.957441 0.852333 0.092370
H2    H     H_    0.170759 0.117936 0.176560 0.087284
N1    N     N_R   0.705410 0.966550 0.689210 -0.050763
N2    N     N_R   0.294590 0.033450 0.310790 -0.049949
C3    C     C_R   0.221706 0.288090 0.470570 0.019464
C4    C     C_R   0.805653 0.736990 0.579597 0.067458
N3    N     N_R   0.294590 0.188320 0.465660 -0.065075
N4    N     N_R   0.705410 0.811680 0.534340 -0.069488
C5    C     C_R   0.594549 0.217235 0.493452 -0.122326
C6    C     C_R   0.407260 0.769863 0.437123 -0.061852
H3    H     H_    0.678974 0.185637 0.507879 0.137022
H4    H     H_    0.321607 0.786142 0.391424 0.110056
N5    N     N_R   0.556610 0.157790 0.497330 -0.046651
N6    N     N_R   0.443390 0.842210 0.502670 -0.037297
C7    C     C_R   0.410413 0.982626 0.714265 0.508424
C8    C     C_R   0.589509 0.963423 0.266952 0.545356
N7    N     N_R   0.443390 0.997080 0.657540 -0.110267
N8    N     N_R   0.556610 0.002920 0.342460 -0.103059
C9    C     C_R   0.411933 0.292873 0.417390 -0.093638
C10   C     C_R   0.591162 0.695982 0.510749 -0.122848
H5    H     H_    0.329448 0.334771 0.361140 0.105104
H6    H     H_    0.676901 0.641984 0.532872 0.145041
N9    N     N_R   0.443390 0.203250 0.451380 -0.051209
N10   N     N_R   0.556610 0.796750 0.548620 -0.049426
C11   C     C_R   0.594005 0.917540 0.793163 -0.223233
C12   C     C_R   0.404566 0.025720 0.194472 -0.204359
H7    H     H_    0.679843 0.873557 0.843776 0.144808
H8    H     H_    0.318426 0.050407 0.139256 0.136747
N11   N     N_R   0.556610 0.951620 0.703500 -0.070054
N12   N     N_R   0.443390 0.048380 0.296500 -0.067531
C13   C     C_R   0.225633 0.197839 0.565724 0.002836
C14   C     C_R   0.809597 0.820904 0.486864 0.039565
H9    H     H_    0.206250 0.177561 0.612509 0.210061
H10   H     H_    0.842283 0.854351 0.466267 0.234929
N13   N     N_R   0.294590 0.131500 0.522480 -0.055348
N14   N     N_R   0.705410 0.868500 0.477520 -0.082450
C15   C     C_R   0.758756 0.083755 0.700293 -0.120867
C16   C     C_R   0.196293 0.970528 0.314915 -0.101876
H11   H     H_    0.772478 0.136678 0.680004 0.106604
H12   H     H_    0.164943 0.944560 0.345833 0.142504
N15   N     N_R   0.705410 0.023370 0.632390 -0.048198
N16   N     N_R   0.294590 0.976630 0.367610 -0.045789
C17   C     C_R   0.790004 0.067330 0.800002 0.135716
C18   C     C_R   0.134295 0.023112 0.226270 0.128320
C19   C     C_R   0.180398 0.296623 0.535485 -0.162204
C20   C     C_R   0.874795 0.738302 0.550398 -0.142235
C21   C     C_R   0.505780 0.305382 0.444476 0.053370
C22   C     C_R   0.498409 0.676364 0.437913 0.026128
C23   C     C_R   0.503176 0.936500 0.800765 -0.088549
C24   C     C_R   0.494583 0.973518 0.173886 -0.123569
H13   H     H_    0.991534 0.165341 0.085348 0.127178
H14   H     H_    0.820999 0.068915 0.991178 0.129407
Ni1   Ni    Ni4+2 0.629830 0.882720 0.617850 0.219958
Ni2   Ni    Ni4+2 0.370170 0.117280 0.382150 0.208363
Ni3   Ni    Ni4+2 0.629830 0.013030 0.487540 0.264667
Ni4   Ni    Ni4+2 0.370170 0.986970 0.512460 0.302727
H15   H     H_    0.985091 0.994402 0.150460 0.131424
H16   H     H_    0.896435 0.151577 0.895693 0.129228
H17   H     H_    0.820925 0.494067 0.807179 0.125427
H18   H     H_    0.206459 0.456597 0.119598 0.124488
C25   C     C_R   0.652484 0.606661 0.773511 -0.123229
C26   C     C_R   0.366982 0.334461 0.135608 -0.130913
H19   H     H_    0.617523 0.569256 0.696631 0.123599
H20   H     H_    0.407246 0.387227 0.171236 0.134214
C27   C     C_R   0.582812 0.697896 0.810088 -0.100875
C28   C     C_R   0.428268 0.227411 0.117451 -0.114516
H21   H     H_    0.494703 0.729599 0.760827 0.188805
H22   H     H_    0.515291 0.198695 0.139506 0.163505
C29   C     C_R   0.627228 0.748552 0.908875 0.103330
C30   C     C_R   0.375481 0.159274 0.063396 0.135037
C31   C     C_R   0.742424 0.705532 0.970993 -0.148981
C32   C     C_R   0.260979 0.199360 0.029951 -0.144251
H23   H     H_    0.778473 0.744212 0.046781 0.157211
H24   H     H_    0.218118 0.148724 0.984216 0.121438
C33   C     C_R   0.811843 0.613721 0.934505 -0.104536
C34   C     C_R   0.200867 0.305762 0.052869 -0.103178
H25   H     H_    0.900554 0.581350 0.982412 0.121468
H26   H     H_    0.112758 0.336294 0.027394 0.110273
C35   C     C_R   0.766947 0.564518 0.835673 -0.082303
C36   C     C_R   0.253673 0.373561 0.104854 -0.090843
C37   C     C_R   0.545709 0.860335 0.034653 0.002413
C38   C     C_R   0.446159 0.042677 0.935468 0.013930
C39   C     C_R   0.486976 0.960780 0.072971 0.081097
C40   C     C_R   0.501557 0.942113 0.895161 0.064285
C41   C     C_R   0.435169 0.052017 0.022890 -0.006379
C42   C     C_R   0.555055 0.850728 0.945199 -0.016408
H27   H     H_    0.991773 0.566160 0.649206 0.182872
H28   H     H_    0.193562 0.475033 0.610784 0.188094
C43   C     C_2   0.098392 0.391373 0.561602 0.490838
C44   C     C_2   0.994396 0.668164 0.582788 0.555321
C45   C     C_2   0.117651 0.478482 0.599527 -0.236377
C46   C     C_2   0.036100 0.577789 0.622424 -0.234614
C47   C     C_2   0.851433 0.116273 0.897542 -0.206475
C48   C     C_2   0.018324 0.044790 0.153689 -0.202393
H29   H     H_    0.008638 0.801570 0.060100 0.113737
H30   H     H_    0.012075 0.109026 0.660568 0.174403
C49   C     C_R   0.098232 0.746488 0.212318 -0.155501
C50   C     C_R   0.889028 0.161141 0.507972 0.046685
H31   H     H_    0.026772 0.790720 0.228604 0.147956
H32   H     H_    0.937605 0.097363 0.469545 0.146520
C51   C     C_R   0.200769 0.684362 0.286499 -0.008803
C52   C     C_R   0.784279 0.236241 0.449799 0.078625
C53   C     C_R   0.294035 0.629181 0.265583 0.031794
C54   C     C_R   0.721157 0.317363 0.501016 0.030728
C55   C     C_R   0.282988 0.638406 0.170593 -0.159360
C56   C     C_R   0.766836 0.325179 0.610273 -0.140981
H33   H     H_    0.353484 0.596149 0.152958 0.127342
H34   H     H_    0.719728 0.387206 0.650621 0.115575
C57   C     C_R   0.180321 0.700297 0.096844 -0.078131
C58   C     C_R   0.871706 0.250599 0.667493 -0.129486
H35   H     H_    0.172205 0.706498 0.023453 0.126010
H36   H     H_    0.905499 0.255961 0.751469 0.114510
C59   C     C_R   0.087960 0.753614 0.117348 -0.132531
C60   C     C_R   0.931992 0.167935 0.616270 -0.025682
C61   C     C_R   0.406917 0.467382 0.356494 -0.236642
C62   C     C_R   0.601176 0.484846 0.425386 -0.205849
H37   H     H_    0.329790 0.461535 0.324653 0.134367
H38   H     H_    0.677607 0.490873 0.453338 0.189214
C63   C     C_R   0.508588 0.388366 0.413894 0.069475
C64   C     C_R   0.499314 0.571894 0.389516 0.056522
C65   C     C_R   0.607942 0.394743 0.442392 0.007265
C66   C     C_R   0.401754 0.556550 0.339035 0.023610
C67   C     C_2   0.864996 0.104635 0.988427 -0.102986
C68   C     C_2   0.959429 0.114700 0.083340 -0.102390
C69   C     C_1   0.595362 0.767652 0.086804 0.129684
N17   N     N_1   0.634972 0.693824 0.128459 -0.052933
C70   C     C_1   0.406051 0.137894 0.890824 0.104576
N18   N     N_1   0.374265 0.213426 0.855604 -0.076914
S1    S     S_3+6 0.071063 0.694022 0.548423 -0.047697
O1    O     O_2   0.193378 0.637881 0.613855 -0.295417
O2    O     O_2   0.043306 0.657035 0.435280 -0.294730
O3    O     O_3   0.037156 0.824144 0.567378 -0.559226
H39   H     H_    0.042564 0.839333 0.512168 0.378497
S2    S     S_3+6 0.974321 0.387237 0.531455 -0.055008
O4    O     O_2   0.974591 0.386892 0.630530 -0.276776
O5    O     O_2   0.874752 0.481301 0.475863 -0.332435
O6    O     O_3   0.966928 0.276957 0.454591 -0.531244
H40   H     H_    0.958155 0.285928 0.388024 0.344641
C71   C     C_1   0.172307 0.363422 0.398946 0.078257
N19   N     N_1   0.130868 0.424444 0.341158 -0.046509
C72   C     C_1   0.838445 0.705584 0.677166 0.024563
N20   N     N_1   0.864078 0.680958 0.755379 -0.079762
C73   C     C_1   0.213899 0.687783 0.388749 0.139495
N21   N     N_1   0.227683 0.690881 0.472208 0.033974
C74   C     C_1   0.743011 0.228686 0.338322 0.160305
N22   N     N_1   0.710287 0.222881 0.249012 -0.080414
S3    S     S_3+6 0.281313 0.980933 0.667601 -0.096408
O7    O     O_2   0.215295 0.073784 0.719405 -0.341738
O8    O     O_2   0.218591 0.985684 0.551485 -0.351175
O9    O     O_3   0.301063 0.870297 0.697067 -0.548720
H41   H     H_    0.225622 0.876554 0.671183 0.399955
S4    S     S_3+6 0.714162 0.950225 0.279940 -0.106654
O10   O     O_2   0.766968 0.007278 0.380868 -0.373581
O11   O     O_2   0.791339 0.835477 0.277242 -0.314210
O12   O     O_3   0.688474 0.002028 0.180990 -0.578329
H42   H     H_    0.762430 0.983955 0.189157 0.364447

loop_
_geom_bond_atom_site_label_1
_geom_bond_atom_site_label_2
_geom_bond_distance
_ccdc_geom_bond_type
C49   C51   1.401250 A    
C25   H19   1.082021 S    
C45   C46   1.455857 S    
C11   H7    1.080953 S    
C31   H23   1.083454 S    
C74   N22   1.156957 T    
C22   C64   1.473220 S    
C38   C41   1.378755 A    
C58   C60   1.395785 A    
S1    O3    1.683696 S    
N7    N11   1.366692 A    
N10   Ni1   1.838047 S    
C7    C23   1.367242 A    
C58   H36   1.082460 S    
C73   N21   1.154884 T    
C8    C24   1.386056 A    
C15   H11   1.079226 S    
C2    C18   1.381190 A    
C16   C18   1.381271 A    
C53   C55   1.403532 A    
O12   H42   0.990521 S    
C32   H24   1.083179 S    
C25   C35   1.397687 A    
C5    H3    1.069278 S    
C1    N1    1.332228 A    
C26   C28   1.394467 A    
C24   C39   1.424559 S    
C61   C66   1.390594 A    
C38   C40   1.405469 A    
C61   H37   1.078600 S    
C49   C59   1.397348 A    
C34   H26   1.082424 S    
N5    N9    1.366692 A    
C27   C29   1.404950 A    
C72   N20   1.157536 T    
C38   C70   1.461171 S    
C50   C52   1.402711 A    
C40   C42   1.404618 A    
C62   C64   1.396907 A    
H27   C46   1.070333 S    
C61   C63   1.405103 A    
C7    N7    1.327136 A    
C5    N5    1.321637 A    
C43   S2    1.776190 S    
C6    N6    1.332486 A    
N16   Ni4   1.861114 S    
N3    N13   1.394192 A    
C50   C60   1.397057 A    
C54   C65   1.478043 S    
N9    Ni2   1.838046 S    
H29   C59   1.082601 S    
S4    O11   1.502979 D    
N13   Ni4   1.842803 S    
C8    S4    1.765510 S    
C57   H35   1.082320 S    
C10   C22   1.392231 A    
C16   H12   1.081359 S    
C37   C42   1.393506 A    
H18   C36   1.082414 S    
N2    N16   1.394194 A    
C52   C54   1.412080 A    
N5    Ni3   1.842640 S    
C52   C74   1.442824 S    
C2    N2    1.332660 A    
C19   C43   1.447772 S    
S2    O6    1.680876 S    
C23   C40   1.419232 S    
C9    C21   1.398326 A    
C11   C23   1.362960 A    
C33   H25   1.082588 S    
N7    Ni4   1.862354 S    
N6    N10   1.366692 A    
H14   C67   1.085745 S    
C25   C27   1.397420 A    
C39   C41   1.408272 A    
C11   N11   1.328655 A    
C12   N12   1.320581 A    
C44   S1    1.769623 S    
S4    O12   1.681231 S    
C30   C32   1.405094 A    
S3    O9    1.679665 S    
C37   C69   1.451899 S    
C29   C31   1.405833 A    
C15   N15   1.342657 A    
C13   N13   1.338215 A    
C56   C58   1.396497 A    
C53   C66   1.484718 S    
C1    H1    1.077789 S    
C26   H20   1.080156 S    
C2    H2    1.079615 S    
C4    C20   1.380019 A    
C5    C21   1.375709 A    
C43   C45   1.346582 D    
N14   Ni3   1.842804 S    
C34   C36   1.397276 A    
H30   C60   1.080851 S    
C33   C35   1.397719 A    
C28   C30   1.401889 A    
C21   C63   1.482452 S    
C44   C46   1.347956 D    
C48   C68   1.337366 D    
C51   C53   1.411952 A    
N3    Ni2   1.877729 S    
N6    Ni4   1.842641 S    
N4    Ni1   1.877726 S    
C26   C36   1.398012 A    
S4    O10   1.501978 D    
S2    O5    1.503489 D    
C47   C67   1.337394 D    
C37   C39   1.408704 A    
C50   H32   1.083755 S    
C6    H4    1.065766 S    
C9    H5    1.072825 S    
C10   N10   1.335288 A    
C67   C68   1.454256 S    
C13   C19   1.380846 A    
C10   H6    1.076426 S    
C14   C20   1.394599 A    
H15   C48   1.087138 S    
C64   C66   1.406186 A    
C69   N17   1.157300 T    
C17   C47   1.460959 S    
C3    C71   1.438869 S    
C30   C41   1.486946 S    
C51   C73   1.439256 S    
H28   C45   1.083822 S    
C70   N18   1.157605 T    
N8    N12   1.366690 A    
C3    N3    1.335861 A    
C9    N9    1.341597 A    
C49   H31   1.083721 S    
C14   N14   1.349971 A    
C55   C57   1.398133 A    
N1    Ni1   1.837686 S    
C7    S3    1.766053 S    
N2    Ni2   1.837687 S    
S2    O4    1.502464 D    
S1    O2    1.503274 D    
C6    C22   1.387674 A    
O6    H40   0.990577 S    
O3    H39   0.990495 S    
C32   C34   1.398223 A    
C15   C17   1.389103 A    
N4    N14   1.394196 A    
N11   Ni1   1.878552 S    
S3    O8    1.502002 D    
H17   C35   1.082300 S    
S3    O7    1.502214 D    
C12   C24   1.366789 A    
C1    C17   1.389196 A    
C55   H33   1.083190 S    
C54   C56   1.405317 A    
C12   H8    1.077361 S    
C13   H9    1.073236 S    
C14   H10   1.068212 S    
C56   H34   1.081222 S    
C4    C72   1.444402 S    
C8    N8    1.335786 A    
C62   C65   1.387893 A    
N1    N15   1.394193 A    
C62   H38   1.081344 S    
C63   C65   1.425130 A    
H13   C68   1.084580 S    
N15   Ni3   1.861114 S    
C29   C42   1.490352 S    
H16   C47   1.087634 S    
C16   N16   1.346074 A    
C18   C48   1.462851 S    
O9    H41   0.990360 S    
C4    N4    1.323656 A    
C20   C44   1.484813 S    
C28   H22   1.081376 S    
C31   C33   1.398585 A    
C57   C59   1.397065 A    
C27   H21   1.079051 S    
N8    Ni3   1.862354 S    
C71   N19   1.157433 T    
N12   Ni2   1.878552 S    
S1    O1    1.502606 D    
C3    C19   1.382117 A    
