data_mof_unit_29337.cif
_audit_creation_date              2013-03-05T16:02:02-0500
_audit_creation_method            fapswitch 2.2
_symmetry_space_group_name_H-M    P1
_symmetry_Int_Tables_number       1
_space_group_crystal_system       triclinic
_cell_length_a                    6.942666
_cell_length_b                    17.628422
_cell_length_c                    19.44837
_cell_angle_alpha                 108.564149
_cell_angle_beta                  88.99029
_cell_angle_gamma                 90.954151
_cell_volume                      2255.89868694

loop_
_atom_site_label
_atom_site_type_symbol
_atom_site_description
_atom_site_fract_x
_atom_site_fract_y
_atom_site_fract_z
_atom_type_partial_charge
O1    O     O_R   0.494330 0.415720 0.413720 -0.597859
O2    O     O_R   0.819330 0.430070 0.560210 -0.594508
O3    O     O_R   0.994320 0.584280 0.586280 -0.604589
C1    C     C_R   0.648726 0.413677 0.580742 1.073811
O4    O     O_R   0.823730 0.406300 0.412670 -0.578488
O5    O     O_R   0.998760 0.560340 0.437690 -0.562666
C2    C     C_R   0.654752 0.382631 0.385531 1.117061
O6    O     O_R   0.489890 0.439660 0.562310 -0.529867
O7    O     O_3   0.662340 0.550560 0.508380 -0.276332
V1    V     V_3+5 0.935370 0.490620 0.498450 1.243796
O8    O     O_R   0.328750 0.569930 0.439790 -0.596517
C3    C     C_R   0.162024 0.584400 0.417809 0.939462
O9    O     O_R   0.324340 0.593700 0.587330 -0.586162
C4    C     C_R   0.154777 0.615399 0.615809 0.934459
V2    V     V_3+5 0.435940 0.509380 0.501550 1.244640
O10   O     O_3   0.159100 0.449440 0.491620 -0.254050
C5    C     C_R   0.996339 0.597251 0.748378 -0.313962
C6    C     C_R   0.921610 0.584743 0.811257 0.341470
C7    C     C_R   0.929650 0.646974 0.876537 -0.254241
C8    C     C_R   0.011167 0.720706 0.880084 0.435922
C9    C     C_R   0.068174 0.737767 0.815316 -0.064201
C10   C     C_R   0.067902 0.673189 0.748784 0.041307
C11   C     C_R   0.125952 0.816132 0.815458 -0.244744
C12   C     C_R   0.200072 0.827966 0.750078 -0.051165
C13   C     C_R   0.205819 0.761543 0.684921 0.013788
C14   C     C_R   0.142072 0.684512 0.684258 -0.151810
C15   C     C_R   0.269484 0.904082 0.747118 0.405004
C16   C     C_R   0.359103 0.910211 0.683154 0.372812
C17   C     C_R   0.342021 0.846788 0.617705 0.230714
C18   C     C_R   0.266847 0.773726 0.619601 -0.350275
H1    H     H_    0.995758 0.546881 0.699056 0.189950
H2    H     H_    0.883370 0.636878 0.926436 0.202762
H3    H     H_    0.253818 0.726326 0.568458 0.174937
C19   C     C_R   0.246266 0.609880 0.301229 -0.189668
C20   C     C_R   0.158131 0.635156 0.370086 -0.122796
C21   C     C_R   0.070956 0.710293 0.394494 -0.031819
C22   C     C_R   0.067733 0.760637 0.350542 -0.097395
C23   C     C_R   0.150872 0.733500 0.280127 0.029052
C24   C     C_R   0.242160 0.658163 0.255924 0.185109
C25   C     C_R   0.992797 0.838879 0.376540 0.274093
C26   C     C_R   0.991089 0.887422 0.331266 0.447559
C27   C     C_R   0.051340 0.856459 0.257037 -0.225198
C28   C     C_R   0.143912 0.781460 0.233773 -0.020885
C29   C     C_R   0.229938 0.753960 0.163940 0.192596
C30   C     C_R   0.323657 0.679977 0.141480 -0.159000
C31   C     C_R   0.328780 0.632399 0.186806 -0.177629
C32   C     C_R   0.022085 0.897716 0.205494 0.339520
C33   C     C_R   0.113214 0.870897 0.136162 -0.267473
C34   C     C_R   0.221566 0.800546 0.117424 -0.205865
H4    H     H_    0.315790 0.552136 0.282653 0.107927
H5    H     H_    0.012022 0.729508 0.449026 0.151298
H6    H     H_    0.293644 0.780229 0.064994 0.139567
H7    H     H_    0.391255 0.658337 0.088261 0.154871
H8    H     H_    0.400427 0.575177 0.167658 0.155654
C35   C     C_R   0.478307 0.188989 0.872541 -0.118496
C36   C     C_R   0.624824 0.134275 0.869403 -0.128755
C37   C     C_R   0.772988 0.124469 0.817686 -0.121796
C38   C     C_R   0.773472 0.167382 0.767644 0.045874
C39   C     C_R   0.626704 0.224063 0.772301 0.106526
C40   C     C_R   0.476582 0.234036 0.824468 -0.064965
C41   C     C_R   0.918456 0.155810 0.713553 0.258729
C42   C     C_R   0.920292 0.202172 0.667180 -0.202053
C43   C     C_R   0.777013 0.258722 0.671340 0.092752
C44   C     C_R   0.629144 0.270175 0.724333 -0.054018
C45   C     C_R   0.484714 0.327663 0.729633 -0.249800
C46   C     C_R   0.348437 0.342903 0.787787 0.488777
C47   C     C_R   0.333213 0.291745 0.829729 0.434515
C48   C     C_R   0.779465 0.302541 0.622188 0.452709
C49   C     C_R   0.635468 0.360294 0.626833 -0.374309
C50   C     C_R   0.481159 0.368274 0.676979 0.481795
H9    H     H_    0.369300 0.197657 0.914670 0.142528
H10   H     H_    0.886290 0.082670 0.816548 0.163610
H11   H     H_    0.033199 0.191900 0.626182 0.217869
H12   H     H_    0.378070 0.140501 0.432690 0.187651
C51   C     C_R   0.763379 0.401176 0.244726 0.410162
C52   C     C_R   0.835958 0.407594 0.179501 -0.286180
C53   C     C_R   0.833454 0.342447 0.116131 0.338051
C54   C     C_R   0.759616 0.269287 0.118910 -0.313431
C55   C     C_R   0.693256 0.258798 0.184737 0.051457
C56   C     C_R   0.699190 0.325221 0.249843 -0.051099
C57   C     C_R   0.616228 0.183649 0.184900 -0.151911
C58   C     C_R   0.546703 0.173229 0.251032 -0.098401
C59   C     C_R   0.566551 0.237898 0.317941 -0.015893
C60   C     C_R   0.642217 0.313968 0.316979 -0.253473
C61   C     C_R   0.457738 0.099827 0.253402 0.539583
C62   C     C_R   0.396561 0.090937 0.318575 -0.079687
C63   C     C_R   0.423573 0.151166 0.382954 -0.314117
C64   C     C_R   0.508616 0.224185 0.384304 0.500189
H13   H     H_    0.886270 0.465549 0.177956 0.194719
H14   H     H_    0.754459 0.220581 0.068420 0.155729
H15   H     H_    0.331604 0.034953 0.319247 0.165786
O11   O     O_R   0.775200 0.060470 0.937800 -0.600529
O12   O     O_R   0.441110 0.093720 0.087350 -0.565214
O13   O     O_R   0.266330 0.939630 0.062280 -0.585891
C65   C     C_R   0.609094 0.116580 0.115105 0.949587
O14   O     O_R   0.445750 0.069950 0.939820 -0.583946
O15   O     O_R   0.271000 0.915700 0.913700 -0.585692
C66   C     C_R   0.615776 0.085152 0.918523 0.951882
O16   O     O_R   0.770530 0.084400 0.086380 -0.577321
O17   O     O_3   0.602830 0.949510 0.991680 -0.280693
V3    V     V_3+5 0.329710 0.009370 0.001550 1.238328
O18   O     O_R   0.940990 0.906170 0.912570 -0.582371
C67   C     C_R   0.110682 0.884887 0.883826 1.113524
O19   O     O_R   0.936350 0.929940 0.060100 -0.569641
C68   C     C_R   0.103698 0.916909 0.083618 1.123673
V4    V     V_3+5 0.829160 0.990450 0.998310 1.248035
O20   O     O_3   0.105910 0.050480 0.008320 -0.271452
N1    N     N_R   0.390162 0.856909 0.548668 0.271899
O21   O     O_R   0.383535 0.927203 0.540329 -0.269062
O22   O     O_R   0.411589 0.794643 0.491226 -0.375856
N2    N     N_R   0.926853 0.871826 0.450452 0.267902
O23   O     O_R   0.786640 0.837307 0.474689 -0.344606
O24   O     O_R   0.990651 0.941174 0.491007 -0.259414
O25   O     O_3   0.935077 0.965730 0.362665 -0.640294
H16   H     H_    0.018354 0.999803 0.342550 0.332287
N3    N     N_R   0.886532 0.961580 0.220888 0.210259
O26   O     O_R   0.935057 0.030128 0.213312 -0.444642
O27   O     O_R   0.717582 0.952614 0.247475 -0.397893
N4    N     N_R   0.060139 0.094699 0.702297 0.235321
O28   O     O_R   0.237224 0.109378 0.687003 -0.370661
O29   O     O_R   0.004531 0.020818 0.690275 -0.376520
O30   O     O_3   0.922115 0.286300 0.569190 -0.744100
H17   H     H_    0.865089 0.288683 0.523639 0.342628
O31   O     O_3   0.326212 0.414028 0.671760 -0.735220
H18   H     H_    0.207497 0.384899 0.678233 0.370766
O32   O     O_3   0.231890 0.409103 0.807659 -0.636859
H19   H     H_    0.307779 0.454709 0.801566 0.352290
O33   O     O_3   0.180905 0.303139 0.878259 -0.620314
H20   H     H_    0.131386 0.249704 0.876964 0.320244
O34   O     O_3   0.749370 0.471686 0.300984 -0.747165
H21   H     H_    0.610100 0.478931 0.313025 0.295561
N5    N     N_R   0.899300 0.351190 0.048363 0.260786
O35   O     O_R   0.984389 0.416941 0.046665 -0.339903
O36   O     O_R   0.871068 0.294136 0.987528 -0.390733
N6    N     N_R   0.845600 0.507781 0.809511 0.260936
O37   O     O_R   0.749770 0.499120 0.864712 -0.359272
O38   O     O_R   0.877309 0.445078 0.753622 -0.411524
O39   O     O_3   0.419625 0.035622 0.193265 -0.728353
H22   H     H_    0.545436 0.012980 0.173042 0.347793
O40   O     O_3   0.538281 0.281461 0.450636 -0.810030
H23   H     H_    0.484634 0.262708 0.490086 0.313646
O41   O     O_3   0.046485 0.771695 0.948463 -0.775565
H24   H     H_    0.185629 0.785515 0.949121 0.278301
O42   O     O_3   0.249562 0.972016 0.806674 -0.754965
H25   H     H_    0.283642 0.020666 0.793923 0.374787
O43   O     O_3   0.463537 0.978737 0.686891 -0.678567
H26   H     H_    0.568055 0.964668 0.649815 0.373229

loop_
_geom_bond_atom_site_label_1
_geom_bond_atom_site_label_2
_geom_bond_distance
_ccdc_geom_bond_type
C29   C34   1.404529 A    
V3    O20   1.710634 S    
C35   C36   1.400633 A    
O13   C68   1.296832 A    
O32   H19   0.991133 S    
C59   C64   1.436366 A    
C41   N4    1.433042 S    
C26   C27   1.428831 A    
O19   C68   1.306280 A    
C7    C8    1.390778 A    
C12   C15   1.436188 A    
C36   C66   1.479609 S    
C26   O25   1.379322 S    
C56   C60   1.429923 A    
O33   H20   0.990233 S    
O19   V4    2.002481 S    
O25   H16   0.989026 S    
O11   C66   1.299794 A    
N6    O37   1.301678 A    
C53   C54   1.396577 A    
C54   H14   1.079854 S    
C39   C44   1.418855 A    
C22   C23   1.414780 A    
C59   C60   1.437631 A    
C9    C10   1.425596 A    
C16   C17   1.406784 A    
C6    C7    1.389985 A    
C22   C25   1.413978 A    
C62   H15   1.081997 S    
O5    C3    1.298905 A    
C23   C24   1.416510 A    
C57   C65   1.490448 S    
C65   O16   1.299002 A    
V4    O20   2.159575 S    
C45   C50   1.424798 A    
N1    O21   1.301562 A    
C19   C20   1.402341 A    
C64   O40   1.378097 S    
O8    V2    2.002543 S    
C11   C67   1.490443 S    
C32   C33   1.419843 A    
O13   V3    1.997070 S    
N1    O22   1.301462 A    
C48   C49   1.419946 A    
O14   C66   1.296034 A    
C11   C12   1.437846 A    
C17   N1    1.442579 S    
O18   V4    2.001515 S    
O1    V2    2.002570 S    
H12   C63   1.083435 S    
C17   C18   1.392759 A    
C51   C56   1.436919 A    
C41   C42   1.396466 A    
C18   H3    1.080342 S    
C51   O34   1.373279 S    
C1    O6    1.299867 A    
C52   H13   1.083494 S    
C38   C41   1.412208 A    
C2    C60   1.491048 S    
C30   H7    1.083737 S    
C39   C40   1.414847 A    
O12   C65   1.296899 A    
C35   C40   1.406526 A    
O18   C67   1.303530 A    
C7    H2    1.083426 S    
C1    C49   1.492958 S    
C57   C58   1.430581 A    
C25   N2    1.437812 S    
N4    O29   1.300967 A    
O40   H23   0.991966 S    
C32   N3    1.433005 S    
C19   H4    1.084310 S    
C19   C24   1.407422 A    
C8    O41   1.371002 S    
O14   V3    1.996107 S    
C12   C13   1.425993 A    
C40   C47   1.414218 A    
O12   V3    2.005236 S    
O4    C2    1.301645 A    
C62   C63   1.373069 A    
N5    O35   1.301712 A    
C13   C14   1.417409 A    
C61   C62   1.384490 A    
C4    C14   1.493672 S    
C46   O32   1.378121 S    
C20   C21   1.400816 A    
O2    C1    1.300499 A    
C51   C52   1.393857 A    
C42   C43   1.403094 A    
C50   O31   1.379484 S    
C42   H11   1.083404 S    
C33   C68   1.496157 S    
N4    O28   1.300958 A    
C34   H6    1.083463 S    
C31   H8    1.083812 S    
C5    C6    1.399561 A    
C6    N6    1.437967 S    
N2    O24   1.301197 A    
C52   C53   1.391755 A    
C3    C20   1.480944 S    
C21   H5    1.080513 S    
O15   C67   1.293509 A    
O3    C4    1.293575 A    
C24   C31   1.402416 A    
O11   V4    2.001177 S    
C25   C26   1.410025 A    
C45   C46   1.422606 A    
O6    V2    2.000732 S    
C9    C11   1.431242 A    
C28   C29   1.413534 A    
C10   C14   1.418854 A    
C5    H1    1.079941 S    
C55   C56   1.425582 A    
C36   C37   1.399439 A    
C48   O30   1.382305 S    
O2    V1    1.996170 S    
C29   C30   1.403793 A    
C55   C57   1.421258 A    
O43   H26   0.990799 S    
O7    V1    2.161204 S    
C13   C18   1.411103 A    
N6    O38   1.298615 A    
O16   V4    2.008487 S    
C43   C48   1.407114 A    
C33   C34   1.403699 A    
N2    O23   1.298784 A    
O1    C2    1.295282 A    
C16   O43   1.380945 S    
O42   H25   0.989740 S    
O5    V1    1.997259 S    
O8    C3    1.297841 A    
C58   C61   1.438144 A    
O17   V4    1.707834 S    
C5    C10   1.417825 A    
C44   C45   1.416618 A    
O9    V2    2.001698 S    
O34   H21   0.991540 S    
C38   C39   1.420530 A    
O4    V1    2.005399 S    
O3    V1    2.004421 S    
V1    O10   1.710614 S    
C47   O33   1.378584 S    
C54   C55   1.418634 A    
C15   O42   1.382576 S    
C37   C38   1.409996 A    
N5    O36   1.301443 A    
O17   V3    2.161183 S    
N3    O27   1.301034 A    
N3    O26   1.301339 A    
C46   C47   1.397142 A    
C27   C32   1.432275 A    
C37   H10   1.081900 S    
O7    V2    1.709738 S    
C49   C50   1.414029 A    
C35   H9    1.081527 S    
O39   H22   0.988173 S    
C43   C44   1.412090 A    
C30   C31   1.398085 A    
C23   C28   1.420585 A    
C8    C9    1.432990 A    
C63   C64   1.399973 A    
C21   C22   1.415335 A    
C58   C59   1.438197 A    
C27   C28   1.415245 A    
C15   C16   1.415073 A    
O41   H24   0.991634 S    
O30   H17   0.989917 S    
O9    C4    1.302327 A    
C61   O39   1.370046 S    
C53   N5    1.440674 S    
O15   V3    2.004407 S    
V2    O10   2.159496 S    
O31   H18   0.991083 S    
