data_mof_unit_49278.cif
_audit_creation_date              2012-12-10T18:52:14-0500
_audit_creation_method            fapswitch 2.2
_symmetry_space_group_name_H-M    P1
_symmetry_Int_Tables_number       1
_space_group_crystal_system       triclinic
_cell_length_a                    15.709205
_cell_length_b                    10.642311
_cell_length_c                    9.907145
_cell_angle_alpha                 91.788385
_cell_angle_beta                  90.919082
_cell_angle_gamma                 91.31191
_cell_volume                      1654.82534986

loop_
_atom_site_label
_atom_site_type_symbol
_atom_type_description
_atom_site_fract_x
_atom_site_fract_y
_atom_site_fract_z
_atom_type_partial_charge
C1    C     C_R   0.499516 0.260581 0.497838 0.907973
C2    C     C_R   0.500281 0.739318 0.502183 0.917762
C3    C     C_R   0.576186 0.936348 0.469476 -0.074972
C4    C     C_R   0.424291 0.063283 0.531491 -0.071281
C5    C     C_R   0.501523 0.872076 0.507766 -0.156213
C6    C     C_R   0.498679 0.127676 0.492657 -0.152608
C7    C     C_R   0.564888 0.556311 0.076618 -0.074946
C8    C     C_R   0.435113 0.443688 0.923406 -0.067667
C9    C     C_R   0.565068 0.557589 0.933526 0.014066
C10   C     C_R   0.434968 0.442397 0.066490 0.012783
C11   C     C_R   0.338075 0.502157 0.499099 0.937934
C12   C     C_R   0.661980 0.499310 0.500944 0.941025
C13   C     C_3   0.971838 0.387564 0.513677 -0.290681
C14   C     C_3   0.028549 0.627150 0.486441 -0.289769
C15   C     C_3   0.026155 0.436357 0.397502 0.753126
C16   C     C_3   0.974131 0.578318 0.602658 0.764672
C17   C     C_1   0.249247 0.506870 0.497379 -0.115860
C18   C     C_1   0.750951 0.500531 0.502791 -0.089394
C19   C     C_3   0.030117 0.462413 0.617246 -0.289787
C20   C     C_3   0.970174 0.552249 0.382859 -0.289234
C21   C     C_3   0.083149 0.510041 0.499388 -0.044377
C22   C     C_3   0.917173 0.504601 0.500750 -0.049338
C23   C     C_1   0.173983 0.509553 0.497542 0.061741
C24   C     C_1   0.826297 0.502281 0.502625 0.083980
C25   C     C_R   0.574642 0.066534 0.461430 -0.084483
C26   C     C_R   0.425697 0.933244 0.539584 -0.092285
H1    H     H_    0.947029 0.289756 0.523043 0.216574
H2    H     H_    0.053416 0.724921 0.477068 0.202090
H3    H     H_    0.943983 0.587174 0.286647 0.206797
H4    H     H_    0.056276 0.427467 0.713471 0.213114
H5    H     H_    0.616187 0.602279 0.135016 0.166942
H6    H     H_    0.383814 0.397683 0.865048 0.173997
N1    N     N_R   0.499980 0.499970 0.857200 -0.126925
N2    N     N_R   0.500020 0.500030 0.142800 -0.125009
O1    O     O_R   0.499990 0.316750 0.614620 -0.639901
O2    O     O_R   0.500010 0.683250 0.385380 -0.636656
O3    O     O_R   0.500000 0.316780 0.385290 -0.525126
O4    O     O_R   0.500000 0.683220 0.614710 -0.531811
O5    O     O_R   0.376780 0.499970 0.614640 -0.604354
O6    O     O_R   0.623220 0.500030 0.385360 -0.621119
O7    O     O_R   0.376780 0.500000 0.385310 -0.606023
O8    O     O_R   0.623220 0.500000 0.614690 -0.602766
Zn1   Zn    Zn3+2 0.500000 0.499980 0.653120 1.051446
Zn2   Zn    Zn3+2 0.500000 0.500020 0.346880 1.043562
F1    F     F_    0.055692 0.363077 0.291284 -0.623462
F2    F     F_    0.944558 0.651541 0.708886 -0.618868
C27   C     C_2   0.653434 0.139233 0.429062 0.931420
O9    O     O_2   0.717551 0.130195 0.499415 -0.596717
O10   O     O_R   0.654416 0.216049 0.317226 -0.747314
H7    H     H_    0.711677 0.259883 0.305439 0.347540
C28   C     C_2   0.346552 0.861137 0.572042 0.921119
O11   O     O_2   0.346008 0.790633 0.667115 -0.577772
O12   O     O_R   0.272486 0.875968 0.494597 -0.764498
H8    H     H_    0.222964 0.822348 0.526298 0.349238
C29   C     C_2   0.654996 0.867420 0.435849 0.949589
O13   O     O_2   0.682773 0.790551 0.513322 -0.599769
O14   O     O_R   0.697478 0.891452 0.316092 -0.765427
H9    H     H_    0.749987 0.838753 0.304638 0.355884
C30   C     C_2   0.345430 0.131854 0.564024 0.956738
O15   O     O_2   0.311775 0.119046 0.673365 -0.589309
O16   O     O_R   0.308819 0.208175 0.467970 -0.753507
H10   H     H_    0.252751 0.243473 0.498779 0.344693
C31   C     C_2   0.636858 0.623534 0.870960 0.956127
O17   O     O_2   0.623932 0.709224 0.794805 -0.538931
O18   O     O_R   0.720194 0.592321 0.905464 -0.784809
H11   H     H_    0.764298 0.644701 0.857276 0.387779
C32   C     C_2   0.363412 0.376171 0.129192 0.961762
O19   O     O_2   0.376608 0.289303 0.203660 -0.531274
O20   O     O_R   0.279982 0.408533 0.096784 -0.774863
H12   H     H_    0.236056 0.355851 0.145001 0.387628

loop_
_geom_bond_atom_site_label_1
_geom_bond_atom_site_label_2
_ccdc_geom_bond_type
C12   O6    A    
C4    C26   A    
C29   O13   D    
C31   O18   S    
C31   O17   D    
C14   C16   S    
C5    C26   A    
O1    Zn1   S    
C2    O4    A    
C26   C28   S    
C27   O9    D    
C1    O3    A    
C8    N1    A    
O10   H7    S    
O3    Zn2   S    
C29   O14   S    
C28   O12   S    
C3    C5    A    
C30   O15   D    
C10   N2    A    
C9    C31   S    
O12   H8    S    
C12   O8    A    
C11   O5    A    
O14   H9    S    
C17   C23   T    
C15   C21   S    
C3    C29   S    
C9    N1    A    
C16   C19   S    
C18   C24   T    
C14   C21   S    
C8    C10   A    
C19   C21   S    
C7    H5    S    
C20   C22   S    
C13   C22   S    
C11   O7    A    
C22   C24   S    
C20   H3    S    
C13   C15   S    
C21   C23   S    
C16   F2    S    
O16   H10   S    
O7    Zn2   S    
O20   H12   S    
O2    Zn2   S    
C6    C25   A    
C30   O16   S    
O8    Zn1   S    
C13   C19   S    
C4    C30   S    
C2    O2    A    
C28   O11   D    
N1    Zn1   S    
C14   C20   S    
O6    Zn2   S    
C3    C25   A    
N2    Zn2   S    
C7    N2    A    
C1    O1    A    
C27   O10   S    
O18   H11   S    
C12   C18   S    
C1    C6    S    
C7    C9    A    
C25   C27   S    
C13   H1    S    
O5    Zn1   S    
C14   H2    S    
C10   C32   S    
C19   H4    S    
C4    C6    A    
C2    C5    S    
C11   C17   S    
O4    Zn1   S    
C32   O19   D    
C16   C22   S    
C15   C20   S    
C32   O20   S    
C15   F1    S    
C8    H6    S    
