data_mof_unit_53342.cif
_audit_creation_date              2012-12-10T18:57:03-0500
_audit_creation_method            fapswitch 2.2
_symmetry_space_group_name_H-M    P1
_symmetry_Int_Tables_number       1
_space_group_crystal_system       triclinic
_cell_length_a                    10.704559
_cell_length_b                    9.873322
_cell_length_c                    10.647402
_cell_angle_alpha                 90.041095
_cell_angle_beta                  90.993104
_cell_angle_gamma                 90.344604
_cell_volume                      1125.12944371

loop_
_atom_site_label
_atom_site_type_symbol
_atom_type_description
_atom_site_fract_x
_atom_site_fract_y
_atom_site_fract_z
_atom_type_partial_charge
C1    C     C_R   0.260462 0.499573 0.499042 0.930615
C2    C     C_R   0.739810 0.500519 0.499295 0.966770
C3    C     C_R   0.563022 0.072932 0.591027 -0.123138
C4    C     C_R   0.435460 0.071678 0.409822 -0.110432
C5    C     C_R   0.563091 0.929101 0.591595 0.159853
C6    C     C_R   0.434827 0.927640 0.409734 0.178261
C7    C     C_R   0.497108 0.500176 0.260429 0.876401
C8    C     C_R   0.500083 0.499919 0.739766 0.914989
C9    C     C_R   0.557710 0.601483 0.066226 0.065932
C10   C     C_R   0.563263 0.597527 0.938090 0.017707
C11   C     C_R   0.489619 0.503000 0.128648 -0.088722
C12   C     C_R   0.494669 0.500479 0.871709 -0.032814
C13   C     C_R   0.413049 0.410917 0.063151 -0.189773
C14   C     C_R   0.414904 0.410360 0.933180 -0.198464
C15   C     C_3   0.701760 0.622769 0.940550 0.003122
C16   C     C_3   0.693453 0.633309 0.082297 0.047071
C17   C     C_R   0.063133 0.411800 0.416352 0.029136
C18   C     C_R   0.933310 0.412465 0.416267 0.007392
C19   C     C_R   0.872547 0.502097 0.496999 -0.058813
C20   C     C_R   0.128183 0.499341 0.498447 -0.065855
C21   C     C_R   0.938281 0.593866 0.574741 0.066505
C22   C     C_R   0.067627 0.589961 0.577835 0.016049
H1    H     H_    0.355320 0.338309 0.112179 0.156616
H2    H     H_    0.357439 0.338240 0.881175 0.159182
H3    H     H_    0.728294 0.718842 0.893755 0.172300
H4    H     H_    0.745570 0.554320 0.135688 0.160784
H5    H     H_    0.613352 0.128346 0.663801 0.160354
H6    H     H_    0.383657 0.126177 0.337989 0.138970
N1    N     N_R   0.500000 0.857200 0.500000 -0.068142
N2    N     N_R   0.500000 0.142810 0.500000 -0.092333
O1    O     O_R   0.316770 0.614620 0.499990 -0.601177
O2    O     O_R   0.683230 0.614620 0.500010 -0.583111
O3    O     O_R   0.316800 0.385290 0.500000 -0.616838
O4    O     O_R   0.683200 0.385290 0.500000 -0.598711
O5    O     O_R   0.500000 0.614690 0.316780 -0.582461
O6    O     O_R   0.500000 0.614690 0.683220 -0.604990
O7    O     O_R   0.500020 0.385360 0.316780 -0.618796
O8    O     O_R   0.499980 0.385360 0.683220 -0.622519
Zn1   Zn    Zn3+2 0.500000 0.653120 0.500000 1.017149
Zn2   Zn    Zn3+2 0.500000 0.346880 0.500000 0.978620
Br1   Br    Br    0.797520 0.464813 0.890096 -0.572616
Br2   Br    Br    0.718971 0.816007 0.145646 -0.529140
N3    N     N_3   0.129890 0.326066 0.331762 -0.458248
H7    H     H_    0.104269 0.350659 0.239444 0.187797
H8    H     H_    0.105438 0.225211 0.348921 0.189787
N4    N     N_3   0.862269 0.326929 0.331858 -0.430754
H9    H     H_    0.885307 0.225962 0.349674 0.209797
H10   H     H_    0.885575 0.350664 0.239507 0.202469
N5    N     N_3   0.873201 0.691086 0.649056 -0.423565
H11   H     H_    0.898578 0.787763 0.618338 0.181772
H12   H     H_    0.901462 0.681669 0.742882 0.213244
N6    N     N_3   0.138544 0.674812 0.663112 -0.442095
H13   H     H_    0.114144 0.651249 0.755202 0.196784
H14   H     H_    0.117323 0.776191 0.645008 0.190402
N7    N     N_3   0.627533 0.859013 0.689997 -0.392316
H15   H     H_    0.718423 0.897829 0.695952 0.167661
H16   H     H_    0.584097 0.883102 0.774254 0.178139
N8    N     N_3   0.364407 0.855457 0.315930 -0.390821
H17   H     H_    0.271187 0.885583 0.321436 0.159479
H18   H     H_    0.397233 0.884587 0.227994 0.195534

loop_
_geom_bond_atom_site_label_1
_geom_bond_atom_site_label_2
_ccdc_geom_bond_type
C3    N2    A    
O5    Zn1   S    
N3    H7    S    
C17   N3    S    
O7    Zn2   S    
C9    C11   A    
C9    C10   A    
C6    N8    S    
C1    O1    A    
C8    C12   S    
C21   C22   A    
C2    O4    A    
N7    H15   S    
C3    H5    S    
C17   C18   A    
C7    O7    A    
C3    C5    A    
C1    O3    A    
N7    H16   S    
C13   C14   A    
O8    Zn2   S    
N3    H8    S    
N1    Zn1   S    
C10   C12   A    
O4    Zn2   S    
C18   N4    S    
C7    O5    A    
C21   N5    S    
C4    H6    S    
C9    C16   S    
O1    Zn1   S    
C7    C11   S    
C22   N6    S    
C5    N1    A    
C10   C15   S    
C8    O8    A    
C16   H4    S    
N4    H10   S    
C15   H3    S    
O3    Zn2   S    
C20   C22   A    
C15   Br1   S    
N8    H18   S    
C15   C16   S    
C16   Br2   S    
C12   C14   A    
C11   C13   A    
C6    N1    A    
N6    H13   S    
C13   H1    S    
C2    O2    A    
C18   C19   A    
C8    O6    A    
O2    Zn1   S    
C14   H2    S    
N5    H11   S    
N2    Zn2   S    
N4    H9    S    
C1    C20   S    
C19   C21   A    
N8    H17   S    
C2    C19   S    
C4    C6    A    
C17   C20   A    
C5    N7    S    
O6    Zn1   S    
C4    N2    A    
N6    H14   S    
N5    H12   S    
