data_mof_unit_38952.cif
_audit_creation_date              2013-03-05T15:55:42-0500
_audit_creation_method            fapswitch 2.2
_symmetry_space_group_name_H-M    P1
_symmetry_Int_Tables_number       1
_space_group_crystal_system       triclinic
_cell_length_a                    6.952376
_cell_length_b                    17.934115
_cell_length_c                    19.203853
_cell_angle_alpha                 108.495739
_cell_angle_beta                  89.356674
_cell_angle_gamma                 90.652222
_cell_volume                      2270.52775546

loop_
_atom_site_label
_atom_site_type_symbol
_atom_site_description
_atom_site_fract_x
_atom_site_fract_y
_atom_site_fract_z
_atom_type_partial_charge
O1    O     O_R   0.494330 0.415710 0.413720 -0.565527
O2    O     O_R   0.819360 0.430070 0.560210 -0.584514
O3    O     O_R   0.994320 0.584290 0.586280 -0.607719
C1    C     C_R   0.649955 0.417456 0.583662 0.931914
O4    O     O_R   0.823740 0.406290 0.412670 -0.572288
O5    O     O_R   0.998730 0.560340 0.437690 -0.572646
C2    C     C_R   0.654595 0.384560 0.383557 1.072457
O6    O     O_R   0.489920 0.439660 0.562310 -0.612431
O7    O     O_3   0.662330 0.550570 0.508380 -0.277715
V1    V     V_3+5 0.935370 0.490620 0.498440 1.255982
O8    O     O_R   0.328720 0.569930 0.439790 -0.572820
C3    C     C_R   0.160787 0.587013 0.420031 1.051292
O9    O     O_R   0.324340 0.593710 0.587330 -0.602933
C4    C     C_R   0.154443 0.616486 0.615107 0.936367
V2    V     V_3+5 0.435940 0.509380 0.501560 1.253882
O10   O     O_3   0.159110 0.449430 0.491620 -0.257479
C5    C     C_R   0.286583 0.741653 0.699601 -0.235519
H1    H     H_    0.404584 0.735125 0.660918 0.191156
C6    C     C_R   0.296034 0.799740 0.768685 0.605025
C7    C     C_R   0.134599 0.811303 0.817552 -0.326860
C8    C     C_R   0.997474 0.750653 0.802811 0.017424
H2    H     H_    0.894296 0.750025 0.844497 0.174048
C9    C     C_R   0.999466 0.688084 0.736648 -0.041406
H3    H     H_    0.891536 0.642038 0.727710 0.130200
C10   C     C_R   0.142279 0.684316 0.683529 -0.211945
C11   C     C_R   0.300746 0.633638 0.320565 0.052711
C12   C     C_R   0.155498 0.638540 0.372673 -0.250754
C13   C     C_R   0.007944 0.692866 0.379556 -0.029722
C14   C     C_R   0.998959 0.739333 0.332285 0.030726
C15   C     C_R   0.139553 0.729366 0.276216 0.052979
C16   C     C_R   0.293846 0.676405 0.270655 -0.009296
C17   C     C_R   0.851100 0.794866 0.340002 0.178662
C18   C     C_R   0.835278 0.837477 0.289498 0.276605
C19   C     C_R   0.976483 0.827047 0.232824 -0.040465
C20   C     C_R   0.126811 0.772483 0.226053 0.005830
C21   C     C_R   0.264820 0.760557 0.168721 -0.010684
C22   C     C_R   0.421496 0.711222 0.166898 -0.161555
C23   C     C_R   0.436927 0.668117 0.215547 0.449325
C24   C     C_R   0.976217 0.871884 0.184190 -0.042407
C25   C     C_R   0.110008 0.860061 0.126539 -0.379630
C26   C     C_R   0.245847 0.799097 0.114990 0.552665
H4    H     H_    0.419114 0.596110 0.319868 0.217467
H5    H     H_    0.900405 0.698191 0.421980 0.161920
H6    H     H_    0.873707 0.917827 0.190864 0.243995
H7    H     H_    0.536747 0.706700 0.127806 0.232365
C27   C     C_R   0.750748 0.195799 0.879503 -0.148497
C28   C     C_R   0.621694 0.131843 0.865209 -0.340264
C29   C     C_R   0.496658 0.116992 0.803988 0.521256
C30   C     C_R   0.478488 0.174090 0.767997 -0.026324
C31   C     C_R   0.616818 0.234673 0.779385 -0.010003
C32   C     C_R   0.757471 0.245229 0.834715 0.003336
C33   C     C_R   0.326377 0.170969 0.719626 -0.129060
C34   C     C_R   0.327774 0.216093 0.672196 0.370144
C35   C     C_R   0.479022 0.270877 0.676967 -0.033731
C36   C     C_R   0.617447 0.282931 0.733462 0.094276
C37   C     C_R   0.760209 0.341568 0.742449 0.155164
C38   C     C_R   0.897745 0.352640 0.797701 -0.366179
C39   C     C_R   0.898732 0.305379 0.843798 0.447455
C40   C     C_R   0.496695 0.313887 0.627184 -0.157304
C41   C     C_R   0.638087 0.372086 0.635929 -0.112511
C42   C     C_R   0.765986 0.387320 0.694948 -0.164712
H8    H     H_    0.846579 0.205668 0.925508 0.209039
H9    H     H_    0.203815 0.133281 0.719030 0.222536
H10   H     H_    0.404776 0.301633 0.579910 0.191774
H11   H     H_    0.873964 0.433257 0.702409 0.105794
H12   H     H_    0.006828 0.397873 0.804128 0.188456
C43   C     C_R   0.779984 0.257152 0.300431 -0.217973
H13   H     H_    0.891120 0.260982 0.340497 0.177386
C44   C     C_R   0.773508 0.190806 0.237242 0.425732
C45   C     C_R   0.622192 0.182110 0.186095 -0.335946
C46   C     C_R   0.484067 0.241143 0.199718 -0.192762
H14   H     H_    0.370903 0.235965 0.160117 0.197177
C47   C     C_R   0.494608 0.308667 0.261299 0.460734
C48   C     C_R   0.641980 0.316576 0.314068 -0.343194
O11   O     O_R   0.774940 0.060470 0.937800 -0.591486
O12   O     O_R   0.440880 0.093730 0.087350 -0.598166
O13   O     O_R   0.266130 0.939630 0.062280 -0.558582
C49   C     C_R   0.609888 0.114907 0.116604 1.028005
O14   O     O_R   0.445480 0.069960 0.939820 -0.566717
O15   O     O_R   0.270770 0.915690 0.913690 -0.531429
C50   C     C_R   0.614467 0.082983 0.915961 1.074763
O16   O     O_R   0.770300 0.084410 0.086380 -0.589505
O17   O     O_3   0.602600 0.949510 0.991670 -0.240626
V3    V     V_3+5 0.329470 0.009370 0.001550 1.352608
O18   O     O_R   0.940760 0.906160 0.912560 -0.584375
C51   C     C_R   0.112835 0.881735 0.885346 1.080783
O19   O     O_R   0.936150 0.929930 0.060100 -0.584921
C52   C     C_R   0.104074 0.912909 0.080019 1.091358
V4    V     V_3+5 0.828930 0.990450 0.998310 1.330968
O20   O     O_3   0.105670 0.050490 0.008320 -0.284946
S1    S     S_3+6 0.375335 0.764810 0.030277 -0.040241
O21   O     O_2   0.268253 0.782767 0.970195 -0.349226
O22   O     O_2   0.569365 0.804405 0.039936 -0.303269
O23   O     O_3   0.403898 0.666729 0.004990 -0.500989
H15   H     H_    0.490783 0.654084 0.961649 0.392515
S2    S     S_3+6 0.627981 0.599117 0.199113 -0.003467
O24   O     O_2   0.775575 0.615604 0.147917 -0.280091
O25   O     O_2   0.725460 0.601653 0.269166 -0.307981
O26   O     O_3   0.535085 0.508749 0.159742 -0.424402
H16   H     H_    0.646187 0.472823 0.151841 0.398772
S3    S     S_3+6 0.422771 0.018612 0.757011 -0.007158
O27   O     O_2   0.600413 0.969121 0.743558 -0.215695
O28   O     O_2   0.281375 0.991536 0.803661 -0.322680
O29   O     O_3   0.324052 0.005653 0.674356 -0.489706
H17   H     H_    0.292166 0.948842 0.655152 0.395755
S4    S     S_3+6 0.141546 0.198752 0.606012 0.017803
O30   O     O_2   0.220537 0.148023 0.533541 -0.174794
O31   O     O_2   0.974549 0.156755 0.627829 -0.238392
O32   O     O_3   0.062220 0.282861 0.595916 -0.514054
H18   H     H_    0.100571 0.324487 0.641398 0.307106
S5    S     S_3+6 0.533426 0.819832 0.801187 -0.001643
O33   O     O_2   0.673278 0.795280 0.738014 -0.291586
O34   O     O_2   0.573322 0.904176 0.843252 -0.230952
O35   O     O_3   0.562545 0.764561 0.856348 -0.549764
H19   H     H_    0.605837 0.801495 0.903775 0.399012
S6    S     S_3+6 0.081283 0.322582 0.911088 -0.015201
O36   O     O_2   0.188827 0.247748 0.901496 -0.298229
O37   O     O_2   0.221180 0.384640 0.904603 -0.258331
O38   O     O_3   0.979842 0.351845 0.995212 -0.463448
H20   H     H_    0.905581 0.399292 0.997173 0.367095
N1    N     N_R   0.916758 0.131532 0.228132 0.241757
O39   O     O_R   0.093593 0.151454 0.247524 -0.394920
O40   O     O_R   0.864761 0.058401 0.213009 -0.380946
S7    S     S_3+6 0.333596 0.385149 0.265020 0.006169
O41   O     O_2   0.446535 0.460349 0.286102 -0.284708
O42   O     O_2   0.241731 0.373032 0.191707 -0.211357
O43   O     O_3   0.160521 0.390407 0.327959 -0.484772
H21   H     H_    0.167611 0.340182 0.338912 0.327887
N2    N     N_R   0.723618 0.811298 0.402081 0.262032
O44   O     O_R   0.749448 0.874378 0.457941 -0.300356
O45   O     O_R   0.587929 0.761659 0.404512 -0.390375
S8    S     S_3+6 0.638938 0.903976 0.298347 0.028494
O46   O     O_2   0.555435 0.895367 0.224385 -0.292471
O47   O     O_2   0.479380 0.890211 0.346405 -0.211025
O48   O     O_3   0.721943 0.996487 0.334661 -0.424055
H22   H     H_    0.778326 0.998225 0.382293 0.383676

loop_
_geom_bond_atom_site_label_1
_geom_bond_atom_site_label_2
_geom_bond_distance
_ccdc_geom_bond_type
O19   C52   1.301813 A    
S3    O27   1.500713 D    
C45   C49   1.490141 S    
C47   C48   1.423251 A    
C6    C7    1.428818 A    
C38   H12   1.083062 S    
C1    O6    1.299452 A    
O12   V3    2.006021 S    
O35   H19   0.988790 S    
O48   H22   0.990471 S    
C34   C35   1.414555 A    
C37   C38   1.401562 A    
C13   C14   1.415945 A    
C11   C12   1.397262 A    
C14   C15   1.415970 A    
O16   V4    2.014464 S    
C15   C20   1.417713 A    
C27   H8    1.080310 S    
C21   C22   1.404278 A    
O12   C49   1.307589 A    
C14   C17   1.413078 A    
O5    C3    1.302048 A    
C15   C16   1.421437 A    
S4    O30   1.502353 D    
V2    O10   2.174282 S    
S2    O26   1.680782 S    
S6    O36   1.502357 D    
C5    H1    1.082545 S    
C19   C20   1.416435 A    
C32   C39   1.420905 A    
C17   N2    1.432810 S    
O15   C51   1.288661 A    
C35   C36   1.421230 A    
O8    V2    1.999390 S    
C34   S4    1.779164 S    
O17   V3    2.168731 S    
O13   C52   1.302975 A    
S8    O46   1.501869 D    
C7    C51   1.506629 S    
C9    H3    1.083200 S    
C45   C46   1.397586 A    
O1    V2    2.008622 S    
O7    V1    2.168860 S    
O15   V3    2.009309 S    
C30   C33   1.404310 A    
C28   C50   1.503350 S    
C40   C41   1.397527 A    
S3    O28   1.500031 D    
O9    C4    1.305829 A    
C39   S6    1.775032 S    
C21   C26   1.420384 A    
C44   C45   1.420588 A    
V3    O20   1.715355 S    
O29   H17   0.990720 S    
C18   C19   1.426291 A    
C2    C48   1.497623 S    
C35   C40   1.409657 A    
C8    C9    1.403251 A    
O17   V4    1.717598 S    
C3    C12   1.488986 S    
C19   C24   1.412598 A    
O32   H18   0.989074 S    
S1    O21   1.499919 D    
O4    C2    1.308978 A    
O18   V4    2.004984 S    
O11   C50   1.308362 A    
O13   V3    2.004937 S    
O18   C51   1.322441 A    
C27   C32   1.417632 A    
C43   H13   1.082744 S    
S2    O25   1.500709 D    
C41   C42   1.403761 A    
C43   C44   1.405067 A    
C20   C21   1.417775 A    
O2    C1    1.299156 A    
C22   C23   1.394391 A    
S1    O22   1.502869 D    
C49   O16   1.295274 A    
C28   C29   1.424024 A    
C44   N1    1.433428 S    
O38   H20   0.990589 S    
C47   S7    1.763674 S    
S2    O24   1.503946 D    
C1    C41   1.480235 S    
C36   C37   1.409160 A    
C31   C32   1.418655 A    
C40   H10   1.078933 S    
S5    O34   1.495920 D    
C43   C48   1.401944 A    
N1    O39   1.301410 A    
O3    C4    1.294436 A    
S7    O43   1.677870 S    
C18   S8    1.793810 S    
C25   C26   1.414718 A    
C26   S1    1.783283 S    
S3    O29   1.682669 S    
O9    V2    2.004943 S    
C22   H7    1.077739 S    
O43   H21   0.989668 S    
O2    V1    2.003172 S    
C24   C25   1.402962 A    
C33   C34   1.397105 A    
C11   H4    1.066309 S    
S7    O42   1.503417 D    
N2    O44   1.300977 A    
C27   C28   1.406531 A    
C29   C30   1.412877 A    
S5    O33   1.501786 D    
O1    C2    1.297492 A    
C33   H9    1.079469 S    
O5    V1    2.004974 S    
O8    C3    1.301093 A    
S6    O38   1.681541 S    
C24   H6    1.071237 S    
C6    S5    1.763594 S    
O6    V2    2.002828 S    
C13   H5    1.081865 S    
O14   C50   1.301664 A    
C31   C36   1.418047 A    
C16   C23   1.418272 A    
C5    C10   1.393294 A    
C17   C18   1.418199 A    
C25   C52   1.495667 S    
O19   V4    1.999290 S    
O7    V2    1.719572 S    
O4    V1    2.006014 S    
O3    V1    2.009340 S    
V1    O10   1.715430 S    
O26   H16   0.990681 S    
S1    O23   1.683193 S    
C38   C39   1.406565 A    
O14   V3    2.003106 S    
S4    O31   1.503384 D    
S8    O48   1.680816 S    
C29   S3    1.780610 S    
C5    C6    1.404687 A    
S6    O37   1.503565 D    
S5    O35   1.679659 S    
C9    C10   1.402136 A    
C4    C10   1.482958 S    
O23   H15   0.990529 S    
N1    O40   1.298099 A    
C23   S2    1.781978 S    
O11   V4    2.003609 S    
C42   H11   1.084548 S    
C11   C16   1.406245 A    
C46   H14   1.083020 S    
C7    C8    1.399716 A    
S8    O47   1.502852 D    
C30   C31   1.408331 A    
C46   C47   1.400584 A    
C12   C13   1.398958 A    
C37   C42   1.407225 A    
V4    O20   2.174389 S    
C8    H2    1.071523 S    
S7    O41   1.495297 D    
N2    O45   1.300346 A    
S4    O32   1.680461 S    
