data_mof_unit_45454.cif
_audit_creation_date              2012-12-10T18:19:04-0500
_audit_creation_method            fapswitch 2.2
_symmetry_space_group_name_H-M    P1
_symmetry_Int_Tables_number       1
_space_group_crystal_system       triclinic
_cell_length_a                    14.890031
_cell_length_b                    14.104283
_cell_length_c                    11.529395
_cell_angle_alpha                 90.173263
_cell_angle_beta                  89.731319
_cell_angle_gamma                 89.737704
_cell_volume                      2421.26204229

loop_
_atom_site_label
_atom_site_type_symbol
_atom_type_description
_atom_site_fract_x
_atom_site_fract_y
_atom_site_fract_z
_atom_type_partial_charge
C1    C     C_R   0.327207 0.500173 0.501057 0.873243
C2    C     C_R   0.436721 0.202670 0.563834 0.535000
C3    C     C_R   0.441779 0.798832 0.571009 0.567393
C4    C     C_R   0.561758 0.200633 0.434786 0.567749
C5    C     C_R   0.432265 0.899517 0.562058 -0.217399
C6    C     C_R   0.555081 0.100236 0.420933 -0.218994
C7    C     C_R   0.551396 0.898407 0.416634 -0.232268
C8    C     C_R   0.429619 0.101723 0.556944 -0.229933
C9    C     C_R   0.492044 0.949461 0.489441 -0.133748
C10   C     C_R   0.492244 0.050466 0.489165 -0.133615
C11   C     C_R   0.363277 0.950629 0.620834 0.441746
C12   C     C_R   0.672758 0.499864 0.498823 0.878037
C13   C     C_R   0.608080 0.049307 0.339037 0.441037
C14   C     C_R   0.600963 0.949060 0.332167 0.412658
C15   C     C_R   0.359191 0.051123 0.611433 0.409583
C16   C     C_R   0.500198 0.499888 0.281927 0.886050
C17   C     C_R   0.499804 0.500120 0.718058 0.886251
C18   C     C_1   0.500146 0.499733 0.161489 -0.174771
C19   C     C_1   0.499690 0.500319 0.838463 -0.223749
C20   C     C_1   0.499971 0.499905 0.059287 0.000141
C21   C     C_1   0.499742 0.500209 0.940650 -0.020391
C22   C     C_R   0.814072 0.481783 0.392238 -0.002983
C23   C     C_R   0.907770 0.480771 0.393422 0.122947
C24   C     C_R   0.185777 0.520631 0.606938 0.039351
C25   C     C_R   0.767925 0.499745 0.496373 -0.100641
C26   C     C_R   0.231969 0.500462 0.503405 -0.069249
C27   C     C_R   0.812005 0.519131 0.599535 -0.312985
C28   C     C_R   0.187857 0.479601 0.400655 -0.291505
C29   C     C_R   0.904707 0.519558 0.601668 0.133258
C30   C     C_R   0.095135 0.479778 0.398347 0.131497
C31   C     C_R   0.953071 0.499948 0.498732 0.021478
C32   C     C_R   0.046769 0.499953 0.501121 0.018112
C33   C     C_3   0.704501 0.757131 0.419159 -0.189219
C34   C     C_R   0.092065 0.520186 0.606141 0.126585
C35   C     C_3   0.414179 0.246203 0.751725 -0.191283
C36   C     C_3   0.440090 0.759516 0.761209 -0.253491
C37   C     C_3   0.708499 0.234979 0.460653 -0.250209
C38   C     C_3   0.276092 0.931465 0.786821 -0.215119
C39   C     C_3   0.746494 0.068821 0.248846 -0.211344
C40   C     C_3   0.578891 0.893529 0.149999 -0.247329
C41   C     C_3   0.221761 0.107830 0.563368 -0.229930
C42   C     C_R   0.949505 0.539096 0.705197 -0.234736
C43   C     C_R   0.050321 0.460454 0.294757 -0.233067
C44   C     C_R   0.042647 0.539564 0.707538 -0.189554
C45   C     C_R   0.957176 0.461221 0.292075 -0.201006
C46   C     C_R   0.556600 0.797624 0.426777 0.535647
H1    H     H_    0.773692 0.533570 0.678054 0.140578
H2    H     H_    0.275381 0.482335 0.730594 0.186042
H3    H     H_    0.752008 0.704552 0.381334 0.180790
H4    H     H_    0.701207 0.744317 0.514413 0.128077
H5    H     H_    0.732995 0.828524 0.403363 0.152555
H6    H     H_    0.381281 0.301330 0.806285 0.174180
H7    H     H_    0.488120 0.257060 0.757325 0.129985
H8    H     H_    0.397222 0.176214 0.789507 0.157205
H9    H     H_    0.512326 0.739341 0.754786 0.146472
H10   H     H_    0.407927 0.712596 0.826168 0.179605
H11   H     H_    0.435700 0.833257 0.794427 0.132293
H12   H     H_    0.226158 0.464153 0.322409 0.138251
H13   H     H_    0.695136 0.260483 0.550586 0.151513
H14   H     H_    0.766168 0.275437 0.425599 0.181768
H15   H     H_    0.729215 0.159358 0.464441 0.127835
H16   H     H_    0.216696 0.979262 0.788271 0.201823
H17   H     H_    0.334317 0.966958 0.828929 0.110028
H18   H     H_    0.259058 0.868743 0.840280 0.167382
H19   H     H_    0.755527 0.020719 0.173309 0.199476
H20   H     H_    0.771382 0.033666 0.329131 0.109832
H21   H     H_    0.789464 0.131652 0.233599 0.168997
H22   H     H_    0.557836 0.964591 0.117991 0.157128
H23   H     H_    0.912453 0.554146 0.784340 0.149507
H24   H     H_    0.519133 0.851738 0.177024 0.161202
H25   H     H_    0.611293 0.855372 0.076560 0.177084
H26   H     H_    0.199070 0.037072 0.532437 0.159532
H27   H     H_    0.249315 0.149771 0.489807 0.162768
H28   H     H_    0.161937 0.146276 0.597156 0.181388
H29   H     H_    0.087365 0.445035 0.215712 0.149044
H30   H     H_    0.075539 0.555154 0.788922 0.173851
H31   H     H_    0.924265 0.446149 0.210558 0.175562
H32   H     H_    0.726368 0.526623 0.269776 0.195222
H33   H     H_    0.724487 0.408368 0.294861 0.233702
H34   H     H_    0.273332 0.599900 0.699988 0.240260
N1    N     N_R   0.500000 0.750030 0.500000 -0.203741
N2    N     N_R   0.500000 0.249970 0.500000 -0.204426
N3    N     N_3   0.766460 0.467015 0.285529 -0.476639
N4    N     N_3   0.233406 0.540021 0.712507 -0.478159
O1    O     O_R   0.367850 0.580280 0.500030 -0.590273
O2    O     O_3   0.381652 0.254721 0.637128 -0.539650
O3    O     O_3   0.394943 0.748923 0.654235 -0.539771
O4    O     O_3   0.633383 0.249168 0.387698 -0.538915
O5    O     O_3   0.293385 0.900395 0.672015 -0.566550
O6    O     O_3   0.656028 0.099565 0.255799 -0.568083
O7    O     O_3   0.641528 0.901313 0.240841 -0.589933
O8    O     O_3   0.284717 0.099163 0.653737 -0.594521
O9    O     O_R   0.632150 0.419720 0.499970 -0.598311
O10   O     O_R   0.632150 0.580280 0.499970 -0.604605
O11   O     O_R   0.367850 0.419720 0.500030 -0.577822
O12   O     O_R   0.500010 0.580270 0.334450 -0.583045
O13   O     O_R   0.499990 0.419730 0.665550 -0.607611
O14   O     O_R   0.499990 0.580270 0.665550 -0.603089
O15   O     O_R   0.500010 0.419730 0.334450 -0.592660
O16   O     O_3   0.620015 0.746047 0.365084 -0.540751
Zn1   Zn    Zn3+2 0.500000 0.607200 0.500000 0.998823
Zn2   Zn    Zn3+2 0.500000 0.392800 0.500000 0.999553

loop_
_geom_bond_atom_site_label_1
_geom_bond_atom_site_label_2
_ccdc_geom_bond_type
H33   N3    S    
C23   C45   A    
C40   H25   S    
C13   O6    S    
C35   H7    S    
C37   O4    S    
H34   N4    S    
N1    Zn1   S    
C38   O5    S    
C40   H24   S    
C19   C21   T    
C24   C26   A    
C5    C11   A    
C29   C42   A    
C35   O2    S    
C27   C29   A    
C33   H3    S    
C44   H30   S    
C15   O8    S    
C11   C15   A    
H32   N3    S    
C7    C14   A    
O10   Zn1   S    
C22   C25   A    
C3    N1    A    
C9    C10   A    
C39   O6    S    
O13   Zn2   S    
O11   Zn2   S    
C41   H28   S    
C13   C14   A    
C35   H8    S    
C1    O1    A    
C39   H19   S    
C12   O10   A    
C42   C44   A    
C38   H18   S    
C36   O3    S    
C43   H29   S    
C16   O12   A    
C3    O3    S    
C7    C46   A    
C34   C44   A    
C4    C6    A    
C36   H11   S    
C33   H4    S    
C42   H23   S    
C24   C34   A    
H2    N4    S    
C32   C34   A    
C5    C9    A    
C36   H10   S    
C46   N1    A    
C11   O5    S    
C31   C32   A    
C1    O11   A    
C41   O8    S    
N2    Zn2   S    
C43   C45   A    
C37   H13   S    
C41   H26   S    
C16   C18   S    
C8    C15   A    
C1    C26   S    
C39   H20   S    
C30   C43   A    
C2    N2    A    
C33   H5    S    
O1    Zn1   S    
C38   H17   S    
C17   O14   A    
C27   H1    S    
C7    C9    A    
C46   O16   S    
C39   H21   S    
C2    C8    A    
C3    C5    A    
O9    Zn2   S    
C6    C10   A    
C37   H15   S    
C16   O15   A    
C4    O4    S    
C28   H12   S    
C25   C27   A    
O14   Zn1   S    
C26   C28   A    
C12   C25   S    
C33   O16   S    
C22   N3    S    
C28   C30   A    
C24   N4    S    
C29   C31   A    
C36   H9    S    
C6    C13   A    
C30   C32   A    
C17   C19   S    
C2    O2    S    
C18   C20   T    
C40   O7    S    
C12   O9    A    
C14   O7    S    
C37   H14   S    
C41   H27   S    
O15   Zn2   S    
C4    N2    A    
C20   C21   S    
C8    C10   A    
C40   H22   S    
C35   H6    S    
C22   C23   A    
C45   H31   S    
O12   Zn1   S    
C17   O13   A    
C23   C31   A    
C38   H16   S    
