data_mof_unit_21446.cif
_audit_creation_date              2012-12-10T17:14:41-0500
_audit_creation_method            fapswitch 2.2
_symmetry_space_group_name_H-M    P1
_symmetry_Int_Tables_number       1
_space_group_crystal_system       triclinic
_cell_length_a                    10.644169
_cell_length_b                    13.037383
_cell_length_c                    11.672834
_cell_angle_alpha                 99.778459
_cell_angle_beta                  93.864595
_cell_angle_gamma                 89.973225
_cell_volume                      1592.6009344

loop_
_atom_site_label
_atom_site_type_symbol
_atom_type_description
_atom_site_fract_x
_atom_site_fract_y
_atom_site_fract_z
_atom_type_partial_charge
C1    C     C_R   0.502103 0.299472 0.478945 0.809825
C2    C     C_R   0.497909 0.700527 0.521055 0.809830
C3    C     C_R   0.571809 0.133971 0.546377 0.099970
C4    C     C_R   0.428207 0.866035 0.453644 0.099943
C5    C     C_R   0.542141 0.027479 0.545325 0.100556
C6    C     C_R   0.457895 0.972519 0.454685 0.100532
C7    C     C_R   0.381127 0.403075 0.021696 -0.314306
C8    C     C_R   0.618873 0.596925 0.978304 -0.314304
C9    C     C_R   0.392472 0.412218 0.143894 0.105527
C10   C     C_R   0.607528 0.587782 0.856106 0.105531
C11   C     C_R   0.551296 0.541713 0.157093 0.053325
C12   C     C_R   0.448704 0.458287 0.842906 0.053315
C13   C     C_R   0.543162 0.535164 0.034259 0.061853
C14   C     C_R   0.456838 0.464836 0.965741 0.061855
C15   C     C_R   0.259284 0.500491 0.500300 0.833149
C16   C     C_R   0.740716 0.499510 0.499700 0.833176
C17   C     C_3   0.044361 0.407060 0.519377 -0.282273
C18   C     C_3   0.955639 0.592945 0.480626 -0.282289
C19   C     C_3   0.954096 0.425151 0.415988 0.449419
C20   C     C_3   0.045903 0.574854 0.584015 0.449422
C21   C     C_3   0.877271 0.499122 0.499435 -0.101309
C22   C     C_3   0.122729 0.500883 0.500567 -0.101322
C23   C     C_3   0.965932 0.481916 0.603951 -0.223837
C24   C     C_3   0.034067 0.518089 0.396051 -0.223833
C25   C     C_R   0.498557 0.813554 0.532948 -0.046188
C26   C     C_R   0.501471 0.186443 0.467055 -0.046248
C27   C     C_R   0.408039 0.025299 0.366694 -0.202236
C28   C     C_R   0.592027 0.974686 0.633291 -0.202211
C29   C     C_R   0.425560 0.131033 0.375556 -0.221461
C30   C     C_R   0.574502 0.868951 0.624423 -0.221523
Cu1   Cu    Cu3+1 0.509400 0.507730 0.615930 0.962775
Cu2   Cu    Cu3+1 0.490600 0.492270 0.384070 0.962779
H1    H     H_    0.082931 0.330958 0.534377 0.162569
H2    H     H_    0.917068 0.669047 0.465625 0.162563
H3    H     H_    0.936062 0.467713 0.689277 0.176347
H4    H     H_    0.063938 0.532293 0.310726 0.176355
H5    H     H_    0.622419 0.829816 0.689452 0.166378
H6    H     H_    0.377664 0.170157 0.310505 0.166383
H7    H     H_    0.355208 0.987589 0.289149 0.148269
H8    H     H_    0.644897 0.012377 0.710815 0.148275
H9    H     H_    0.382564 0.404374 0.789384 0.123800
H10   H     H_    0.617436 0.595626 0.210616 0.123798
H11   H     H_    0.666293 0.635725 0.813957 0.132419
H12   H     H_    0.333707 0.364275 0.186042 0.132421
H13   H     H_    0.313666 0.348129 0.971497 0.147139
H14   H     H_    0.686334 0.651871 0.028503 0.147139
N1    N     N_R   0.523540 0.519360 0.790140 -0.185259
N2    N     N_R   0.476460 0.480640 0.209860 -0.185257
O1    O     O_R   0.506670 0.354460 0.582000 -0.603229
O2    O     O_R   0.493330 0.645540 0.418000 -0.603225
O3    O     O_R   0.490800 0.341410 0.386200 -0.577112
O4    O     O_R   0.509200 0.658590 0.613800 -0.577114
O5    O     O_R   0.324790 0.506500 0.597880 -0.553303
O6    O     O_R   0.675210 0.493500 0.402120 -0.553310
O7    O     O_R   0.308910 0.493440 0.402080 -0.597210
O8    O     O_R   0.691090 0.506560 0.597920 -0.597217
Cl1   Cl    Cl    0.892357 0.325874 0.302127 -0.637728
Cl2   Cl    Cl    0.107636 0.674130 0.697879 -0.637737
C31   C     C_3   0.316671 0.810261 0.377803 -0.442855
C32   C     C_3   0.215395 0.778246 0.452022 -0.734640
H15   H     H_    0.251245 0.720405 0.504966 0.259998
H16   H     H_    0.182184 0.847492 0.510885 0.267684
H17   H     H_    0.134027 0.742668 0.394471 0.229052
H18   H     H_    0.266565 0.858094 0.320767 0.201902
H19   H     H_    0.348389 0.741699 0.317534 0.231079
C33   C     C_3   0.683317 0.189763 0.622246 -0.442821
C34   C     C_3   0.784632 0.221751 0.548049 -0.734690
H20   H     H_    0.817937 0.152480 0.489286 0.267642
H21   H     H_    0.748772 0.279510 0.495006 0.260046
H22   H     H_    0.865943 0.257416 0.605621 0.229048
H23   H     H_    0.651579 0.258339 0.682481 0.231083
H24   H     H_    0.733392 0.141964 0.679335 0.201876

loop_
_geom_bond_atom_site_label_1
_geom_bond_atom_site_label_2
_ccdc_geom_bond_type
C16   C21   S    
C27   C29   A    
C18   C21   S    
Cu1   O4    S    
C4    C25   A    
Cu1   Cu2   S    
C19   Cl1   S    
C31   H18   S    
C24   H4    S    
C32   H17   S    
C18   C24   S    
C15   O5    A    
C19   C21   S    
C5    C6    A    
C28   H8    S    
C11   H10   S    
C32   H16   S    
C2    O2    A    
C15   C22   S    
C33   H24   S    
C6    C27   A    
C27   H7    S    
C29   H6    S    
Cu1   O8    S    
Cu2   O7    S    
C33   C34   S    
C31   C32   S    
Cu1   N1    S    
C13   C14   A    
Cu2   N2    S    
C11   N2    A    
C17   H1    S    
Cu1   O1    S    
C12   N1    A    
Cu2   O6    S    
C8    H14   S    
C7    C14   A    
C34   H20   S    
C4    C6    A    
C30   H5    S    
C32   H15   S    
C34   H21   S    
C15   O7    A    
C16   O8    A    
Cu2   O3    S    
C12   H9    S    
C5    C28   A    
C1    O3    A    
C33   H23   S    
C20   C23   S    
C17   C23   S    
Cu1   O5    S    
C18   H2    S    
Cu2   O2    S    
C2    O4    A    
C26   C29   A    
C20   C22   S    
C23   H3    S    
C21   C23   S    
C1    C26   S    
C22   C24   S    
C3    C33   S    
C20   Cl2   S    
C7    H13   S    
C25   C30   A    
C7    C9    A    
C9    H12   S    
C10   H11   S    
C3    C26   A    
C12   C14   A    
C3    C5    A    
C17   C22   S    
C34   H22   S    
C28   C30   A    
C19   C24   S    
C31   H19   S    
C11   C13   A    
C4    C31   S    
C17   C19   S    
C2    C25   S    
C18   C20   S    
C16   O6    A    
C8    C13   A    
C9    N2    A    
C8    C10   A    
C10   N1    A    
C1    O1    A    
