data_mof_unit_65880.cif
_audit_creation_date              2013-03-05T16:42:58-0500
_audit_creation_method            fapswitch 2.2
_symmetry_space_group_name_H-M    P1
_symmetry_Int_Tables_number       1
_space_group_crystal_system       triclinic
_cell_length_a                    17.720886
_cell_length_b                    16.572421
_cell_length_c                    27.688502
_cell_angle_alpha                 89.999952
_cell_angle_beta                  92.402467
_cell_angle_gamma                 89.987544
_cell_volume                      8124.35585605

loop_
_atom_site_label
_atom_site_type_symbol
_atom_site_description
_atom_site_fract_x
_atom_site_fract_y
_atom_site_fract_z
_atom_type_partial_charge
O1    O     O_R   0.391260 0.567930 0.500000 -0.568689
O2    O     O_R   0.608740 0.432070 0.500000 -0.568987
O3    O     O_R   0.608740 0.567930 0.500000 -0.568906
O4    O     O_R   0.391260 0.432070 0.500000 -0.569491
C1    C     C_R   0.355370 0.500006 0.500164 0.799386
C2    C     C_R   0.644625 0.499993 0.499787 0.795077
O5    O     O_R   0.500010 0.567900 0.430260 -0.554111
O6    O     O_R   0.499990 0.432100 0.569740 -0.554387
O7    O     O_R   0.499990 0.567900 0.569740 -0.553469
O8    O     O_R   0.500010 0.432100 0.430260 -0.554223
C3    C     C_R   0.499616 0.499965 0.407559 0.829195
C4    C     C_R   0.500649 0.499987 0.592460 0.827063
Cu1   Cu    Cu3+1 0.500000 0.580420 0.500000 0.999503
Cu2   Cu    Cu3+1 0.500000 0.419580 0.500000 0.998803
C5    C     C_R   0.503710 0.425585 0.178149 0.563204
C6    C     C_R   0.498123 0.569721 0.822526 0.563725
O9    O     O_2   0.489436 0.358518 0.203611 -0.483007
O10   O     O_2   0.487252 0.637867 0.796723 -0.481763
N1    N     N_R   0.516700 0.496290 0.202577 -0.468706
N2    N     N_R   0.505404 0.498360 0.798345 -0.469519
C7    C     C_R   0.532851 0.566204 0.179126 0.553348
C8    C     C_R   0.518355 0.427329 0.822171 0.551559
C9    C     C_R   0.579217 0.494687 0.284362 0.215548
C10   C     C_R   0.433969 0.497888 0.719320 0.214846
C11   C     C_R   0.572884 0.496482 0.334531 -0.258595
C12   C     C_R   0.434881 0.498779 0.668784 -0.260656
C13   C     C_R   0.435618 0.501005 0.324901 0.132667
C14   C     C_R   0.572549 0.500110 0.672454 0.138051
C15   C     C_R   0.442097 0.500104 0.274706 -0.135705
C16   C     C_R   0.571439 0.499620 0.722907 -0.138658
C17   C     C_R   0.513007 0.497125 0.254269 0.316910
C18   C     C_R   0.503121 0.498566 0.746472 0.318381
C19   C     C_R   0.524582 0.495040 0.102562 -0.083075
C20   C     C_R   0.518157 0.498434 0.898702 -0.082786
C21   C     C_R   0.506325 0.423013 0.127174 -0.074746
C22   C     C_R   0.503179 0.571752 0.873642 -0.076017
C23   C     C_R   0.490473 0.352443 0.099606 0.211190
C24   C     C_R   0.493347 0.643175 0.900881 0.211206
C25   C     C_R   0.537632 0.566861 0.128785 -0.055617
C26   C     C_R   0.525216 0.425963 0.872721 -0.054076
C27   C     C_R   0.501994 0.499669 0.354943 -0.035528
C28   C     C_R   0.503301 0.499866 0.645241 -0.034168
H1    H     H_    0.391695 0.501470 0.251145 0.155912
H2    H     H_    0.624118 0.500029 0.744273 0.152789
C29   C     C_R   0.533128 0.422741 0.974843 0.053549
C30   C     C_R   0.539594 0.569541 0.026825 0.053924
C31   C     C_R   0.525034 0.570473 0.975951 0.013063
C32   C     C_R   0.521941 0.422769 0.025382 0.012855
C33   C     C_R   0.525722 0.497225 0.949860 0.038403
C34   C     C_R   0.529069 0.495733 0.051574 0.038447
C35   C     C_R   0.549395 0.352054 0.947864 0.140644
C36   C     C_R   0.562146 0.638794 0.054315 0.141274
C37   C     C_R   0.542299 0.354151 0.897417 -0.138812
C38   C     C_R   0.557966 0.637215 0.104600 -0.139290
O11   O     O_2   0.525002 0.358274 0.796834 -0.524548
O12   O     O_2   0.544548 0.634810 0.204640 -0.524978
C39   C     C_R   0.497786 0.353641 0.049695 -0.241188
C40   C     C_R   0.503723 0.641286 0.951043 -0.240519
H3    H     H_    0.381955 0.498281 0.647629 0.146290
H4    H     H_    0.623562 0.494765 0.357898 0.145680
H5    H     H_    0.552945 0.299397 0.877359 0.197286
H6    H     H_    0.573284 0.691052 0.125004 0.196476
H7    H     H_    0.480951 0.300239 0.029697 0.185141
H8    H     H_    0.491621 0.695736 0.970669 0.185273
C41   C     C_R   0.846309 0.573114 0.499433 -0.145188
C42   C     C_R   0.153679 0.426869 0.500462 -0.144935
C43   C     C_R   0.153652 0.573142 0.500595 -0.144649
C44   C     C_R   0.846340 0.426841 0.499506 -0.145443
H9    H     H_    0.876488 0.629978 0.499384 0.142144
H10   H     H_    0.123499 0.370003 0.500436 0.142070
H11   H     H_    0.123449 0.630004 0.500674 0.142227
H12   H     H_    0.876545 0.369977 0.499515 0.142071
C45   C     C_R   0.767650 0.573205 0.499292 -0.167041
C46   C     C_R   0.232337 0.426784 0.500581 -0.167214
C47   C     C_R   0.232312 0.573236 0.500715 -0.166383
C48   C     C_R   0.767679 0.426753 0.499366 -0.167720
H13   H     H_    0.738345 0.630531 0.498972 0.176838
H14   H     H_    0.261640 0.369457 0.500809 0.176261
H15   H     H_    0.261597 0.630563 0.501053 0.176955
H16   H     H_    0.738395 0.369428 0.499107 0.176809
C49   C     C_R   0.727611 0.499981 0.499500 -0.044479
C50   C     C_R   0.272380 0.500012 0.500464 -0.044048
C51   C     C_R   0.885549 0.499978 0.499627 0.137374
C52   C     C_R   0.114442 0.500003 0.500379 0.137262
C53   C     C_1   0.966157 0.499983 0.499891 -0.047361
C54   C     C_1   0.033834 0.499994 0.500124 -0.047154
C55   C     C_R   0.548201 0.830260 0.531139 -0.265661
C56   C     C_R   0.451630 0.169967 0.468640 -0.266331
C57   C     C_R   0.451559 0.830110 0.468730 -0.266319
C58   C     C_R   0.548083 0.169737 0.531191 -0.266632
H17   H     H_    0.586461 0.862454 0.555855 0.173907
H18   H     H_    0.413405 0.137931 0.443828 0.174166
H19   H     H_    0.413247 0.862184 0.443982 0.173867
H20   H     H_    0.586269 0.137516 0.555947 0.173822
C59   C     C_R   0.547963 0.744928 0.530984 0.325209
C60   C     C_R   0.452046 0.255303 0.468875 0.324300
C61   C     C_R   0.451954 0.744777 0.468965 0.324910
C62   C     C_R   0.547872 0.255060 0.531038 0.324424
N3    N     N_R   0.500000 0.701220 0.500000 -0.202431
N4    N     N_R   0.500000 0.298780 0.500000 -0.203143
C63   C     C_R   0.499840 0.873971 0.499915 0.067206
C64   C     C_R   0.499802 0.126069 0.499900 0.066973
C65   C     C_1   0.499771 0.962994 0.499877 0.008720
C66   C     C_1   0.499752 0.037046 0.499868 0.008713
C67   C     C_3   0.357511 0.502743 0.344421 -0.765801
H21   H     H_    0.327403 0.557778 0.331271 0.246076
H22   H     H_    0.325433 0.448917 0.331349 0.248774
H23   H     H_    0.357945 0.502726 0.384463 0.234072
C68   C     C_3   0.648347 0.500675 0.649704 -0.765775
H24   H     H_    0.680923 0.446400 0.661476 0.247239
H25   H     H_    0.643942 0.500831 0.609672 0.233988
H26   H     H_    0.680383 0.555174 0.661685 0.246531
I1    I     I_    0.626572 0.693307 0.581821 -0.363937
I2    I     I_    0.373776 0.307395 0.417851 -0.355230
I3    I     I_    0.373416 0.692915 0.418120 -0.367790
I4    I     I_    0.626422 0.306709 0.581916 -0.364191
I5    I     I_    0.452068 0.239741 0.126684 -0.240074
I6    I     I_    0.460110 0.758356 0.872804 -0.243256
C69   C     C_3   0.358888 0.495654 0.742762 -0.777457
H27   H     H_    0.326005 0.550524 0.732518 0.239515
H28   H     H_    0.326820 0.441565 0.730090 0.228699
H29   H     H_    0.364603 0.492960 0.782756 0.234737
C70   C     C_3   0.656854 0.489279 0.264497 -0.784179
H30   H     H_    0.686164 0.434868 0.279314 0.229894
H31   H     H_    0.655566 0.484837 0.224526 0.232691
H32   H     H_    0.690007 0.543613 0.275424 0.237504
C71   C     C_3   0.585085 0.277110 0.969969 -0.845177
H33   H     H_    0.632727 0.256922 0.948071 0.241331
H34   H     H_    0.609888 0.288225 0.006800 0.248543
H35   H     H_    0.542961 0.227573 0.970538 0.241666
C72   C     C_3   0.601258 0.710900 0.033213 -0.846354
H36   H     H_    0.651631 0.727302 0.056406 0.240535
H37   H     H_    0.622794 0.698061 0.996978 0.249012
H38   H     H_    0.562451 0.763522 0.031603 0.241868

loop_
_geom_bond_atom_site_label_1
_geom_bond_atom_site_label_2
_geom_bond_distance
_ccdc_geom_bond_type
C56   C60   1.414250 A    
C55   H17   1.083470 S    
C13   C15   1.399420 A    
C72   H38   1.110224 S    
N1    C17   1.435569 S    
C71   H34   1.108869 S    
C70   H30   1.110467 S    
C31   C33   1.412915 A    
C53   C54   1.199038 T    
C5    N1    1.367688 A    
C67   H22   1.110322 S    
C19   C25   1.408339 A    
O1    C1    1.293129 A    
C6    N2    1.367743 A    
N1    C7    1.364445 A    
C10   C12   1.400132 A    
C68   H25   1.107897 S    
C59   N3    1.386435 A    
C41   C51   1.397114 A    
C25   C38   1.399303 A    
C13   C67   1.507140 S    
C42   C46   1.393753 A    
C30   C36   1.425106 A    
C41   C45   1.393738 A    
C45   C49   1.405973 A    
O7    Cu1   1.942119 S    
C58   C64   1.394444 A    
C4    C28   1.460213 S    
C19   C21   1.418644 A    
C24   C40   1.393704 A    
C37   H5    1.084497 S    
C56   H18   1.083445 S    
C20   C33   1.417356 A    
C55   C59   1.414174 A    
C39   H7    1.079386 S    
C11   H4    1.084981 S    
C61   I3    2.119879 S    
C12   H3    1.084792 S    
C43   H11   1.083675 S    
O3    Cu1   1.938008 S    
O6    C4    1.288804 A    
C57   C63   1.394377 A    
O3    C2    1.293072 A    
C32   C34   1.412949 A    
C43   C52   1.397155 A    
C63   C65   1.475331 S    
C2    C49   1.470944 S    
C55   C63   1.394359 A    
Cu1   Cu2   2.665510 S    
C15   H1    1.083968 S    
O4    Cu2   1.938010 S    
C44   C51   1.397153 A    
C16   H2    1.084070 S    
O2    C2    1.293101 A    
C46   C50   1.406007 A    
C5    C21   1.414739 A    
C61   N3    1.386658 A    
C36   C38   1.397641 A    
C58   H20   1.083447 S    
C69   H28   1.110421 S    
C40   H8    1.079456 S    
C67   H23   1.108399 S    
C32   C39   1.404718 A    
O8    Cu2   1.942121 S    
C68   H26   1.110183 S    
C11   C27   1.399930 A    
C70   H32   1.110313 S    
C9    C70   1.505595 S    
C38   H6    1.084505 S    
C19   C34   1.417390 A    
C57   C61   1.414202 A    
C35   C37   1.397628 A    
C9    C17   1.410872 A    
Cu1   N3    2.001947 S    
O5    C3    1.289303 A    
C10   C18   1.410592 A    
C13   C27   1.412055 A    
C62   I4    2.119188 S    
C7    C25   1.400022 A    
C29   C33   1.418355 A    
C44   H12   1.083674 S    
C8    C26   1.400012 A    
C23   I5    2.134732 S    
C64   C66   1.475326 S    
C51   C53   1.428163 S    
N2    C8    1.364089 A    
C62   N4    1.386286 A    
C20   C26   1.408223 A    
C43   C47   1.393795 A    
C72   H36   1.111368 S    
C22   C24   1.418143 A    
C12   C28   1.400553 A    
N2    C18   1.435183 S    
C29   C32   1.421531 A    
C5    O9    1.345901 S    
C30   C31   1.421446 A    
C10   C69   1.505097 S    
O6    Cu2   1.942119 S    
C21   C23   1.418280 A    
C36   C72   1.511302 S    
C48   H16   1.082487 S    
C52   C54   1.428166 S    
O4    C1    1.293069 A    
C72   H37   1.108866 S    
C48   C49   1.405970 A    
C7    O12   1.350016 S    
C56   C64   1.394615 A    
C69   H27   1.110310 S    
C47   C50   1.405994 A    
Cu2   N4    2.001947 S    
C8    O11   1.350035 S    
C14   C68   1.507321 S    
C44   C48   1.393781 A    
C67   H21   1.110222 S    
C30   C34   1.418231 A    
C35   C71   1.511409 S    
C14   C16   1.397954 A    
C71   H35   1.110253 S    
C15   C17   1.400458 A    
C68   H24   1.110199 S    
C6    C22   1.414811 A    
C31   C40   1.404808 A    
C16   C18   1.399264 A    
C1    C50   1.471023 S    
C42   H10   1.083683 S    
C59   I1    2.118681 S    
C41   H9    1.083681 S    
C60   N4    1.386674 A    
C14   C28   1.412832 A    
C69   H29   1.108659 S    
C3    C27   1.459252 S    
C20   C22   1.418697 A    
C9    C11   1.398637 A    
C57   H19   1.083442 S    
O2    Cu2   1.938098 S    
O7    C4    1.289176 A    
C60   I2    2.121362 S    
C70   H31   1.108442 S    
O8    C3    1.288282 A    
C42   C52   1.397115 A    
C24   I6    2.134484 S    
O5    Cu1   1.942122 S    
O1    Cu1   1.938099 S    
C45   H13   1.082473 S    
C6    O10   1.345857 S    
C26   C37   1.399310 A    
C46   H14   1.082485 S    
C65   C66   1.227218 T    
C29   C35   1.425237 A    
C47   H15   1.082491 S    
C58   C62   1.414027 A    
C23   C39   1.393567 A    
C71   H33   1.111369 S    
