data_mof_unit_7105.cif
_audit_creation_date              2012-12-10T17:18:59-0500
_audit_creation_method            fapswitch 2.2
_symmetry_space_group_name_H-M    P1
_symmetry_Int_Tables_number       1
_space_group_crystal_system       triclinic
_cell_length_a                    10.182812
_cell_length_b                    10.841073
_cell_length_c                    13.620042
_cell_angle_alpha                 92.059241
_cell_angle_beta                  100.504072
_cell_angle_gamma                 95.966282
_cell_volume                      1468.030113

loop_
_atom_site_label
_atom_site_type_symbol
_atom_type_description
_atom_site_fract_x
_atom_site_fract_y
_atom_site_fract_z
_atom_type_partial_charge
C1    C     C_R   0.052166 0.732104 0.491144 0.946078
C2    C     C_R   0.945613 0.267460 0.503989 0.957252
C3    C     C_R   0.500608 0.661060 0.102176 -0.234500
C4    C     C_R   0.572416 0.517399 0.869346 -0.242151
C5    C     C_R   0.369436 0.688435 0.071544 -0.163664
C6    C     C_R   0.701119 0.484921 0.900103 -0.166309
C7    C     C_2   0.078326 0.863196 0.478214 -0.355235
C8    C     C_2   0.911013 0.134693 0.498423 -0.365388
C9    C     C_2   0.976004 0.931561 0.474018 -0.132824
C10   C     C_2   0.999060 0.063503 0.471284 -0.135490
C11   C     C_2   0.430921 0.511247 0.508522 -0.133318
C12   C     C_2   0.569101 0.488458 0.491791 -0.131977
C13   C     C_R   0.094873 0.516117 0.685797 0.908016
C14   C     C_R   0.906519 0.488076 0.314122 0.897471
C15   C     C_R   0.153053 0.547701 0.790769 -0.098218
C16   C     C_R   0.860554 0.491449 0.206618 -0.124544
C17   C     C_R   0.159610 0.663421 0.947445 0.402889
C18   C     C_R   0.880140 0.441211 0.035778 0.406914
C19   C     C_R   0.090066 0.617989 0.852772 -0.178365
C20   C     C_R   0.930881 0.442528 0.138056 -0.187873
C21   C     C_R   0.284126 0.522304 0.823556 -0.230625
C22   C     C_R   0.743305 0.544692 0.173233 -0.243367
C23   C     C_R   0.360571 0.577053 0.912502 0.042112
C24   C     C_R   0.690387 0.546730 0.071471 0.063009
C25   C     C_R   0.295989 0.643703 0.977911 0.074767
C26   C     C_R   0.758520 0.491705 0.001665 0.088593
C27   C     C_R   0.498509 0.561550 0.939137 0.100847
C28   C     C_R   0.564530 0.591251 0.038613 0.103482
H1    H     H_    0.325401 0.742107 0.123024 0.202200
H2    H     H_    0.752307 0.449419 0.843920 0.199113
H3    H     H_    0.690557 0.578430 0.228603 0.166245
H4    H     H_    0.325868 0.459366 0.777577 0.169473
H5    H     H_    0.022555 0.401290 0.163977 0.188453
H6    H     H_    0.987934 0.638649 0.827482 0.184325
H7    H     H_    0.551054 0.698765 0.175319 0.152254
H8    H     H_    0.533338 0.508866 0.789873 0.146397
H9    H     H_    0.093560 0.102478 0.452376 0.190676
H10   H     H_    0.875005 0.891291 0.478627 0.188360
H11   H     H_    0.816797 0.095291 0.517365 0.155437
H12   H     H_    0.179090 0.903895 0.473671 0.153350
H13   H     H_    0.578265 0.414769 0.438229 0.168603
H14   H     H_    0.421773 0.584723 0.562285 0.163530
H15   H     H_    0.665124 0.622857 0.589487 0.164728
H16   H     H_    0.334881 0.377237 0.410440 0.167692
N1    N     N_2   0.322180 0.446120 0.460900 -0.188428
N2    N     N_2   0.677820 0.553880 0.539100 -0.193795
O1    O     O_R   0.935190 0.693030 0.507870 -0.613426
O2    O     O_R   0.064810 0.306970 0.492130 -0.610425
O3    O     O_R   0.142080 0.658430 0.482770 -0.606209
O4    O     O_R   0.857920 0.341570 0.517230 -0.604293
O5    O     O_R   0.969700 0.527180 0.651960 -0.604322
O6    O     O_R   0.030300 0.472820 0.348040 -0.606170
O7    O     O_R   0.176600 0.492580 0.626860 -0.617458
O8    O     O_R   0.823400 0.507420 0.373140 -0.617852
Zn1   Zn    Zn3+2 0.861850 0.523100 0.516760 0.947840
Zn2   Zn    Zn3+2 0.138150 0.476900 0.483240 0.952366
Cl1   Cl    Cl    0.072655 0.746372 0.023815 -0.628706
Cl2   Cl    Cl    0.966673 0.365902 0.954482 -0.637539

loop_
_geom_bond_atom_site_label_1
_geom_bond_atom_site_label_2
_ccdc_geom_bond_type
N2    Zn1   S    
C18   C20   A    
C16   C22   A    
C11   C12   S    
C4    H8    S    
C12   H13   S    
C8    H11   S    
C23   C27   A    
C12   N2    D    
O3    Zn2   S    
C24   C28   A    
C9    C10   S    
C5    H1    S    
O4    Zn1   S    
C18   C26   A    
C3    H7    S    
C7    H12   S    
C17   C25   A    
C13   C15   S    
O1    Zn1   S    
C16   C20   A    
C23   C25   A    
C15   C19   A    
H15   N2    S    
C6    C26   A    
C10   H9    S    
C5    C25   A    
C20   H5    S    
C4    C6    A    
C3    C28   A    
C14   O8    A    
C24   C26   A    
C13   O7    A    
C21   C23   A    
C13   O5    A    
C21   H4    S    
C22   C24   A    
C11   N1    D    
C22   H3    S    
C17   C19   A    
C7    C9    D    
C15   C21   A    
C4    C27   A    
H16   N1    S    
C11   H14   S    
C8    C10   D    
O7    Zn2   S    
C2    C8    S    
C27   C28   A    
O2    Zn2   S    
O8    Zn1   S    
C1    O1    A    
C9    H10   S    
C2    O4    A    
O5    Zn1   S    
C2    O2    A    
C14   C16   S    
C1    C7    S    
C1    O3    A    
C6    H2    S    
C14   O6    A    
O6    Zn2   S    
N1    Zn2   S    
C17   Cl1   S    
C18   Cl2   S    
C3    C5    A    
C19   H6    S    
