data_mof_unit_8232.cif
_audit_creation_date              2013-03-05T15:46:00-0500
_audit_creation_method            fapswitch 2.2
_symmetry_space_group_name_H-M    P1
_symmetry_Int_Tables_number       1
_space_group_crystal_system       triclinic
_cell_length_a                    15.422765
_cell_length_b                    15.250386
_cell_length_c                    10.373914
_cell_angle_alpha                 89.998811
_cell_angle_beta                  79.944062
_cell_angle_gamma                 90.000368
_cell_volume                      2402.49339871

loop_
_atom_site_label
_atom_site_type_symbol
_atom_site_description
_atom_site_fract_x
_atom_site_fract_y
_atom_site_fract_z
_atom_type_partial_charge
O1    O     O_R   0.398960 0.091100 0.433300 -0.582965
O2    O     O_R   0.601040 0.908900 0.566700 -0.620682
O3    O     O_R   0.601040 0.091100 0.566700 -0.582945
O4    O     O_R   0.398960 0.908900 0.433300 -0.620683
O5    O     O_R   0.898960 0.591100 0.433300 -0.582970
O6    O     O_R   0.101040 0.408900 0.566700 -0.620681
O7    O     O_R   0.101040 0.591100 0.566700 -0.582961
O8    O     O_R   0.898960 0.408900 0.433300 -0.620620
O9    O     O_R   0.430710 0.091090 0.646210 -0.605056
O10   O     O_R   0.569290 0.908910 0.353790 -0.617584
O11   O     O_R   0.569290 0.091090 0.353790 -0.605066
O12   O     O_R   0.430710 0.908910 0.646210 -0.617586
O13   O     O_R   0.930710 0.591090 0.646210 -0.605062
O14   O     O_R   0.069290 0.408910 0.353790 -0.617580
O15   O     O_R   0.069290 0.591090 0.353790 -0.605086
O16   O     O_R   0.930710 0.408910 0.646210 -0.617576
C1    C     C_R   0.390028 0.122773 0.554216 0.754661
C2    C     C_R   0.610026 0.877330 0.445655 0.762498
C3    C     C_R   0.609979 0.122770 0.445780 0.754622
C4    C     C_R   0.389973 0.877330 0.554347 0.762498
C5    C     C_R   0.890031 0.622776 0.554213 0.754654
C6    C     C_R   0.110028 0.377332 0.445653 0.762501
C7    C     C_R   0.109971 0.622775 0.445784 0.754656
C8    C     C_R   0.889968 0.377335 0.554352 0.762499
C9    C     C_2   0.488523 0.007631 0.933027 0.366855
C10   C     C_2   0.511477 0.007630 0.066971 0.366863
C11   C     C_2   0.988521 0.507643 0.933025 0.366807
C12   C     C_2   0.011473 0.507649 0.066969 0.366750
Zn1   Zn    Zn3+2 0.478810 0.000000 0.357840 0.949227
Zn2   Zn    Zn3+2 0.521190 0.000000 0.642160 0.949233
Zn3   Zn    Zn3+2 0.978810 0.500000 0.357840 0.949224
Zn4   Zn    Zn3+2 0.021190 0.500000 0.642160 0.949229
N1    N     N_2   0.549450 0.000000 0.831550 0.059340
N2    N     N_2   0.450550 0.000000 0.168450 0.059345
N3    N     N_2   0.049450 0.500000 0.831550 0.059341
N4    N     N_2   0.950550 0.500000 0.168450 0.059314
C13   C     C_2   0.328618 0.802849 0.586719 0.311557
C14   C     C_2   0.671372 0.197414 0.414082 0.311222
C15   C     C_2   0.671378 0.802849 0.413286 0.311548
C16   C     C_2   0.328652 0.197426 0.585910 0.311193
C17   C     C_2   0.828608 0.302861 0.586744 0.311536
C18   C     C_2   0.171343 0.697433 0.414092 0.311193
C19   C     C_2   0.171386 0.302856 0.413278 0.311555
C20   C     C_2   0.828664 0.697437 0.585898 0.311183
C21   C     C_2   0.296533 0.765211 0.488594 0.138561
C22   C     C_2   0.703705 0.234433 0.512600 0.126597
C23   C     C_2   0.703469 0.765213 0.511409 0.138580
C24   C     C_2   0.296306 0.234439 0.487398 0.126634
C25   C     C_2   0.796550 0.265193 0.488622 0.138647
C26   C     C_2   0.203692 0.734440 0.512603 0.126640
C27   C     C_2   0.203466 0.265210 0.511403 0.138559
C28   C     C_2   0.796308 0.734438 0.487387 0.126625
O17   O     O_3   0.376654 0.046561 0.165774 -0.565221
C29   C     C_3   0.304970 0.996790 0.230091 -0.096127
H1    H     H_    0.293920 0.007677 0.337037 0.193239
H2    H     H_    0.312332 0.925518 0.207830 0.131421
H3    H     H_    0.244656 0.019113 0.195151 0.143769
O18   O     O_3   0.623347 0.046562 0.834221 -0.565214
C30   C     C_3   0.695030 0.996792 0.769908 -0.096102
H4    H     H_    0.706085 0.007683 0.662962 0.193229
H5    H     H_    0.687665 0.925519 0.792167 0.131412
H6    H     H_    0.755343 0.019111 0.804855 0.143764
O19   O     O_3   0.876604 0.546478 0.165772 -0.565312
C31   C     C_3   0.804977 0.496661 0.230160 -0.095548
H7    H     H_    0.793706 0.507915 0.337052 0.192998
H8    H     H_    0.812568 0.425323 0.208431 0.131642
H9    H     H_    0.744691 0.518626 0.194765 0.143478
O20   O     O_3   0.123355 0.546550 0.834218 -0.565227
C32   C     C_3   0.195029 0.496768 0.769902 -0.096076
H10   H     H_    0.206096 0.507682 0.662959 0.193224
H11   H     H_    0.187641 0.425492 0.792132 0.131429
H12   H     H_    0.255344 0.519059 0.804874 0.143746
C33   C     C_3   0.641907 0.256300 0.640074 -0.796893
H13   H     H_    0.654472 0.212300 0.719945 0.309513
H14   H     H_    0.651140 0.325568 0.667611 0.213973
H15   H     H_    0.571514 0.250219 0.630311 0.223221
C34   C     C_3   0.359156 0.741052 0.362982 -0.837780
H16   H     H_    0.349478 0.671418 0.337725 0.225394
H17   H     H_    0.347941 0.783631 0.280930 0.269555
H18   H     H_    0.429325 0.747129 0.374020 0.227090
C35   C     C_3   0.358091 0.256298 0.359907 -0.796848
H19   H     H_    0.345517 0.212291 0.280052 0.309507
H20   H     H_    0.348856 0.325563 0.332357 0.213976
H21   H     H_    0.428488 0.250218 0.369654 0.223203
C36   C     C_3   0.640853 0.741055 0.637029 -0.837803
H22   H     H_    0.650531 0.671422 0.662292 0.225383
H23   H     H_    0.652074 0.783635 0.719074 0.269550
H24   H     H_    0.570682 0.747131 0.626001 0.227092
C37   C     C_3   0.141911 0.756294 0.640097 -0.796835
H25   H     H_    0.154487 0.712283 0.719950 0.309500
H26   H     H_    0.151147 0.825557 0.667649 0.213972
H27   H     H_    0.071513 0.750215 0.630355 0.223232
C38   C     C_3   0.859217 0.240949 0.363096 -0.837827
H28   H     H_    0.849542 0.171295 0.337941 0.225411
H29   H     H_    0.848045 0.283459 0.280950 0.269500
H30   H     H_    0.929375 0.247047 0.374188 0.227048
C39   C     C_3   0.858080 0.756283 0.359879 -0.796873
H31   H     H_    0.845496 0.712267 0.280041 0.309473
H32   H     H_    0.848844 0.825545 0.332314 0.213978
H33   H     H_    0.928480 0.750206 0.369611 0.223237
C40   C     C_3   0.140837 0.241041 0.637006 -0.837784
H34   H     H_    0.150513 0.171404 0.662256 0.225401
H35   H     H_    0.152047 0.283612 0.719066 0.269554
H36   H     H_    0.070669 0.247119 0.625960 0.227075
O21   O     O_3   0.690336 0.239273 0.292833 -0.625259
C41   C     C_3   0.698363 0.181433 0.186479 -0.316739
H37   H     H_    0.633892 0.177715 0.153435 0.219907
H38   H     H_    0.724291 0.115825 0.207957 0.144218
H39   H     H_    0.746136 0.209620 0.104730 0.179330
O22   O     O_3   0.311177 0.760612 0.707751 -0.611890
C42   C     C_3   0.301119 0.818486 0.814292 -0.321953
H40   H     H_    0.274340 0.883648 0.792601 0.144451
H41   H     H_    0.365040 0.823243 0.848491 0.207209
H42   H     H_    0.253277 0.789525 0.895261 0.186030
O23   O     O_3   0.309748 0.239315 0.707136 -0.625208
C43   C     C_3   0.301685 0.181490 0.813518 -0.316675
H43   H     H_    0.366150 0.177747 0.846575 0.219905
H44   H     H_    0.275730 0.115888 0.792069 0.144180
H45   H     H_    0.253920 0.209707 0.895247 0.179295
O24   O     O_3   0.688802 0.760603 0.292262 -0.611858
C44   C     C_3   0.698863 0.818471 0.185710 -0.321907
H46   H     H_    0.725648 0.883633 0.207386 0.144437
H47   H     H_    0.634941 0.823229 0.151514 0.207206
H48   H     H_    0.746701 0.789503 0.104746 0.186016
O25   O     O_3   0.190237 0.739334 0.292872 -0.625203
C45   C     C_3   0.198300 0.681519 0.186482 -0.316692
H49   H     H_    0.133833 0.677776 0.153431 0.219888
H50   H     H_    0.224261 0.615917 0.207920 0.144191
H51   H     H_    0.246061 0.709746 0.104755 0.179284
O26   O     O_3   0.811161 0.260640 0.707789 -0.611873
C46   C     C_3   0.801090 0.318529 0.814312 -0.321947
H52   H     H_    0.774314 0.383687 0.792593 0.144426
H53   H     H_    0.865004 0.323294 0.848527 0.207210
H54   H     H_    0.753241 0.289577 0.895282 0.186060
O27   O     O_3   0.809785 0.739349 0.707107 -0.625196
C47   C     C_3   0.801718 0.681542 0.813510 -0.316670
H55   H     H_    0.866185 0.677797 0.846560 0.219881
H56   H     H_    0.775751 0.615940 0.792089 0.144190
H57   H     H_    0.753961 0.709777 0.895230 0.179274
O28   O     O_3   0.188831 0.260628 0.292241 -0.611891
C48   C     C_3   0.198890 0.318510 0.185705 -0.321945
H58   H     H_    0.225666 0.383672 0.207405 0.144442
H59   H     H_    0.134971 0.323269 0.151503 0.207206
H60   H     H_    0.246734 0.289556 0.104735 0.186039
C49   C     C_3   0.606359 0.997024 0.081547 -0.943888
H61   H     H_    0.616523 0.992548 0.181792 0.279655
H62   H     H_    0.634699 0.938732 0.026427 0.208482
H63   H     H_    0.645341 0.054701 0.043613 0.254946
C50   C     C_3   0.393640 0.997031 0.918450 -0.943857
H64   H     H_    0.383477 0.992549 0.818205 0.279653
H65   H     H_    0.365295 0.938742 0.973578 0.208484
H66   H     H_    0.354663 0.054712 0.956373 0.254941
C51   C     C_3   0.106356 0.497060 0.081550 -0.943809
H67   H     H_    0.116518 0.492568 0.181795 0.279652
H68   H     H_    0.134709 0.438776 0.026420 0.208504
H69   H     H_    0.145325 0.554748 0.043629 0.254941
C52   C     C_3   0.893637 0.497059 0.918446 -0.943768
H70   H     H_    0.883472 0.492551 0.818204 0.279636
H71   H     H_    0.865268 0.438792 0.973618 0.208571
H72   H     H_    0.854684 0.554761 0.956340 0.254925

loop_
_geom_bond_atom_site_label_1
_geom_bond_atom_site_label_2
_geom_bond_distance
_ccdc_geom_bond_type
O6    Zn4   1.929507 S    
N1    O18   1.347189 S    
O2    C2    1.329308 A    
C33   H13   1.109235 S    
O13   Zn4   1.964272 S    
C42   H40   1.114093 S    
O14   Zn3   1.964272 S    
C46   H54   1.108424 S    
C39   H33   1.111724 S    
C39   H31   1.109237 S    
O27   C47   1.401095 S    
C34   H16   1.110107 S    
C24   C35   1.525844 S    
C22   C25   1.485924 S    
O11   C3    1.321758 A    
C52   H70   1.080564 S    
C7    C18   1.480410 S    
C23   C36   1.525480 S    
C48   H59   1.106862 S    
C17   O26   1.394903 S    
C36   H24   1.111815 S    
C16   O23   1.395218 S    
C41   H37   1.108339 S    
C15   O24   1.394901 S    
O6    C6    1.329313 A    
C28   C39   1.525845 S    
C43   H43   1.108339 S    
C9    C50   1.505885 S    
C32   H11   1.112888 S    
O22   C42   1.401703 S    
C44   H48   1.108413 S    
O5    Zn3   1.929507 S    
C18   O25   1.395216 S    
C39   H32   1.109943 S    
C10   N2    1.288135 D    
C24   C27   1.485916 S    
O20   C32   1.409228 S    
O3    C3    1.328690 A    
C51   H68   1.105007 S    
N4    O19   1.347178 S    
O4    Zn1   1.929474 S    
C20   C28   1.337865 D    
C20   O27   1.395209 S    
O15   C7    1.321748 A    
C30   H4    1.105200 S    
C52   H71   1.105044 S    
C8    C17   1.478967 S    
C33   H14   1.109943 S    
C47   H57   1.108414 S    
C17   C25   1.336543 D    
C35   H20   1.109943 S    
C40   H34   1.110108 S    
C49   H61   1.080563 S    
C36   H23   1.107922 S    
C38   H29   1.107887 S    
C29   H2    1.112866 S    
C30   H5    1.112868 S    
C44   H47   1.106862 S    
C49   H62   1.105004 S    
Zn4   N3    2.085453 S    
O28   C48   1.401708 S    
C47   H56   1.114347 S    
C50   H66   1.098800 S    
C45   H51   1.108422 S    
C11   N3    1.288145 D    
C9    C10   1.492608 S    
C36   H22   1.110109 S    
Zn1   N2    2.085453 S    
C35   H19   1.109234 S    
C37   H27   1.111724 S    
C1    C16   1.480409 S    
C31   H8    1.113071 S    
O3    Zn2   1.929471 S    
C2    C15   1.478973 S    
C31   H9    1.109382 S    
C3    C14   1.480451 S    
C5    C20   1.480409 S    
C26   C37   1.525844 S    
C6    C19   1.478970 S    
O12   C4    1.320590 A    
O1    Zn1   1.929507 S    
C44   H46   1.114091 S    
C34   H17   1.107924 S    
O13   C5    1.321748 A    
C19   O28   1.394908 S    
C42   H41   1.106863 S    
C38   H28   1.110113 S    
C51   H69   1.098805 S    
O15   Zn3   1.964257 S    
C12   N4    1.288134 D    
C13   O22   1.394904 S    
O9    Zn2   1.964272 S    
C18   C26   1.337866 D    
O9    C1    1.321739 A    
C38   H30   1.111817 S    
O25   C45   1.401097 S    
C33   H15   1.111722 S    
C48   H60   1.108419 S    
C11   C52   1.505887 S    
C13   C21   1.336586 D    
C46   H52   1.114092 S    
C35   H21   1.111724 S    
C49   H63   1.098795 S    
C15   C23   1.336580 D    
C40   H35   1.107921 S    
C34   H18   1.111816 S    
C16   C24   1.337866 D    
C29   H1    1.105198 S    
C30   H6    1.109182 S    
C45   H50   1.114351 S    
O7    Zn4   1.929471 S    
Zn2   N1    2.085453 S    
O12   Zn2   1.964259 S    
Zn3   N4    2.085453 S    
O8    Zn3   1.929474 S    
C10   C49   1.505882 S    
C32   H12   1.109207 S    
C47   H55   1.108339 S    
C46   H53   1.106858 S    
O17   C29   1.409232 S    
C23   C28   1.485911 S    
C52   H72   1.098806 S    
O16   Zn4   1.964259 S    
O21   C41   1.401083 S    
O1    C1    1.328688 A    
C43   H45   1.108420 S    
O2    Zn2   1.929507 S    
C31   H7    1.105443 S    
O14   C6    1.320581 A    
C14   O21   1.395224 S    
C50   H65   1.105005 S    
O26   C46   1.401704 S    
O18   C30   1.409235 S    
C50   H64   1.080565 S    
C21   C26   1.485915 S    
C4    C13   1.478976 S    
O10   Zn1   1.964272 S    
C19   C27   1.336581 D    
C12   C51   1.505889 S    
C41   H38   1.114345 S    
N3    O20   1.347188 S    
O10   C2    1.320587 A    
C45   H49   1.108340 S    
O7    C7    1.328682 A    
O8    C8    1.329329 A    
C43   H44   1.114346 S    
C42   H42   1.108417 S    
C32   H10   1.105214 S    
C14   C22   1.337874 D    
O19   C31   1.409243 S    
O4    C4    1.329305 A    
O5    C5    1.328680 A    
O11   Zn1   1.964257 S    
N2    O17   1.347188 S    
O16   C8    1.320562 A    
C37   H26   1.109944 S    
C11   C12   1.492603 S    
O24   C44   1.401703 S    
C21   C34   1.525480 S    
C40   H36   1.111816 S    
C25   C38   1.525471 S    
C37   H25   1.109234 S    
C48   H58   1.114091 S    
C41   H39   1.108427 S    
C22   C33   1.525847 S    
C27   C40   1.525481 S    
O23   C43   1.401100 S    
C9    N1    1.288137 D    
C51   H67   1.080570 S    
C29   H3    1.109185 S    
