data_mof_unit_65999.cif
_audit_creation_date              2012-12-10T21:34:46-0500
_audit_creation_method            fapswitch 2.2
_symmetry_space_group_name_H-M    P1
_symmetry_Int_Tables_number       1
_space_group_crystal_system       triclinic
_cell_length_a                    10.88674
_cell_length_b                    16.192407
_cell_length_c                    16.80815
_cell_angle_alpha                 86.976832
_cell_angle_beta                  93.126012
_cell_angle_gamma                 91.525094
_cell_volume                      2953.61938426

loop_
_atom_site_label
_atom_site_type_symbol
_atom_type_description
_atom_site_fract_x
_atom_site_fract_y
_atom_site_fract_z
_atom_type_partial_charge
C1    C     C_R   0.487964 0.488946 0.652744 0.886164
C2    C     C_3   0.121861 0.501880 0.500781 -0.201321
C3    C     C_3   0.065284 0.553962 0.425322 0.407282
C4    C     C_3   0.082496 0.538610 0.582266 -0.149458
C5    C     C_R   0.465969 0.482630 0.739304 -0.152427
C6    C     C_R   0.472788 0.554720 0.784016 -0.079353
C7    C     C_R   0.485170 0.547203 0.866929 -0.041837
C8    C     C_R   0.461330 0.470045 0.906336 0.252377
C9    C     C_R   0.436646 0.400331 0.862652 -0.193733
C10   C     C_R   0.437318 0.405816 0.779573 -0.031379
C11   C     C_R   0.375584 0.448480 0.145677 -0.123753
C12   C     C_R   0.742619 0.499405 0.501358 0.945849
C13   C     C_R   0.407997 0.447840 0.226404 -0.200912
C14   C     C_R   0.400500 0.518947 0.097614 0.268958
C15   C     C_R   0.468059 0.517009 0.260174 -0.105570
C16   C     C_R   0.490907 0.588712 0.210982 0.262951
C17   C     C_R   0.453729 0.589394 0.130539 -0.168070
C18   C     C_R   0.454865 0.762450 0.449033 -0.007619
C19   C     C_R   0.460498 0.849915 0.444310 0.166150
C20   C     C_R   0.527099 0.892571 0.504451 0.225642
C21   C     C_R   0.591777 0.844942 0.564957 -0.189030
C22   C     C_R   0.583268 0.757254 0.567327 0.064829
C23   C     C_R   0.496911 0.511369 0.346523 0.933541
C24   C     C_R   0.511906 0.145146 0.551468 0.155717
C25   C     C_R   0.529595 0.231656 0.552210 0.349840
C26   C     C_R   0.460522 0.109261 0.482296 0.183083
C27   C     C_R   0.425954 0.249594 0.425432 -0.119646
C28   C     C_R   0.414318 0.163111 0.419503 -0.162531
C29   C     C_R   0.257889 0.500703 0.499362 0.901988
C30   C     C_3   0.928311 0.408873 0.510873 -0.005605
C31   C     C_3   0.067711 0.409659 0.499171 -0.274995
C32   C     C_3   0.923978 0.536630 0.420453 0.072165
C33   C     C_3   0.937979 0.552012 0.574910 0.154645
C34   C     C_3   0.879693 0.500061 0.503444 -0.216562
H1    H     H_    0.878756 0.372393 0.464088 0.172137
H2    H     H_    0.386272 0.392384 0.262201 0.178155
H3    H     H_    0.334190 0.393671 0.120099 0.167073
H4    H     H_    0.412770 0.342162 0.893686 0.168630
H5    H     H_    0.473902 0.643283 0.092220 0.190233
H6    H     H_    0.387958 0.290375 0.377846 0.165791
H7    H     H_    0.113917 0.371992 0.548662 0.221142
H8    H     H_    0.905323 0.487325 0.377387 0.124907
N1    N     N_2   0.455257 0.462770 0.989861 -0.167988
N2    N     N_2   0.389688 0.516885 0.014486 -0.168311
N3    N     N_R   0.515460 0.716920 0.509720 -0.148014
N4    N     N_2   0.538625 0.981480 0.504232 -0.098044
N5    N     N_2   0.446603 0.021028 0.477289 -0.080342
N6    N     N_R   0.484530 0.283060 0.490290 -0.141376
O1    O     O_R   0.494470 0.422540 0.612660 -0.579654
O2    O     O_R   0.504400 0.561840 0.618900 -0.635010
O3    O     O_R   0.680240 0.430340 0.496890 -0.590622
O4    O     O_R   0.690170 0.569650 0.503130 -0.555450
O5    O     O_R   0.495600 0.438160 0.381100 -0.638960
O6    O     O_R   0.505530 0.577460 0.387340 -0.592781
O7    O     O_R   0.309830 0.430350 0.496870 -0.626095
O8    O     O_R   0.319760 0.569660 0.503110 -0.620179
Zn1   Zn    Zn3+2 0.493370 0.406980 0.495830 1.014390
Zn2   Zn    Zn3+2 0.506630 0.593020 0.504170 1.032821
C35   C     C_1   0.149395 0.616151 0.602839 0.324708
N7    N     N_1   0.200896 0.676945 0.619043 -0.117494
Br1   Br    Br    0.829627 0.625767 0.364707 -0.269630
Br2   Br    Br    0.105255 0.672873 0.426432 -0.324822
C36   C     C_1   0.389111 0.335103 0.738111 0.310819
N8    N     N_1   0.348253 0.278583 0.705524 -0.128584
Br3   Br    Br    0.581741 0.684838 0.244625 -0.364876
C37   C     C_1   0.523582 0.619052 0.911091 0.230519
N9    N     N_1   0.554767 0.676599 0.945611 -0.149122
Br4   Br    Br    0.897327 0.344796 0.609490 -0.402243
C38   C     C_1   0.444980 0.636121 0.748645 0.235656
N10   N     N_1   0.420840 0.701585 0.722500 -0.172776
Br5   Br    Br    0.621440 0.273906 0.641698 -0.323877
Br6   Br    Br    0.541803 0.078691 0.649205 -0.373687
C39   C     C_1   0.669553 0.886072 0.624161 0.315142
N11   N     N_1   0.732381 0.918324 0.671508 -0.089941
C40   C     C_1   0.645933 0.710659 0.631932 0.324238
N12   N     N_1   0.696289 0.674837 0.684925 -0.172184
Br7   Br    Br    0.388413 0.907736 0.349958 -0.384699
C41   C     C_1   0.353083 0.131233 0.348962 0.301138
N13   N     N_1   0.303685 0.106123 0.292170 -0.107639
C42   C     C_1   0.387547 0.722025 0.385769 0.456448
N14   N     N_1   0.333645 0.691868 0.333122 -0.080904
C43   C     C_1   0.093102 0.364380 0.427736 0.262031
N15   N     N_1   0.112808 0.328033 0.372504 -0.159977
Br8   Br    Br    0.132666 0.526122 0.324353 -0.466401
Br9   Br    Br    0.898727 0.670628 0.558930 -0.406059
C44   C     C_1   0.878487 0.529178 0.650748 0.279590
N16   N     N_1   0.832182 0.511484 0.709877 -0.129712
C45   C     C_1   0.119778 0.481721 0.651241 0.139709
N17   N     N_1   0.148423 0.437935 0.705328 -0.155200

loop_
_geom_bond_atom_site_label_1
_geom_bond_atom_site_label_2
_ccdc_geom_bond_type
C27   N6    A    
C6    C38   S    
C39   N11   T    
C10   C36   S    
C8    N1    S    
N1    N2    D    
C7    C8    A    
C31   C43   S    
C30   H1    S    
C2    C29   S    
C1    C5    S    
C24   C26   A    
C32   Br1   S    
O6    Zn2   S    
C5    C6    A    
C11   C14   A    
C15   C16   A    
C21   C39   S    
O1    Zn1   S    
C11   H3    S    
C18   C19   A    
C17   H5    S    
C19   Br7   S    
C33   Br9   S    
N4    N5    D    
C19   C20   A    
C8    C9    A    
C25   Br5   S    
C28   C41   S    
C1    O2    A    
C15   C23   S    
C37   N9    T    
C35   N7    T    
C21   C22   A    
C14   C17   A    
C38   N10   T    
C22   C40   S    
C12   O4    A    
C23   O5    A    
N3    Zn2   S    
C30   C34   S    
O2    Zn2   S    
N6    Zn1   S    
C24   C25   A    
C13   H2    S    
O5    Zn1   S    
C41   N13   T    
C16   C17   A    
C29   O7    A    
C2    C31   S    
C32   C34   S    
C2    C4    S    
C40   N12   T    
C27   H6    S    
C33   C34   S    
C20   C21   A    
C25   N6    A    
O4    Zn2   S    
C26   N5    S    
O3    Zn1   S    
O7    Zn1   S    
C12   C34   S    
C18   N3    A    
C3    Br8   S    
C12   O3    A    
C24   Br6   S    
C23   O6    A    
C14   N2    S    
C9    C10   A    
C3    Br2   S    
C4    C33   S    
C31   H7    S    
C44   N16   T    
C42   N14   T    
C6    C7    A    
C4    C45   S    
C29   O8    A    
C26   C28   A    
C13   C15   A    
C2    C3    S    
C5    C10   A    
C7    C37   S    
C11   C13   A    
C30   C31   S    
C4    C35   S    
C9    H4    S    
O8    Zn2   S    
C3    C32   S    
C30   Br4   S    
C36   N8    T    
C22   N3    A    
C45   N17   T    
C18   C42   S    
C43   N15   T    
C27   C28   A    
C32   H8    S    
C16   Br3   S    
C1    O1    A    
C33   C44   S    
C20   N4    S    
