data_mof_unit_27739.cif
_audit_creation_date              2012-12-10T17:50:42-0500
_audit_creation_method            fapswitch 2.2
_symmetry_space_group_name_H-M    P1
_symmetry_Int_Tables_number       1
_space_group_crystal_system       triclinic
_cell_length_a                    14.786751
_cell_length_b                    14.589699
_cell_length_c                    15.852679
_cell_angle_alpha                 75.043177
_cell_angle_beta                  103.027426
_cell_angle_gamma                 115.103487
_cell_volume                      2965.62271513

loop_
_atom_site_label
_atom_site_type_symbol
_atom_type_description
_atom_site_fract_x
_atom_site_fract_y
_atom_site_fract_z
_atom_type_partial_charge
C1    C     C_R   0.879945 0.311059 0.511019 0.845476
C2    C     C_R   0.119343 0.688536 0.489381 0.837907
C3    C     C_R   0.771368 0.017486 0.554970 0.591664
C4    C     C_R   0.216967 0.980080 0.435912 0.607686
C5    C     C_R   0.838189 0.118929 0.555113 0.472087
C6    C     C_R   0.150288 0.877140 0.448045 0.463115
C7    C     C_R   0.711400 0.177849 0.462469 0.016097
C8    C     C_R   0.289258 0.826392 0.520776 0.009068
C9    C     C_R   0.636700 0.077215 0.485455 -0.049772
C10   C     C_R   0.358251 0.926015 0.487200 -0.061085
C11   C     C_R   0.669861 0.995342 0.522023 -0.246484
C12   C     C_R   0.321517 0.005498 0.453460 -0.241821
C13   C     C_R   0.531361 0.054409 0.475318 0.013150
C14   C     C_R   0.462325 0.949977 0.489379 0.017035
C15   C     C_R   0.498738 0.872055 0.502836 -0.255037
C16   C     C_R   0.493341 0.131910 0.458344 -0.280327
C17   C     C_R   0.600689 0.893204 0.525030 0.652661
C18   C     C_R   0.390158 0.108478 0.442034 0.675503
C19   C     C_R   0.732500 0.694305 0.369125 -0.015645
C20   C     C_R   0.311132 0.382941 0.681191 -0.013090
C21   C     C_R   0.795734 0.641801 0.374131 0.207771
C22   C     C_R   0.214921 0.377905 0.637749 0.107198
C23   C     C_R   0.999778 0.499450 0.660092 0.800509
C24   C     C_R   0.999175 0.499109 0.339952 0.804976
C25   C     C_R   0.720070 0.517793 0.495534 0.713419
C26   C     C_R   0.286338 0.493384 0.511725 0.736760
C27   C     C_R   0.640996 0.555578 0.481077 -0.181174
C28   C     C_R   0.382728 0.486223 0.546382 -0.190729
C29   C     C_R   0.646681 0.643141 0.414034 -0.073270
C30   C     C_R   0.391824 0.424725 0.630729 -0.070954
C31   C     C_R   0.557057 0.511002 0.530970 0.032692
C32   C     C_R   0.470998 0.538443 0.501664 0.018937
C33   C     C_R   0.479681 0.623177 0.433605 -0.148684
C34   C     C_R   0.559697 0.446238 0.612727 -0.166030
C35   C     C_R   0.565002 0.675513 0.392033 0.612814
C36   C     C_R   0.480698 0.405037 0.661800 0.584319
C37   C     C_3   0.982752 0.400862 0.049405 -0.235683
C38   C     C_3   0.001289 0.587082 0.949530 -0.238522
C39   C     C_3   0.905855 0.421592 0.970577 0.105548
C40   C     C_3   0.078257 0.566481 0.028175 0.106983
C41   C     C_1   0.998096 0.496509 0.749996 -0.166437
C42   C     C_1   0.996488 0.497140 0.250144 -0.147357
C43   C     C_3   0.070094 0.472444 0.994850 0.114757
C44   C     C_3   0.913921 0.515568 0.004101 0.110939
C45   C     C_3   0.993209 0.492377 0.917031 0.065537
C46   C     C_3   0.991118 0.495754 0.082007 0.066919
C47   C     C_1   0.995838 0.494044 0.825560 -0.069929
C48   C     C_1   0.993289 0.496116 0.174171 -0.078851
C49   C     C_R   0.810031 0.201288 0.509623 -0.296379
C50   C     C_R   0.186460 0.798688 0.486162 -0.297224
Cu1   Cu    Cu3+1 0.081740 0.475690 0.522610 0.993478
Cu2   Cu    Cu3+1 0.918260 0.524310 0.477390 1.007300
H1    H     H_    0.424456 0.656976 0.414906 0.217798
H2    H     H_    0.625790 0.431781 0.644915 0.228779
H3    H     H_    0.974901 0.324887 0.091593 0.145862
H4    H     H_    0.008725 0.662924 0.907258 0.152052
H5    H     H_    0.448579 0.793749 0.498253 0.167069
H6    H     H_    0.542316 0.211212 0.459079 0.191492
N1    N     N_R   0.795440 0.560790 0.443380 -0.237240
N2    N     N_R   0.204560 0.439210 0.556620 -0.233365
O1    O     O_R   0.977900 0.338120 0.529810 -0.569276
O2    O     O_R   0.022100 0.661880 0.470190 -0.534829
O3    O     O_R   0.839850 0.379180 0.491620 -0.532092
O4    O     O_R   0.160150 0.620820 0.508380 -0.561578
O5    O     O_R   0.069010 0.479460 0.640020 -0.617056
O6    O     O_R   0.930990 0.520540 0.359980 -0.623995
O7    O     O_R   0.930960 0.520530 0.601820 -0.515743
O8    O     O_R   0.069040 0.479470 0.398180 -0.495234
C51   C     C_3   0.812028 0.336806 0.934113 -0.387843
C52   C     C_3   0.739261 0.275064 0.002606 -0.376321
C53   C     C_3   0.645864 0.191524 0.964847 -0.805109
H7    H     H_    0.604993 0.226616 0.907204 0.281780
H8    H     H_    0.667439 0.137118 0.944259 0.256485
H9    H     H_    0.594618 0.147877 0.015788 0.236823
H10   H     H_    0.777494 0.238382 0.061354 0.225258
H11   H     H_    0.714937 0.326767 0.023899 0.224931
H12   H     H_    0.773843 0.372041 0.874440 0.211679
H13   H     H_    0.836493 0.284202 0.913998 0.200468
C54   C     C_3   0.171698 0.652666 0.063525 -0.391417
C55   C     C_3   0.244843 0.713030 0.995109 -0.368617
C56   C     C_3   0.333926 0.802813 0.029392 -0.800960
H14   H     H_    0.307350 0.857206 0.043741 0.254165
H15   H     H_    0.375890 0.774124 0.090306 0.270987
H16   H     H_    0.385848 0.844722 0.978776 0.239290
H17   H     H_    0.274281 0.661851 0.979450 0.221964
H18   H     H_    0.205244 0.743616 0.933477 0.225287
H19   H     H_    0.146319 0.705805 0.081705 0.204022
H20   H     H_    0.210119 0.619354 0.124229 0.209649
F1    F     F_    0.270159 0.546781 0.430351 -0.670337
F2    F     F_    0.717995 0.432083 0.555164 -0.673912
C57   C     C_3   0.127989 0.278773 0.665048 -0.260174
C58   C     C_3   0.066945 0.282905 0.730351 -0.283908
C59   C     C_3   0.033876 0.183742 0.798814 -0.833633
H21   H     H_    0.987096 0.116580 0.766186 0.319374
H22   H     H_    0.100248 0.170652 0.840005 0.234463
H23   H     H_    0.988466 0.189869 0.842595 0.231309
H24   H     H_    0.111762 0.348113 0.765903 0.200970
H25   H     H_    0.997503 0.293218 0.694331 0.251103
H26   H     H_    0.082431 0.254762 0.604130 0.280639
H27   H     H_    0.156158 0.216003 0.693245 0.184994
C60   C     C_3   0.830576 0.652456 0.286733 -0.364857
C61   C     C_3   0.939554 0.729501 0.273803 -0.241752
C62   C     C_3   0.958573 0.748677 0.178967 -0.936856
H28   H     H_    0.951098 0.676162 0.162802 0.259037
H29   H     H_    0.904529 0.778489 0.132553 0.260367
H30   H     H_    0.036313 0.806244 0.171146 0.257439
H31   H     H_    0.955739 0.804444 0.290118 0.260528
H32   H     H_    0.996049 0.701577 0.315792 0.254498
H33   H     H_    0.814103 0.575951 0.273205 0.206298
H34   H     H_    0.779467 0.677732 0.231828 0.158701
C63   C     C_3   0.757686 0.803659 0.315137 -0.350217
C64   C     C_3   0.782326 0.882340 0.374032 -0.195405
C65   C     C_3   0.799770 0.989859 0.319645 -0.827054
H35   H     H_    0.863799 0.016559 0.281659 0.266072
H36   H     H_    0.730909 0.989393 0.273431 0.256940
H37   H     H_    0.817703 0.044656 0.364132 0.241739
H38   H     H_    0.720486 0.859880 0.413185 0.281418
H39   H     H_    0.851402 0.885124 0.420977 0.270444
H40   H     H_    0.824118 0.830206 0.281540 0.184754
H41   H     H_    0.697501 0.806746 0.259785 0.248476
C66   C     C_3   0.324069 0.338984 0.779888 -0.313311
C67   C     C_3   0.400734 0.420624 0.833706 -0.293684
C68   C     C_3   0.441627 0.369998 0.921953 -0.817895
H42   H     H_    0.378883 0.309999 0.957202 0.244748
H43   H     H_    0.489918 0.333848 0.911501 0.291059
H44   H     H_    0.487631 0.428830 0.963584 0.231324
H45   H     H_    0.465363 0.474938 0.798002 0.239955
H46   H     H_    0.363166 0.467043 0.845743 0.187788
H47   H     H_    0.253288 0.309629 0.808416 0.169110
H48   H     H_    0.342332 0.270173 0.790790 0.257240
C69   C     C_3   0.830427 0.547277 0.012336 -0.433631
C70   C     C_3   0.761383 0.556141 0.925188 -0.324244
C71   C     C_3   0.694068 0.609672 0.929861 -0.815151
H49   H     H_    0.650336 0.568949 0.986333 0.243261
H50   H     H_    0.740490 0.690706 0.937815 0.257296
H51   H     H_    0.640701 0.609643 0.868088 0.252017
H52   H     H_    0.807091 0.600902 0.870367 0.236447
H53   H     H_    0.712499 0.478324 0.910510 0.231170
H54   H     H_    0.785441 0.491071 0.064468 0.188871
H55   H     H_    0.867056 0.623340 0.032921 0.209542
C72   C     C_3   0.153663 0.441468 0.985767 -0.430998
C73   C     C_3   0.215678 0.422280 0.074962 -0.316427
C74   C     C_3   0.295358 0.386526 0.065806 -0.825507
H56   H     H_    0.258993 0.313333 0.040144 0.253292
H57   H     H_    0.347716 0.446319 0.020396 0.251302
H58   H     H_    0.339302 0.373333 0.131175 0.262926
H59   H     H_    0.254185 0.494117 0.102363 0.228024
H60   H     H_    0.165467 0.362417 0.122089 0.236938
H61   H     H_    0.118059 0.369843 0.957628 0.202837
H62   H     H_    0.203078 0.502471 0.938800 0.187951
F3    F     F_    0.630834 0.813113 0.549918 -0.642675
F4    F     F_    0.358230 0.187272 0.419351 -0.603107
C75   C     C_3   0.316866 0.761963 0.608134 -0.322908
C76   C     C_3   0.377187 0.826579 0.680072 -0.338389
C77   C     C_3   0.389537 0.757969 0.769058 -0.860469
H63   H     H_    0.314794 0.706848 0.790704 0.244053
H64   H     H_    0.429349 0.710063 0.764495 0.259217
H65   H     H_    0.434442 0.806670 0.819284 0.250928
H66   H     H_    0.453353 0.879312 0.662871 0.237177
H67   H     H_    0.337384 0.873710 0.686523 0.228214
H68   H     H_    0.246924 0.704712 0.635302 0.199098
H69   H     H_    0.356118 0.715842 0.599466 0.195404
C78   C     C_3   0.697092 0.249011 0.374928 -0.323090
C79   C     C_3   0.643549 0.191170 0.297689 -0.347775
C80   C     C_3   0.645315 0.266074 0.210063 -0.875943
H70   H     H_    0.607988 0.317570 0.211321 0.261785
H71   H     H_    0.724165 0.313486 0.196618 0.245553
H72   H     H_    0.604341 0.222212 0.155956 0.252524
H73   H     H_    0.681694 0.141013 0.294690 0.224079
H74   H     H_    0.563795 0.141992 0.306450 0.239197
H75   H     H_    0.659144 0.297816 0.380524 0.205565
H76   H     H_    0.772096 0.303886 0.355859 0.192673
F5    F     F_    0.050136 0.855251 0.427292 -0.650552
F6    F     F_    0.930392 0.134286 0.599577 -0.668051
F7    F     F_    0.804926 0.941143 0.594264 -0.575320
F8    F     F_    0.178833 0.053985 0.403271 -0.566540
F9    F     F_    0.562316 0.755777 0.326931 -0.704548
F10   F     F_    0.492696 0.341706 0.738852 -0.702790

loop_
_geom_bond_atom_site_label_1
_geom_bond_atom_site_label_2
_ccdc_geom_bond_type
C35   F9    S    
C74   H58   S    
C38   C40   S    
C80   H70   S    
C27   C29   A    
C24   C42   S    
C5    F6    S    
C51   H12   S    
C78   C79   S    
Cu1   O1    S    
C3    C11   A    
C66   H48   S    
C54   H19   S    
C56   H14   S    
C51   H13   S    
C72   H61   S    
C68   H42   S    
C20   C30   A    
C44   C69   S    
C40   C46   S    
C25   F2    S    
C59   H21   S    
C79   C80   S    
C19   C21   A    
C21   N1    A    
C51   C52   S    
C22   N2    A    
C64   H38   S    
C68   H43   S    
C77   H64   S    
C60   H33   S    
C74   H56   S    
C63   H40   S    
Cu1   O5    S    
C23   O7    A    
C67   H45   S    
C9    C13   A    
C64   C65   S    
C38   C45   S    
C55   H18   S    
C69   H55   S    
C2    C50   S    
C56   H15   S    
C79   H74   S    
C40   C43   S    
C63   C64   S    
C44   C46   S    
C70   C71   S    
C1    C49   S    
C58   H24   S    
C71   H51   S    
C22   C57   S    
C61   H32   S    
C52   C53   S    
C57   H27   S    
C4    C12   A    
C78   H75   S    
C37   C46   S    
C24   O6    A    
C39   C45   S    
C65   H37   S    
C21   C60   S    
C59   H22   S    
C13   C14   A    
C77   H65   S    
C15   H5    S    
C5    C49   A    
C79   H73   S    
C17   F3    S    
C18   F4    S    
C1    O3    A    
C54   H20   S    
C41   C47   T    
C2    O4    A    
C72   H62   S    
C77   H63   S    
C38   C44   S    
C67   C68   S    
C45   C47   S    
C33   H1    S    
C46   C48   S    
C40   C54   S    
C27   C31   A    
Cu1   Cu2   S    
C60   C61   S    
C73   H60   S    
C28   C32   A    
C36   F10   S    
C7    C49   A    
C4    C6    A    
C10   C14   A    
C57   C58   S    
C53   H8    S    
C24   O8    A    
C68   H44   S    
C42   C48   T    
C70   H52   S    
C7    C78   S    
C75   H68   S    
C63   H41   S    
C26   F1    S    
C37   C43   S    
C76   H67   S    
C55   H17   S    
C8    C75   S    
Cu2   N1    S    
C43   C45   S    
C31   C32   A    
C39   C51   S    
C31   C34   A    
C61   H31   S    
C62   H29   S    
C16   C18   A    
C16   H6    S    
C6    C50   A    
C78   H76   S    
C9    C11   A    
C76   C77   S    
C66   C67   S    
Cu2   O7    S    
C10   C12   A    
C8    C10   A    
C80   H72   S    
C20   C22   A    
C34   H2    S    
C59   H23   S    
C52   H11   S    
C71   H49   S    
C43   C72   S    
C69   C70   S    
C19   C29   A    
C8    C50   A    
C52   H10   S    
C56   H16   S    
Cu2   O6    S    
C20   C66   S    
C65   H35   S    
C3    F7    S    
C74   H57   S    
C11   C17   A    
C73   C74   S    
C73   H59   S    
Cu1   O4    S    
C66   H47   S    
C55   C56   S    
C3    C5    A    
Cu2   O3    S    
C1    O1    A    
C53   H9    S    
C15   C17   A    
C39   C44   S    
C6    F5    S    
C19   C63   S    
C25   C27   A    
C29   C35   A    
C26   C28   A    
C23   C41   S    
C30   C36   A    
C75   H69   S    
C32   C33   A    
C23   O5    A    
C28   C30   A    
C60   H34   S    
C76   H66   S    
C37   C39   S    
Cu2   O2    S    
C72   C73   S    
C64   H39   S    
C26   N2    A    
C58   C59   S    
C33   C35   A    
C62   H30   S    
C34   C36   A    
Cu1   O8    S    
C67   H46   S    
C61   C62   S    
C69   H54   S    
C58   H25   S    
C54   C55   S    
C37   H3    S    
C7    C9    A    
C53   H7    S    
C38   H4    S    
C80   H71   S    
C4    F8    S    
C13   C16   A    
C12   C18   A    
C62   H28   S    
C71   H50   S    
C14   C15   A    
Cu1   N2    S    
C25   N1    A    
C57   H26   S    
C75   C76   S    
C70   H53   S    
C2    O2    A    
C65   H36   S    
