data_mof_unit_22683.cif
_audit_creation_date              2012-12-10T19:09:04-0500
_audit_creation_method            fapswitch 2.2
_symmetry_space_group_name_H-M    P1
_symmetry_Int_Tables_number       1
_space_group_crystal_system       triclinic
_cell_length_a                    17.663433
_cell_length_b                    10.854816
_cell_length_c                    9.588161
_cell_angle_alpha                 89.780649
_cell_angle_beta                  89.416343
_cell_angle_gamma                 91.850681
_cell_volume                      1837.29974432

loop_
_atom_site_label
_atom_site_type_symbol
_atom_type_description
_atom_site_fract_x
_atom_site_fract_y
_atom_site_fract_z
_atom_type_partial_charge
C1    C     C_R   0.499032 0.262652 0.500217 0.816544
C2    C     C_R   0.884101 0.440165 0.516375 -0.006802
C3    C     C_1   0.965166 0.436871 0.522315 -0.040005
C4    C     C_1   0.033179 0.440760 0.521385 -0.067416
C5    C     C_R   0.154992 0.461171 0.639701 -0.163110
C6    C     C_R   0.233529 0.477979 0.634424 -0.202290
C7    C     C_R   0.272082 0.485110 0.505209 -0.028282
C8    C     C_R   0.230414 0.475477 0.381458 -0.180887
C9    C     C_R   0.151724 0.458953 0.387085 -0.159658
C10   C     C_R   0.114107 0.451544 0.516159 0.150815
C11   C     C_R   0.494442 0.064120 0.626270 -0.013525
C12   C     C_R   0.355424 0.497027 0.501041 0.785548
C13   C     C_R   0.498241 0.129482 0.500448 -0.034593
C14   C     C_R   0.496362 0.064886 0.374526 -0.223318
C15   C     C_R   0.490375 0.937315 0.375692 -0.223696
C16   C     C_R   0.491335 0.871136 0.501336 -0.144416
C17   C     C_R   0.491608 0.935877 0.627436 0.077695
C18   C     C_3   0.429563 0.934544 0.735855 0.135232
C19   C     C_3   0.435186 0.074141 0.737408 0.247732
C20   C     C_R   0.559489 0.552405 0.071893 0.070750
C21   C     C_R   0.444068 0.439221 0.073139 0.433427
C22   C     C_R   0.443766 0.442387 0.925570 -0.085200
C23   C     C_R   0.496074 0.737401 0.500206 0.804998
C24   C     C_R   0.560825 0.547831 0.924351 0.119210
C25   C     C_3   0.592439 0.675265 0.908035 0.071949
C26   C     C_3   0.583144 0.687068 0.065484 0.737125
C27   C     C_R   0.644627 0.495729 0.499445 0.848024
C28   C     C_R   0.836477 0.403398 0.628891 0.421029
C29   C     C_R   0.759083 0.424584 0.620541 -0.253112
C30   C     C_R   0.727489 0.476932 0.500562 -0.194290
C31   C     C_R   0.774638 0.504614 0.383662 0.437282
C32   C     C_R   0.853280 0.489684 0.396122 -0.320654
Cu1   Cu    Cu3+1 0.500000 0.499980 0.640670 0.962926
Cu2   Cu    Cu3+1 0.500000 0.500020 0.359330 0.986717
H1    H     H_    0.483680 0.891336 0.277993 0.233275
H2    H     H_    0.375127 0.893159 0.697499 0.123992
H3    H     H_    0.460065 0.116998 0.832837 0.102861
H4    H     H_    0.397795 0.397247 0.870098 0.150953
H5    H     H_    0.556796 0.736510 0.845591 0.178287
H6    H     H_    0.723241 0.398410 0.708888 0.198361
H7    H     H_    0.891720 0.518194 0.312907 0.154429
H8    H     H_    0.126159 0.456476 0.739982 0.129167
H9    H     H_    0.263970 0.484819 0.731706 0.146967
H10   H     H_    0.258486 0.480300 0.280583 0.185923
H11   H     H_    0.120188 0.452604 0.290885 0.132722
H12   H     H_    0.496504 0.112550 0.275040 0.168037
N1    N     N_R   0.500470 0.500930 0.147930 -0.248211
N2    N     N_R   0.500480 0.500890 0.852020 -0.234548
O1    O     O_R   0.500000 0.319640 0.618810 -0.573077
O2    O     O_R   0.500010 0.319680 0.381230 -0.627307
O3    O     O_R   0.391250 0.499990 0.618840 -0.590794
O4    O     O_R   0.391260 0.500020 0.381250 -0.571685
O5    O     O_R   0.499990 0.680320 0.618770 -0.572279
O6    O     O_R   0.500000 0.680360 0.381190 -0.544391
O7    O     O_R   0.608740 0.499980 0.618750 -0.564412
O8    O     O_R   0.608750 0.500010 0.381160 -0.522890
O9    O     O_3   0.862429 0.348453 0.748749 -0.754153
H13   H     H_    0.917264 0.334059 0.739394 0.325819
O10   O     O_3   0.453007 0.884285 0.861861 -0.766421
H14   H     H_    0.409442 0.891295 0.927190 0.319875
O11   O     O_3   0.369450 0.128555 0.684916 -0.614330
C33   C     C_3   0.319576 0.161046 0.794262 0.061702
H15   H     H_    0.297628 0.252961 0.768316 0.171959
H16   H     H_    0.346682 0.170342 0.898436 0.132529
C34   C     C_3   0.252660 0.068277 0.803360 -0.353709
H17   H     H_    0.226800 0.057337 0.698737 0.236402
H18   H     H_    0.272862 0.977381 0.837899 0.199339
C35   C     C_3   0.192533 0.110682 0.906387 -0.894304
H19   H     H_    0.216980 0.121241 0.012136 0.263018
H20   H     H_    0.145085 0.041134 0.911643 0.255431
H21   H     H_    0.169902 0.200104 0.872192 0.254068
O12   O     O_3   0.384950 0.374888 0.136587 -0.766945
H22   H     H_    0.404237 0.337107 0.221806 0.366625
O13   O     O_3   0.668366 0.673113 0.863950 -0.724555
H23   H     H_    0.678765 0.750742 0.811308 0.319092
O14   O     O_3   0.652301 0.711264 0.135856 -0.558946
C36   C     C_3   0.662777 0.835059 0.180111 0.164187
H24   H     H_    0.715057 0.839542 0.243564 0.146029
H25   H     H_    0.616764 0.862283 0.251626 0.175190
C37   C     C_3   0.673528 0.926495 0.058110 -0.397977
H26   H     H_    0.722478 0.899630 0.992645 0.217758
H27   H     H_    0.622206 0.925976 0.992200 0.251878
C38   C     C_3   0.688091 0.057473 0.111022 -0.903668
H28   H     H_    0.639349 0.087237 0.175292 0.259262
H29   H     H_    0.695548 0.121561 0.021012 0.265400
H30   H     H_    0.740294 0.062452 0.174657 0.254479
O15   O     O_3   0.523743 0.764125 0.103358 -0.786388
H31   H     H_    0.475749 0.731205 0.062738 0.311411
O16   O     O_3   0.743346 0.558333 0.266409 -0.575412
C39   C     C_3   0.777366 0.522281 0.138756 0.150265
H32   H     H_    0.731021 0.500475 0.064485 0.198016
H33   H     H_    0.809894 0.436199 0.146218 0.105635
C40   C     C_3   0.826214 0.629385 0.077403 -0.353081
H34   H     H_    0.790493 0.709426 0.057383 0.263441
H35   H     H_    0.870555 0.659957 0.151790 0.195209
C41   C     C_3   0.863919 0.593515 0.940590 -0.843612
H36   H     H_    0.900925 0.514069 0.957062 0.265395
H37   H     H_    0.899157 0.672466 0.899807 0.242627
H38   H     H_    0.820092 0.569313 0.862381 0.300330

loop_
_geom_bond_atom_site_label_1
_geom_bond_atom_site_label_2
_ccdc_geom_bond_type
Cu1   O7    S    
C22   N2    A    
O15   H31   S    
Cu2   O8    S    
C40   H34   S    
C5    H8    S    
C39   H32   S    
C7    C8    A    
C14   H12   S    
C28   O9    S    
C9    H11   S    
C11   C19   S    
C29   C30   A    
C23   O6    A    
C28   C29   A    
C25   O13   S    
C30   C31   A    
C37   H26   S    
C27   O7    A    
Cu1   O1    S    
C15   C16   A    
C22   H4    S    
C41   H38   S    
C2    C32   A    
C18   C19   S    
C26   O15   S    
C33   H16   S    
C19   H3    S    
C35   H19   S    
C31   C32   A    
C8    C9    A    
C34   H18   S    
C41   H37   S    
C26   O14   S    
C32   H7    S    
C1    O2    A    
O10   H14   S    
C40   H35   S    
C13   C14   A    
C27   C30   S    
C37   C38   S    
C15   H1    S    
C12   O4    A    
C23   O5    A    
C36   H25   S    
Cu1   O5    S    
C7    C12   S    
Cu2   O2    S    
O13   H23   S    
C21   O12   S    
C24   N2    A    
C20   C24   A    
O14   C36   S    
C37   H27   S    
C27   O8    A    
C16   C17   A    
C31   O16   S    
C25   C26   S    
C36   H24   S    
C33   H15   S    
C39   H33   S    
C38   H28   S    
C34   C35   S    
C41   H36   S    
C17   C18   S    
C24   C25   S    
C38   H29   S    
C40   C41   S    
Cu2   O6    S    
C16   C23   S    
C6    H9    S    
C1    C13   S    
C4    C10   S    
C3    C4    T    
C12   O3    A    
C39   C40   S    
C9    C10   A    
C36   C37   S    
C11   C17   A    
C33   C34   S    
C8    H10   S    
O12   H22   S    
C6    C7    A    
Cu1   O3    S    
Cu2   O4    S    
C2    C3    S    
C5    C10   A    
C25   H5    S    
C11   C13   A    
O9    H13   S    
C5    C6    A    
C20   C26   S    
C19   O11   S    
C35   H21   S    
C29   H6    S    
C1    O1    A    
Cu1   Cu2   S    
O11   C33   S    
C20   N1    A    
C18   O10   S    
C38   H30   S    
C35   H20   S    
C34   H17   S    
Cu1   N2    S    
C14   C15   A    
C2    C28   A    
Cu2   N1    S    
O16   C39   S    
C21   C22   A    
C18   H2    S    
C21   N1    A    
