data_mof_unit_5500.cif
_audit_creation_date              2012-12-11T14:49:36-0500
_audit_creation_method            fapswitch 2.2
_symmetry_space_group_name_H-M    P1
_symmetry_Int_Tables_number       1
_space_group_crystal_system       triclinic
_cell_length_a                    16.855381
_cell_length_b                    16.710016
_cell_length_c                    19.453036
_cell_angle_alpha                 117.449111
_cell_angle_beta                  62.466778
_cell_angle_gamma                 100.751995
_cell_volume                      4309.06636268

loop_
_atom_site_label
_atom_site_type_symbol
_atom_type_description
_atom_site_fract_x
_atom_site_fract_y
_atom_site_fract_z
_atom_type_partial_charge
C1    C     C_R   0.065527 0.748499 0.985358 -0.138914
C2    C     C_R   0.251759 0.521285 0.827834 -0.133449
C3    C     C_R   0.183625 0.489316 0.087416 -0.141778
C4    C     C_R   0.763387 0.419758 0.164456 -0.148635
C5    C     C_R   0.992378 0.338816 0.757988 -0.161259
C6    C     C_R   0.258194 0.539584 0.064610 0.111933
C7    C     C_R   0.949503 0.259074 0.755135 0.081222
C8    C     C_R   0.257989 0.460974 0.746606 0.075269
C9    C     C_R   0.010025 0.224959 0.021864 0.051393
C10   C     C_R   0.962252 0.203677 0.609586 -0.232310
C11   C     C_R   0.922347 0.196868 0.687563 0.106158
C12   C     C_R   0.765744 0.439495 0.240813 0.086906
C13   C     C_R   0.861186 0.129081 0.698012 -0.242815
C14   C     C_R   0.845258 0.064361 0.628432 0.182298
C15   C     C_R   0.889713 0.069332 0.548732 -0.030611
C16   C     C_R   0.806228 0.564726 0.964639 -0.125303
C17   C     C_R   0.947317 0.140518 0.539834 -0.038515
C18   C     C_R   0.791435 0.990932 0.635167 -0.235816
C19   C     C_R   0.789349 0.918307 0.561609 -0.213118
C20   C     C_R   0.838864 0.919948 0.481247 0.159482
C21   C     C_R   0.884299 0.998236 0.475823 0.026665
C22   C     C_R   0.931927 0.001645 0.395826 0.085408
C23   C     C_R   0.724555 0.552771 0.025102 0.055767
C24   C     C_R   0.981675 0.076657 0.389464 -0.393604
C25   C     C_R   0.995398 0.142945 0.459437 0.574537
C26   C     C_R   0.852589 0.841821 0.405501 -0.266903
C27   C     C_R   0.911093 0.842658 0.325800 0.107078
C28   C     C_R   0.949372 0.673425 0.247139 -0.129829
C29   C     C_R   0.940521 0.925016 0.321583 -0.216175
C30   C     C_R   0.423723 0.435550 0.671042 -0.259107
C31   C     C_R   0.339983 0.417504 0.668700 0.113510
C32   C     C_R   0.335621 0.366838 0.589585 -0.254802
C33   C     C_R   0.412511 0.348977 0.513335 0.147739
C34   C     C_R   0.955543 0.758966 0.250289 0.069883
C35   C     C_R   0.495452 0.377689 0.516229 0.024938
C36   C     C_R   0.501747 0.417008 0.595040 0.140528
C37   C     C_R   0.406095 0.311805 0.435277 -0.212654
C38   C     C_R   0.480126 0.309407 0.361316 -0.209035
C39   C     C_R   0.560804 0.345095 0.365250 0.146266
C40   C     C_R   0.738812 0.485263 0.041201 -0.126379
C41   C     C_R   0.569884 0.375732 0.441906 0.027175
C42   C     C_R   0.650527 0.412851 0.446514 0.142046
C43   C     C_R   0.658715 0.443565 0.523209 -0.204979
C44   C     C_R   0.584520 0.445655 0.597279 -0.203698
C45   C     C_R   0.250628 0.568791 0.011800 -0.151450
C46   C     C_R   0.629141 0.358995 0.296556 -0.262500
C47   C     C_R   0.705334 0.405324 0.304287 0.111830
C48   C     C_R   0.718380 0.426396 0.377049 -0.261702
C49   C     C_R   0.638007 0.597263 0.060875 0.116242
C50   C     C_R   0.325222 0.567513 0.099039 0.081487
C51   C     C_R   0.403070 0.540159 0.165199 0.537380
C52   C     C_R   0.018203 0.751690 0.169641 -0.136010
C53   C     C_R   0.328560 0.529132 0.148476 -0.350906
C54   C     C_R   0.392238 0.625682 0.074797 -0.285853
C55   C     C_R   0.470062 0.630696 0.084055 0.133926
C56   C     C_R   0.926576 0.258274 0.833000 -0.119300
C57   C     C_R   0.477401 0.583861 0.125640 0.011895
C58   C     C_R   0.561377 0.572360 0.117720 -0.237830
C59   C     C_R   0.628865 0.653497 0.029040 -0.166368
C60   C     C_R   0.544565 0.671846 0.042310 -0.181172
C61   C     C_R   0.167126 0.073629 0.793571 0.053489
C62   C     C_R   0.063547 0.819674 0.890437 0.061026
C63   C     C_R   0.075087 0.847098 0.772852 -0.229740
C64   C     C_R   0.841807 0.488466 0.240458 -0.148287
C65   C     C_R   0.053725 0.791894 0.814544 -0.181749
C66   C     C_R   0.101658 0.905035 0.920945 -0.068694
C67   C     C_R   0.171993 0.452402 0.751802 -0.128273
C68   C     C_R   0.125144 0.961145 0.877306 0.116966
C69   C     C_R   0.108075 0.933240 0.804557 0.109832
C70   C     C_R   0.126712 0.991744 0.764326 -0.066109
C71   C     C_R   0.187347 0.099587 0.862326 -0.172895
C72   C     C_R   0.165023 0.045278 0.905112 -0.219652
C73   C     C_R   0.983751 0.680924 0.913636 -0.137172
C74   C     C_R   0.033600 0.757331 0.934163 0.064029
C75   C     C_3   0.145829 0.169251 0.399740 0.177568
C76   C     C_3   0.180028 0.156457 0.454949 -0.335798
C77   C     C_3   0.270066 0.104728 0.399807 -1.012761
C78   C     C_R   0.040646 0.309024 0.062386 -0.128264
C79   C     C_3   0.355630 0.536421 0.294685 0.171518
C80   C     C_3   0.407884 0.608958 0.339766 -0.317489
C81   C     C_3   0.353161 0.651324 0.437062 -0.982633
C82   C     C_R   0.101082 0.973401 0.695063 0.136780
C83   C     C_R   0.163823 0.981882 0.619948 -0.130871
C84   C     C_R   0.138402 0.969484 0.556736 -0.131360
C85   C     C_R   0.050304 0.948658 0.567916 -0.073645
C86   C     C_R   0.987434 0.940637 0.642523 -0.104458
C87   C     C_R   0.012194 0.954155 0.706361 -0.185671
C88   C     C_R   0.113673 0.939113 0.000036 0.118139
C89   C     C_R   0.961882 0.240239 0.986675 -0.111009
C90   C     C_R   0.042687 0.985658 0.079704 -0.137191
C91   C     C_R   0.056746 0.028069 0.153738 -0.139612
C92   C     C_R   0.141359 0.022986 0.148720 -0.095715
C93   C     C_R   0.212104 0.975753 0.069494 -0.113029
C94   C     C_R   0.198725 0.934680 0.994990 -0.194897
H1    H     H_    0.119597 0.784822 0.000231 0.116078
H2    H     H_    0.829301 0.123802 0.758412 0.112484
H3    H     H_    0.756163 0.986758 0.696142 0.128261
H4    H     H_    0.722237 0.371067 0.136690 0.090471
H5    H     H_    0.753025 0.859108 0.566933 0.131599
H6    H     H_    0.824836 0.779351 0.409339 0.121148
H7    H     H_    0.981361 0.927876 0.260672 0.126258
H8    H     H_    0.018024 0.079405 0.328347 0.144053
H9    H     H_    0.428426 0.470797 0.731594 0.119953
H10   H     H_    0.272116 0.348280 0.586308 0.115599
H11   H     H_    0.342387 0.290775 0.432753 0.139961
H12   H     H_    0.882176 0.212758 0.858001 0.084706
H13   H     H_    0.472580 0.285247 0.302579 0.131813
H14   H     H_    0.618667 0.340153 0.240305 0.121147
H15   H     H_    0.819990 0.611664 0.937107 0.092536
H16   H     H_    0.777934 0.459517 0.383036 0.117546
H17   H     H_    0.720777 0.471050 0.527210 0.130439
H18   H     H_    0.590504 0.474851 0.657235 0.130787
H19   H     H_    0.567361 0.534544 0.147644 0.158169
H20   H     H_    0.686551 0.677599 0.988447 0.111388
H21   H     H_    0.539188 0.709731 0.011904 0.117298
H22   H     H_    0.276746 0.485582 0.169652 0.140644
H23   H     H_    0.151166 0.411168 0.701587 0.094535
H24   H     H_    0.389426 0.659183 0.039882 0.124904
H25   H     H_    0.906943 0.653554 0.298042 0.096890
H26   H     H_    0.218347 0.163463 0.883997 0.136646
H27   H     H_    0.066588 0.820644 0.714465 0.142920
H28   H     H_    0.179775 0.070112 0.959905 0.152452
H29   H     H_    0.029892 0.726121 0.785262 0.122362
H30   H     H_    0.691031 0.457128 0.083894 0.099658
H31   H     H_    0.039664 0.803907 0.147559 0.107857
H32   H     H_    0.872132 0.503670 0.283180 0.087554
H33   H     H_    0.958978 0.657035 0.865559 0.084978
H34   H     H_    0.076360 0.323707 0.100669 0.098984
H35   H     H_    0.288954 0.619664 0.991496 0.087438
H36   H     H_    0.190703 0.215956 0.373391 0.124567
H37   H     H_    0.151774 0.104215 0.343162 0.090265
H38   H     H_    0.186920 0.223549 0.503271 0.194528
H39   H     H_    0.131907 0.117609 0.489467 0.203979
H40   H     H_    0.261587 0.034038 0.358141 0.265451
H41   H     H_    0.296937 0.103786 0.441898 0.275215
H42   H     H_    0.318988 0.136787 0.358526 0.266125
H43   H     H_    0.337060 0.484371 0.319543 0.137231
H44   H     H_    0.291424 0.565772 0.311202 0.085476
H45   H     H_    0.924235 0.190967 0.954573 0.094227
H46   H     H_    0.470936 0.578238 0.323504 0.211829
H47   H     H_    0.425465 0.662726 0.317087 0.194163
H48   H     H_    0.290370 0.683671 0.454863 0.264872
H49   H     H_    0.392694 0.703611 0.467723 0.271501
H50   H     H_    0.336369 0.599197 0.461640 0.266428
H51   H     H_    0.232327 0.998193 0.610412 0.112509
H52   H     H_    0.187013 0.976076 0.499100 0.123874
H53   H     H_    0.030697 0.939002 0.518946 0.109537
H54   H     H_    0.919284 0.924376 0.651259 0.117053
H55   H     H_    0.961958 0.950089 0.764777 0.114687
H56   H     H_    0.305227 0.543476 0.847606 0.096455
H57   H     H_    0.977443 0.991400 0.083956 0.115304
H58   H     H_    0.002090 0.066006 0.214462 0.118502
H59   H     H_    0.152801 0.056516 0.205735 0.091907
H60   H     H_    0.277632 0.972412 0.065642 0.109617
H61   H     H_    0.254435 0.900378 0.933414 0.121982
H62   H     H_    0.160511 0.466947 0.137391 0.088735
H63   H     H_    0.005592 0.370103 0.716152 0.094627
H64   H     H_    0.009854 0.255179 0.600862 0.160701
N1    N     N_R   0.036080 0.671900 0.995420 -0.041989
N2    N     N_R   0.867430 0.509300 0.948100 -0.039783
N3    N     N_R   0.003360 0.617250 0.167070 -0.040946
N4    N     N_R   0.825450 0.461270 0.995400 -0.041345
N5    N     N_R   0.045340 0.665280 0.119770 -0.040445
N6    N     N_R   0.883740 0.497640 0.167070 -0.037675
N7    N     N_R   0.987050 0.628910 0.948110 -0.038479
N8    N     N_R   0.174550 0.538730 0.004600 -0.039790
N9    N     N_R   0.954660 0.334720 0.880230 -0.040243
N10   N     N_R   0.116260 0.502360 0.832930 -0.040516
N11   N     N_R   0.012950 0.371090 0.051890 -0.040306
N12   N     N_R   0.963920 0.328100 0.004580 -0.042078
N13   N     N_R   0.165290 0.545350 0.880240 -0.040831
N14   N     N_R   0.132570 0.490700 0.051900 -0.040066
N15   N     N_R   0.996640 0.382750 0.832930 -0.037716
N16   N     N_R   0.834710 0.454650 0.119760 -0.038354
Ni1   Ni    Ni4+2 0.104370 0.604370 0.000010 0.210268
Ni2   Ni    Ni4+2 0.895630 0.395630 0.999990 0.211244
Ni3   Ni    Ni4+2 0.991920 0.505780 0.891500 0.212714
Ni4   Ni    Ni4+2 0.008080 0.494220 0.108500 0.209518
O1    O     O_3   0.057841 0.208598 0.449078 -0.669988
O2    O     O_3   0.409938 0.493166 0.205252 -0.672611

loop_
_geom_bond_atom_site_label_1
_geom_bond_atom_site_label_2
_ccdc_geom_bond_type
C67   N10   A    
C2    H56   S    
C66   C68   A    
C63   C65   A    
C45   H35   S    
C93   C94   A    
C6    C45   A    
C4    H4    S    
C16   N2    A    
N7    Ni3   S    
N11   N12   A    
C14   C18   A    
C48   H16   S    
C35   C36   A    
C64   N6    A    
C3    C6    A    
N5    Ni1   S    
C90   C91   A    
C39   C41   A    
C61   C70   A    
N12   Ni2   S    
C85   C86   A    
C7    C11   S    
C55   C60   A    
N8    Ni1   S    
C50   C54   A    
C81   H49   S    
C71   H26   S    
C83   C84   A    
C1    C74   A    
C52   H31   S    
C93   H60   S    
C22   C29   A    
C89   N12   A    
C66   C88   S    
C30   C31   A    
C12   C64   A    
C3    N14   A    
C23   C49   S    
C27   C29   A    
C10   C17   A    
N10   Ni3   S    
C18   C19   A    
C41   C42   A    
C38   H13   S    
C92   C93   A    
C34   C52   A    
N3    N5    A    
C83   H51   S    
C84   C85   A    
C81   H50   S    
C63   C69   A    
C68   C69   A    
C89   H45   S    
C46   H14   S    
C30   H9    S    
C28   N3    A    
C58   H19   S    
C32   H10   S    
N6    N16   A    
C92   H59   S    
C51   C57   A    
C18   H3    S    
C4    C12   A    
C75   O1    S    
C45   N8    A    
C10   H64   S    
C53   H22   S    
C68   C72   A    
C2    N13   A    
N9    N15   A    
C72   H28   S    
C61   C71   A    
C28   C34   A    
C59   C60   A    
C78   H34   S    
C4    N16   A    
C13   C14   A    
C43   H17   S    
C7    C56   A    
C12   C47   S    
C35   C41   A    
C63   H27   S    
C75   H37   S    
C16   H15   S    
N16   Ni2   S    
N10   N13   A    
C27   C34   S    
C40   H30   S    
C88   C94   A    
C50   C53   A    
C62   C66   A    
C13   H2    S    
C1    N1    A    
C24   C25   A    
C73   N7    A    
C9    C89   A    
C91   C92   A    
C5    C7    A    
C19   H5    S    
C86   C87   A    
C94   H61   S    
C73   H33   S    
N13   Ni1   S    
C78   N11   A    
N8    N14   A    
C49   C58   A    
N1    N7    A    
C77   H40   S    
C51   C53   A    
N2    N4    A    
C75   C76   S    
C37   H11   S    
C37   C38   A    
C47   C48   A    
C14   C15   A    
N15   Ni3   S    
C1    H1    S    
C82   C87   A    
C26   C27   A    
C29   H7    S    
C42   C48   A    
C76   C77   S    
C67   H23   S    
C56   H12   S    
C39   C46   A    
C44   H18   S    
C81   H48   S    
C77   H42   S    
C88   C90   A    
C82   C83   A    
C16   C23   A    
C64   H32   S    
C54   H24   S    
C43   C44   A    
C75   H36   S    
C22   C24   A    
C36   C44   A    
C42   C43   A    
C51   O2    S    
C73   C74   A    
N11   Ni4   S    
N6    Ni4   S    
N14   Ni4   S    
C15   C17   A    
C54   C55   A    
C6    C50   S    
C62   C65   A    
C79   H43   S    
C90   H57   S    
C8    C31   S    
C5    N15   A    
C31   C32   A    
C2    C8    A    
C85   H53   S    
C80   C81   S    
C28   H25   S    
C86   H54   S    
C76   H39   S    
C25   O1    S    
C84   H52   S    
C5    H63   S    
C49   C59   A    
C30   C36   A    
C17   C25   A    
C32   C33   A    
C19   C20   A    
C55   C57   A    
N3    Ni4   S    
C71   C72   A    
C80   H46   S    
C76   H38   S    
C11   C13   A    
C57   C58   A    
C38   C39   A    
C20   C26   A    
C59   H20   S    
C56   N9    A    
C3    H62   S    
C33   C35   A    
C24   H8    S    
C9    C78   A    
C65   H29   S    
C69   C70   A    
C70   C82   S    
C33   C37   A    
N2    Ni3   S    
C46   C47   A    
C10   C11   A    
C52   N5    A    
C79   C80   S    
C15   C21   A    
C79   H44   S    
N4    Ni2   S    
C20   C21   A    
C8    C67   A    
C80   H47   S    
C87   H55   S    
C79   O2    S    
C62   C74   S    
C60   H21   S    
N1    Ni1   S    
C77   H41   S    
C91   H58   S    
C21   C22   A    
C23   C40   A    
C26   H6    S    
N9    Ni2   S    
C40   N4    A    
