data_mof_unit_66455.cif
_audit_creation_date              2012-12-10T18:14:25-0500
_audit_creation_method            fapswitch 2.2
_symmetry_space_group_name_H-M    P1
_symmetry_Int_Tables_number       1
_space_group_crystal_system       triclinic
_cell_length_a                    42.261936
_cell_length_b                    29.205327
_cell_length_c                    30.584272
_cell_angle_alpha                 90.058485
_cell_angle_beta                  136.283384
_cell_angle_gamma                 89.958586
_cell_volume                      26088.2697518

loop_
_atom_site_label
_atom_site_type_symbol
_atom_type_description
_atom_site_fract_x
_atom_site_fract_y
_atom_site_fract_z
_atom_type_partial_charge
C1    C     C_R   0.586687 0.500000 0.587108 0.905781
C2    C     C_1   0.996552 0.998489 0.331505 -0.056539
C3    C     C_3   0.518194 0.542715 0.240104 0.043137
C4    C     C_3   0.028341 0.958533 0.250109 0.038985
C5    C     C_3   0.018374 0.044652 0.241064 0.042117
C6    C     C_1   0.499597 0.498932 0.120238 -0.193871
C7    C     C_1   0.999685 0.999980 0.120322 -0.214328
C8    C     C_3   0.494984 0.497744 0.283779 0.177184
C9    C     C_3   0.995423 0.997323 0.284340 0.261633
C10   C     C_3   0.497007 0.497038 0.201922 0.144811
C11   C     C_3   0.997775 0.999047 0.202649 0.167159
C12   C     C_3   0.540662 0.373804 0.251446 -0.802238
C13   C     C_1   0.498292 0.499696 0.371315 -0.199986
C14   C     C_3   0.522978 0.624171 0.224535 -0.794258
C15   C     C_3   0.043551 0.876570 0.252849 -0.792072
C16   C     C_3   0.024811 0.111003 0.197035 -0.781664
C17   C     C_3   0.365227 0.519817 0.151048 -0.800488
C18   C     C_3   0.398541 0.414976 0.162799 -0.801581
C19   C     C_3   0.906876 0.056665 0.205181 -0.823184
C20   C     C_3   0.932908 0.916035 0.253929 -0.775967
C21   C     C_1   0.998446 0.999594 0.371489 -0.215592
C22   C     C_1   0.637269 0.500001 0.637616 -0.223651
C23   C     C_1   0.137269 0.000001 0.637614 -0.223775
C24   C     C_1   0.679407 0.500001 0.679701 0.002468
C25   C     C_1   0.179406 0.000001 0.679698 0.002451
C26   C     C_1   0.729141 0.500001 0.729379 0.005180
C27   C     C_1   0.229140 0.000001 0.729377 0.005182
C28   C     C_1   0.771277 0.500001 0.771472 0.005140
C29   C     C_R   0.086687 0.000000 0.587106 0.905728
C30   C     C_1   0.271277 0.000000 0.771470 0.005140
C31   C     C_1   0.821012 0.500000 0.821155 0.003490
C32   C     C_1   0.321011 0.000000 0.821154 0.003483
C33   C     C_R   0.500633 0.499959 0.418290 0.949500
C34   C     C_R   0.000634 0.999949 0.418300 0.952525
C35   C     C_1   0.863149 0.500000 0.863247 -0.215224
C36   C     C_1   0.363149 1.000000 0.863247 -0.215256
C37   C     C_1   0.499998 0.500054 0.636055 -0.222439
C38   C     C_1   0.999998 0.000054 0.636055 -0.222489
C39   C     C_1   0.500024 0.500058 0.677256 0.015368
C40   C     C_3   0.446664 0.492051 0.167241 -0.424406
C41   C     C_1   0.000024 0.000058 0.677256 0.015356
C42   C     C_1   0.500055 0.500050 0.726289 0.002762
C43   C     C_1   0.000054 0.000050 0.726289 0.002730
C44   C     C_1   0.500078 0.500039 0.767488 0.002753
C45   C     C_1   0.000078 0.000039 0.767488 0.002727
C46   C     C_1   0.500099 0.500025 0.816511 0.015095
C47   C     C_1   0.000099 0.000025 0.816511 0.015127
C48   C     C_1   0.500099 0.500013 0.857687 -0.221454
C49   C     C_1   0.000099 0.000013 0.857687 -0.221637
C50   C     C_1   0.362678 0.499998 0.362929 -0.222818
C51   C     C_3   0.947399 0.992972 0.168152 -0.487062
C52   C     C_1   0.862679 0.999997 0.362921 -0.222967
C53   C     C_1   0.320543 0.499997 0.320702 0.003507
C54   C     C_1   0.820544 0.999996 0.320695 0.003550
C55   C     C_1   0.270812 0.499997 0.270883 0.005533
C56   C     C_1   0.770813 0.999996 0.270879 0.005594
C57   C     C_R   0.413256 0.499999 0.413630 0.911229
C58   C     C_R   0.913256 0.999999 0.413623 0.911973
C59   C     C_1   0.228677 0.499998 0.228694 0.005231
C60   C     C_1   0.728678 0.999996 0.228692 0.005222
C61   C     C_1   0.178946 0.499998 0.178921 0.003532
C62   C     C_3   0.444489 0.489713 0.216282 0.456105
C63   C     C_1   0.678946 0.999997 0.178921 0.003497
C64   C     C_1   0.136810 0.499999 0.136776 -0.215221
C65   C     C_1   0.636810 0.999998 0.136776 -0.215283
C66   C     C_R   0.500031 0.586641 0.994583 0.909682
C67   C     C_R   0.500030 0.413360 0.994587 0.907252
C68   C     C_R   0.000031 0.086640 0.994605 0.906721
C69   C     C_R   0.000030 0.913360 0.994584 0.907876
C70   C     C_R   0.499963 0.500393 0.075940 0.951651
C71   C     C_R   0.999969 0.000218 0.075937 0.948979
C72   C     C_R   0.500055 0.500000 0.907528 0.892502
C73   C     C_3   0.946123 0.983442 0.217038 0.447850
C74   C     C_R   0.000055 0.000001 0.907528 0.893080
C75   C     C_R   0.000015 0.413720 0.999115 0.897742
C76   C     C_R   0.000015 0.586280 0.999154 0.897712
C77   C     C_R   0.500015 0.913721 0.999114 0.897749
C78   C     C_R   0.500015 0.086281 0.999154 0.897766
C79   C     C_R   0.913731 0.500000 0.913768 0.897903
C80   C     C_R   0.413731 1.000000 0.913768 0.897938
C81   C     C_R   0.086231 0.500000 0.086233 0.897903
C82   C     C_R   0.586231 0.999999 0.086233 0.897922
C83   C     C_1   0.500041 0.637227 0.995422 -0.221699
C84   C     C_1   0.498525 0.497730 0.157279 -0.084718
C85   C     C_1   0.500039 0.362774 0.995451 -0.224753
C86   C     C_1   0.000043 0.137226 0.995458 -0.224249
C87   C     C_1   0.000039 0.862774 0.995448 -0.224809
C88   C     C_R   0.499972 0.500021 0.586144 0.892392
C89   C     C_R   0.999972 0.000021 0.586144 0.892565
C90   C     C_1   0.500044 0.679366 0.996160 0.003559
C91   C     C_1   0.500041 0.320636 0.996216 0.002577
C92   C     C_1   0.000047 0.179364 0.996202 0.002680
C93   C     C_1   0.000042 0.820636 0.996213 0.002631
C94   C     C_1   0.500043 0.729104 0.997026 0.005386
C95   C     C_1   0.998930 0.999746 0.157699 -0.087885
C96   C     C_1   0.500040 0.270898 0.997115 0.005088
C97   C     C_1   0.000046 0.229102 0.997065 0.005102
C98   C     C_1   0.000041 0.770898 0.997112 0.005093
C99   C     C_1   0.000042 0.271241 0.997749 0.005152
C100  C     C_1   0.000037 0.728760 0.997828 0.004997
C101  C     C_1   0.500039 0.771243 0.997719 0.005159
C102  C     C_1   0.500037 0.228760 0.997830 0.005015
C103  C     C_1   0.000034 0.320983 0.998457 0.003665
C104  C     C_1   0.000031 0.679019 0.998564 0.003531
C105  C     C_1   0.500032 0.820984 0.998441 0.003538
C106  C     C_1   0.496313 0.498898 0.331244 -0.078083
C107  C     C_1   0.500031 0.179019 0.998564 0.003551
C108  C     C_1   0.000026 0.363127 0.998902 -0.215120
C109  C     C_1   0.000025 0.636876 0.999006 -0.215238
C110  C     C_1   0.500025 0.863127 0.998896 -0.215258
C111  C     C_1   0.500024 0.136876 0.999006 -0.215234
C112  C     C_3   0.515859 0.543348 0.287967 -0.519045
C113  C     C_3   0.526321 0.458125 0.299233 -0.425392
C114  C     C_3   0.012850 0.044913 0.285404 -0.496617
C115  C     C_3   0.030926 0.961549 0.303246 -0.453529
C116  C     C_3   0.526180 0.456013 0.248576 0.038157
H1    H     H_    0.555018 0.542946 0.267049 0.145109
H2    H     H_    0.496598 0.573474 0.281121 0.187199
H3    H     H_    0.025214 0.927570 0.312862 0.217058
H4    H     H_    0.991165 0.073742 0.274404 0.207377
H5    H     H_    0.426025 0.521273 0.134334 0.155236
H6    H     H_    0.431245 0.462006 0.135510 0.181034
H7    H     H_    0.926557 0.023392 0.139033 0.167154
H8    H     H_    0.930776 0.964855 0.132799 0.153637
H9    H     H_    0.492273 0.411797 0.170081 0.233719
H10   H     H_    0.522600 0.341323 0.225732 0.244739
H11   H     H_    0.554884 0.371123 0.299206 0.248244
H12   H     H_    0.562024 0.460352 0.272405 0.131266
H13   H     H_    0.569140 0.378392 0.256203 0.234808
H14   H     H_    0.462700 0.588622 0.176599 0.229702
H15   H     H_    0.503385 0.651566 0.188152 0.243291
H16   H     H_    0.554999 0.618031 0.237808 0.245656
H17   H     H_    0.531514 0.635884 0.266654 0.238225
H18   H     H_    0.991997 0.913525 0.171766 0.235694
H19   H     H_    0.025554 0.843692 0.228770 0.244553
H20   H     H_    0.060578 0.874421 0.302230 0.246074
H21   H     H_    0.069877 0.881518 0.253348 0.231442
H22   H     H_    0.963207 0.086037 0.161608 0.233685
H23   H     H_    0.055899 0.044537 0.271489 0.142307
H24   H     H_    0.007178 0.143563 0.171230 0.240649
H25   H     H_    0.029021 0.090644 0.170868 0.240508
H26   H     H_    0.058988 0.119481 0.244901 0.242424
H27   H     H_    0.423641 0.558707 0.203426 0.210112
H28   H     H_    0.347709 0.550668 0.146664 0.239726
H29   H     H_    0.354085 0.490269 0.160040 0.263230
H30   H     H_    0.354571 0.515145 0.105842 0.233862
H31   H     H_    0.424256 0.443606 0.246162 0.231548
H32   H     H_    0.382910 0.389544 0.169676 0.235113
H33   H     H_    0.418199 0.395538 0.157535 0.258460
H34   H     H_    0.063582 0.963006 0.271823 0.130037
H35   H     H_    0.370557 0.434468 0.118983 0.241929
H36   H     H_    0.875959 0.995605 0.156633 0.222579
H37   H     H_    0.872146 0.067386 0.181205 0.241990
H38   H     H_    0.914868 0.075482 0.182650 0.233836
H39   H     H_    0.930469 0.065955 0.255700 0.255679
H40   H     H_    0.912635 0.920944 0.169625 0.214668
H41   H     H_    0.919736 0.880379 0.239226 0.231333
H42   H     H_    0.908353 0.936793 0.248780 0.250541
H43   H     H_    0.966373 0.914392 0.304236 0.246701
H44   H     H_    0.551259 0.547492 0.336367 0.178687
H45   H     H_    0.562059 0.463624 0.346543 0.151627
H46   H     H_    0.046918 0.052475 0.334249 0.164626
H47   H     H_    0.066169 0.971955 0.348235 0.145806
H48   H     H_    0.514837 0.425107 0.302225 0.214996
N1    N     N_2   0.508836 0.411671 0.216384 -0.282734
N2    N     N_2   0.495698 0.582853 0.198961 -0.282886
N3    N     N_2   0.010814 0.913795 0.219073 -0.268116
N4    N     N_2   0.997935 0.085903 0.201891 -0.288239
N5    N     N_2   0.414363 0.526012 0.203047 -0.314617
N6    N     N_2   0.429093 0.444870 0.217588 -0.284877
N7    N     N_2   0.907306 0.007662 0.198496 -0.308007
N8    N     N_2   0.937955 0.933982 0.214920 -0.296721
O1    O     O_R   0.563110 0.535630 0.563620 -0.598036
O2    O     O_R   0.500010 0.063160 0.964010 -0.593402
O3    O     O_R   0.000000 0.436830 0.034310 -0.594359
O4    O     O_R   0.000000 0.563170 0.034310 -0.594488
O5    O     O_R   0.500000 0.936830 0.034310 -0.594477
O6    O     O_R   0.500000 0.063170 0.034310 -0.594514
O7    O     O_R   0.936840 0.500000 0.901700 -0.593656
O8    O     O_R   0.436840 0.000000 0.901700 -0.593628
O9    O     O_R   0.936840 0.500000 0.972000 -0.594335
O10   O     O_R   0.436840 1.000000 0.972000 -0.594387
O11   O     O_R   0.063130 0.500000 0.028000 -0.593588
O12   O     O_R   0.563110 0.464370 0.563620 -0.597738
O13   O     O_R   0.563130 1.000000 0.028000 -0.593565
O14   O     O_R   0.063120 0.500000 0.098300 -0.594286
O15   O     O_R   0.563120 0.000000 0.098300 -0.594351
O16   O     O_R   0.499970 0.535640 0.438200 -0.611808
O17   O     O_R   0.499970 0.464360 0.438200 -0.616412
O18   O     O_R   0.999970 0.035640 0.438200 -0.613430
O19   O     O_R   0.999970 0.964360 0.438200 -0.616350
O20   O     O_R   0.436830 0.535630 0.437320 -0.595919
O21   O     O_R   0.436830 0.464370 0.437320 -0.597360
O22   O     O_R   0.936830 0.035630 0.437320 -0.596313
O23   O     O_R   0.063110 0.035630 0.563620 -0.597755
O24   O     O_R   0.936830 0.964370 0.437320 -0.596846
O25   O     O_R   0.499970 0.535630 0.562740 -0.592241
O26   O     O_R   0.499970 0.464370 0.562740 -0.591986
O27   O     O_R   0.999970 0.035630 0.562740 -0.592065
O28   O     O_R   0.999970 0.964370 0.562740 -0.592000
O29   O     O_R   0.535670 0.563060 0.029670 -0.597292
O30   O     O_R   0.535670 0.436940 0.029670 -0.596995
O31   O     O_R   0.035670 0.063060 0.029670 -0.597643
O32   O     O_R   0.035670 0.936940 0.029670 -0.596752
O33   O     O_R   0.464380 0.563080 0.958370 -0.596897
O34   O     O_R   0.063110 0.964370 0.563620 -0.598063
O35   O     O_R   0.464380 0.436920 0.958370 -0.597414
O36   O     O_R   0.964380 0.063080 0.958370 -0.596728
O37   O     O_R   0.964380 0.936920 0.958370 -0.597277
O38   O     O_R   0.535670 0.500000 0.091080 -0.614217
O39   O     O_R   0.035670 0.000000 0.091080 -0.614918
O40   O     O_R   0.464370 0.500000 0.019780 -0.613416
O41   O     O_R   0.964370 0.000000 0.019780 -0.611714
O42   O     O_R   0.535670 0.500000 0.966540 -0.593274
O43   O     O_R   0.035670 0.000000 0.966540 -0.592943
O44   O     O_R   0.464380 0.500000 0.895240 -0.593286
O45   O     O_R   0.964380 0.000000 0.895240 -0.593106
O46   O     O_R   0.000010 0.436840 0.964010 -0.593503
O47   O     O_R   0.000010 0.563160 0.964010 -0.593441
O48   O     O_R   0.500010 0.936840 0.964010 -0.593488
Zn1   Zn    Zn3+2 0.499970 0.547590 0.500630 0.966475
Zn2   Zn    Zn3+2 0.499990 0.000000 0.953050 0.968155
Zn3   Zn    Zn3+2 0.999980 0.500000 0.046950 0.965127
Zn4   Zn    Zn3+2 0.499980 0.000000 0.046950 0.964772
Zn5   Zn    Zn3+2 0.499970 0.452410 0.500630 0.964123
Zn6   Zn    Zn3+2 0.999970 0.047590 0.500630 0.965540
Zn7   Zn    Zn3+2 0.999970 0.952410 0.500630 0.963142
Zn8   Zn    Zn3+2 0.547630 0.500000 0.040770 0.964226
Zn9   Zn    Zn3+2 0.047630 0.000000 0.040770 0.962425
Zn10  Zn    Zn3+2 0.452420 0.500000 0.945550 0.964862
Zn11  Zn    Zn3+2 0.952420 0.000000 0.945550 0.964013
Zn12  Zn    Zn3+2 0.999990 0.500000 0.953050 0.968152

loop_
_geom_bond_atom_site_label_1
_geom_bond_atom_site_label_2
_ccdc_geom_bond_type
O29   Zn8   S    
C72   O42   A    
C105  C110  T    
C63   C65   T    
C6    C70   S    
O4    Zn3   S    
C96   C102  T    
C5    C114  S    
O9    Zn3   S    
C51   H7    S    
C55   C59   T    
C37   C88   S    
C99   C103  S    
C40   H6    S    
O2    Zn2   S    
O47   Zn12  S    
O14   Zn3   S    
O1    Zn1   S    
O48   Zn2   S    
O38   Zn8   S    
C85   C91   T    
C10   C116  S    
C47   C49   T    
C12   H11   S    
C14   H16   S    
C40   H5    S    
C38   C89   S    
C1    O1    A    
C9    C73   S    
H18   N3    S    
C17   H28   S    
C9    C114  S    
C32   C36   T    
C33   O17   A    
C34   O19   A    
C24   C26   S    
O20   Zn1   S    
C5    C11   S    
O25   Zn1   S    
C8    C112  S    
C7    C71   S    
C104  C109  T    
C74   O43   A    
C17   N5    S    
C114  H46   S    
C12   H10   S    
O15   Zn4   S    
C76   O47   A    
C100  C104  S    
C40   C62   S    
C10   C40   S    
O37   Zn11  S    
C5    N4    S    
C88   O26   A    
O32   Zn9   S    
C89   O28   A    
C3    H1    S    
C91   C96   S    
C66   O29   A    
C94   C101  T    
C52   C54   T    
C76   C109  S    
C20   H43   S    
C68   O36   A    
O44   Zn10  S    
O8    Zn2   S    
C78   C111  S    
C80   O10   A    
C73   N7    S    
C18   H33   S    
O42   Zn8   S    
C69   C87   S    
O26   Zn5   S    
O41   Zn11  S    
C113  C116  S    
O16   Zn1   S    
C45   C47   S    
C66   C83   S    
O24   Zn7   S    
C1    C22   S    
O43   Zn9   S    
C27   C30   T    
C51   H8    S    
C41   C43   S    
C15   N3    S    
O33   Zn10  S    
C16   H24   S    
C42   C44   T    
O12   Zn5   S    
C48   C72   S    
C62   N6    S    
H22   N4    S    
C26   C28   T    
C97   C99   T    
C1    O12   A    
C44   C46   S    
C92   C97   S    
C90   C94   S    
C39   C42   S    
C46   C48   T    
C14   H15   S    
C18   N6    S    
C101  C105  S    
C89   O27   A    
C54   C56   S    
C59   C61   S    
C50   C53   T    
C6    C84   T    
C12   H13   S    
C83   C90   T    
C82   O13   A    
C75   O3    A    
C9    C115  S    
C70   O40   A    
C76   O4    A    
H27   N5    S    
C38   C41   T    
C36   C80   S    
C12   N1    S    
O31   Zn9   S    
C66   O33   A    
O30   Zn8   S    
C15   H20   S    
C75   O46   A    
C71   O41   A    
H40   N8    S    
C77   O5    A    
C29   O34   A    
C56   C60   T    
C57   O21   A    
C4    C11   S    
O28   Zn7   S    
C88   O25   A    
C61   C64   T    
H9    N1    S    
C13   C33   S    
C7    C95   T    
C78   O6    A    
C112  H2    S    
O40   Zn10  S    
H14   N2    S    
C34   O18   A    
C3    C112  S    
C79   O9    A    
C20   H42   S    
C2    C21   T    
C102  C107  S    
O35   Zn10  S    
C73   N8    S    
C43   C45   T    
O46   Zn12  S    
C103  C108  T    
C52   C58   S    
C8    C113  S    
C57   O20   A    
C16   H26   S    
C68   C86   S    
C93   C98   S    
C72   O44   A    
C115  H3    S    
C20   H41   S    
C60   C63   S    
C19   H39   S    
C19   H37   S    
C22   C24   T    
C116  N1    S    
C35   C79   S    
C69   O37   A    
C81   O11   A    
C53   C55   S    
C18   H35   S    
C80   O8    A    
C81   O14   A    
C67   O35   A    
C78   O2    A    
C5    H23   S    
C11   C95   S    
H36   N7    S    
C62   N5    S    
O19   Zn7   S    
O39   Zn9   S    
O23   Zn6   S    
C20   N8    S    
O18   Zn6   S    
C50   C57   S    
C107  C111  T    
C28   C31   S    
O17   Zn5   S    
C51   C73   S    
C19   N7    S    
C13   C106  T    
O6    Zn4   S    
C8    C106  S    
C17   H29   S    
C23   C29   S    
H31   N6    S    
C58   O24   A    
C21   C34   S    
C14   H17   S    
C25   C27   S    
C4    H34   S    
C18   H32   S    
C4    N3    S    
C82   O15   A    
O13   Zn2   S    
O22   Zn6   S    
C17   H30   S    
O21   Zn5   S    
C37   C39   T    
C3    C10   S    
C29   O23   A    
O45   Zn11  S    
C113  H48   S    
C30   C32   S    
C65   C82   S    
C67   C85   S    
C16   N4    S    
C77   O48   A    
C70   O38   A    
C87   C93   T    
C74   O45   A    
C10   C84   S    
C58   O22   A    
C16   H25   S    
C33   O16   A    
C31   C35   T    
C23   C25   T    
O5    Zn4   S    
C115  H47   S    
C77   C110  S    
O27   Zn6   S    
C64   C81   S    
C98   C100  T    
C11   C51   S    
O36   Zn11  S    
C113  H45   S    
C112  H44   S    
C75   C108  S    
C79   O7    A    
C15   H19   S    
O10   Zn4   S    
C69   O32   A    
C14   N2    S    
C116  H12   S    
O34   Zn7   S    
C67   O30   A    
C19   H38   S    
O3    Zn3   S    
C49   C74   S    
C71   O39   A    
C86   C92   T    
C15   H21   S    
O7    Zn12  S    
C2    C9    S    
O11   Zn12  S    
C114  H4    S    
C3    N2    S    
C8    C62   S    
C4    C115  S    
C68   O31   A    
