data_mof_unit_41213.cif
_audit_creation_date              2013-03-05T16:00:03-0500
_audit_creation_method            fapswitch 2.2
_symmetry_space_group_name_H-M    P1
_symmetry_Int_Tables_number       1
_space_group_crystal_system       triclinic
_cell_length_a                    20.601949
_cell_length_b                    21.570172
_cell_length_c                    14.732749
_cell_angle_alpha                 90.000597
_cell_angle_beta                  127.79167
_cell_angle_gamma                 89.999496
_cell_volume                      5173.76828736

loop_
_atom_site_label
_atom_site_type_symbol
_atom_site_description
_atom_site_fract_x
_atom_site_fract_y
_atom_site_fract_z
_atom_type_partial_charge
O1    O     O_R   0.600040 0.935040 0.546740 -0.536772
O2    O     O_R   0.399960 0.064960 0.453260 -0.536775
O3    O     O_R   0.399960 0.935040 0.453260 -0.536784
O4    O     O_R   0.600040 0.064960 0.546740 -0.536761
O5    O     O_R   0.100040 0.435040 0.546740 -0.536755
O6    O     O_R   0.899960 0.564960 0.453260 -0.536778
O7    O     O_R   0.899960 0.435040 0.453260 -0.536740
O8    O     O_R   0.100040 0.564960 0.546740 -0.536780
O9    O     O_R   0.555010 0.935070 0.653220 -0.602149
O10   O     O_R   0.444990 0.064930 0.346780 -0.602188
O11   O     O_R   0.444990 0.935070 0.346780 -0.602133
O12   O     O_R   0.555010 0.064930 0.653220 -0.602176
O13   O     O_R   0.055010 0.435070 0.653220 -0.602152
O14   O     O_R   0.944990 0.564930 0.346780 -0.602153
O15   O     O_R   0.944990 0.435070 0.346780 -0.602180
O16   O     O_R   0.055010 0.564930 0.653220 -0.602183
C1    C     C_R   0.603743 0.914245 0.632137 0.820369
C2    C     C_R   0.396253 0.085752 0.367857 0.820294
C3    C     C_R   0.396264 0.914238 0.367871 0.820377
C4    C     C_R   0.603746 0.085752 0.632142 0.820307
C5    C     C_R   0.103749 0.414249 0.632145 0.820346
C6    C     C_R   0.896257 0.585756 0.367862 0.820327
C7    C     C_R   0.896254 0.414246 0.367860 0.820368
C8    C     C_R   0.103739 0.585758 0.632133 0.820310
Cu1   Cu    Cu3+1 0.526640 0.000000 0.436960 0.973370
Cu2   Cu    Cu3+1 0.473360 0.000000 0.563040 0.973355
Cu3   Cu    Cu3+1 0.026640 0.500000 0.436960 0.973378
Cu4   Cu    Cu3+1 0.973360 0.500000 0.563040 0.973361
C9    C     C_R   0.664537 0.133925 0.707466 -0.153500
C10   C     C_R   0.335498 0.866044 0.292578 -0.153488
C11   C     C_R   0.335475 0.133936 0.292554 -0.153517
C12   C     C_R   0.664514 0.866055 0.707429 -0.153479
C13   C     C_R   0.164497 0.633960 0.707410 -0.153500
C14   C     C_R   0.835473 0.366063 0.292557 -0.153452
C15   C     C_R   0.835478 0.633938 0.292550 -0.153523
C16   C     C_R   0.164551 0.366083 0.707480 -0.153490
C17   C     C_R   0.779616 0.200736 0.770306 -0.244471
C18   C     C_R   0.220558 0.799113 0.229928 -0.244155
C19   C     C_R   0.220425 0.200771 0.229764 -0.244360
C20   C     C_R   0.779471 0.799142 0.770091 -0.244413
C21   C     C_R   0.279456 0.700871 0.770076 -0.244376
C22   C     C_R   0.720475 0.299185 0.229838 -0.244504
C23   C     C_R   0.720433 0.700779 0.229754 -0.244256
C24   C     C_R   0.279625 0.299266 0.770312 -0.244460
C25   C     C_R   0.723444 0.155335 0.695164 0.483455
C26   C     C_R   0.276724 0.844520 0.305065 0.483299
C27   C     C_R   0.276567 0.155344 0.304858 0.483452
C28   C     C_R   0.723324 0.844566 0.694988 0.483428
C29   C     C_R   0.223324 0.655435 0.694995 0.483411
C30   C     C_R   0.776632 0.344603 0.304958 0.483454
C31   C     C_R   0.776593 0.655370 0.304880 0.483378
C32   C     C_R   0.223437 0.344655 0.695147 0.483469
C33   C     C_R   0.664141 0.157670 0.795493 -0.299525
C34   C     C_R   0.335795 0.842381 0.204418 -0.299478
C35   C     C_R   0.335889 0.157702 0.204556 -0.299529
C36   C     C_R   0.664184 0.842359 0.795542 -0.299475
C37   C     C_R   0.164136 0.657682 0.795482 -0.299499
C38   C     C_R   0.835822 0.342351 0.204471 -0.299526
C39   C     C_R   0.835865 0.657674 0.204511 -0.299489
C40   C     C_R   0.164187 0.342365 0.795550 -0.299511
C41   C     C_R   0.719994 0.203526 0.871483 0.053123
C42   C     C_R   0.279989 0.796486 0.128494 0.053063
C43   C     C_R   0.280064 0.203585 0.128613 0.053101
C44   C     C_R   0.719973 0.796447 0.871432 0.053095
C45   C     C_R   0.219925 0.703595 0.871372 0.053096
C46   C     C_R   0.780016 0.296455 0.128554 0.053120
C47   C     C_R   0.780018 0.703536 0.128529 0.053086
C48   C     C_R   0.220040 0.296509 0.871539 0.053123
C49   C     C_R   0.780250 0.223425 0.860085 -0.020640
C50   C     C_R   0.219818 0.776513 0.140010 -0.020490
C51   C     C_R   0.219811 0.223483 0.140016 -0.020638
C52   C     C_R   0.780158 0.776492 0.859934 -0.020639
C53   C     C_R   0.280122 0.723541 0.859891 -0.020647
C54   C     C_R   0.719806 0.276520 0.140017 -0.020587
C55   C     C_R   0.719780 0.723453 0.139952 -0.020596
C56   C     C_R   0.280286 0.276602 0.860128 -0.020615
C57   C     C_R   0.718669 0.228904 0.959781 0.010243
C58   C     C_R   0.281282 0.771138 0.040155 0.010247
C59   C     C_R   0.281407 0.228982 0.040345 0.010234
C60   C     C_R   0.718654 0.771069 0.959731 0.010266
C61   C     C_R   0.218608 0.728971 0.959675 0.010312
C62   C     C_R   0.781347 0.271068 0.040269 0.010224
C63   C     C_R   0.781330 0.728901 0.040213 0.010235
C64   C     C_R   0.218719 0.271135 0.959840 0.010269
C65   C     C_R   0.343629 0.786220 0.030335 -0.287916
C66   C     C_R   0.656308 0.213837 0.969580 -0.287908
C67   C     C_R   0.656270 0.786114 0.969490 -0.287977
C68   C     C_R   0.343801 0.213948 0.030601 -0.287944
C69   C     C_R   0.843737 0.286109 0.030519 -0.287914
C70   C     C_R   0.156242 0.713911 0.969464 -0.288067
C71   C     C_R   0.156337 0.286183 0.969607 -0.287923
C72   C     C_R   0.843670 0.713815 0.030379 -0.287884
C73   C     C_R   0.341327 0.765103 0.939096 0.481609
C74   C     C_R   0.658596 0.234964 0.060800 0.481589
C75   C     C_R   0.658550 0.764989 0.060708 0.481444
C76   C     C_R   0.341527 0.235076 0.939392 0.481469
C77   C     C_R   0.841477 0.264962 0.939332 0.481498
C78   C     C_R   0.158576 0.734986 0.060758 0.481445
C79   C     C_R   0.158601 0.265039 0.060799 0.481521
C80   C     C_R   0.841362 0.734929 0.939135 0.481655
H1    H     H_    0.379265 0.862039 0.195050 0.173844
H2    H     H_    0.620543 0.138109 0.804685 0.173887
H3    H     H_    0.620706 0.862006 0.804906 0.173818
H4    H     H_    0.379470 0.138132 0.195331 0.173863
H5    H     H_    0.879337 0.361971 0.195158 0.173834
H6    H     H_    0.120637 0.638052 0.804818 0.173821
H7    H     H_    0.120618 0.361948 0.804784 0.173870
H8    H     H_    0.879449 0.638101 0.195299 0.173893
H9    H     H_    0.322873 0.718224 0.757717 0.197202
H10   H     H_    0.677059 0.281821 0.242189 0.197056
H11   H     H_    0.676975 0.718100 0.242061 0.197252
H12   H     H_    0.323081 0.281937 0.758011 0.197106
H13   H     H_    0.823090 0.218045 0.758025 0.197159
H14   H     H_    0.177187 0.781711 0.242340 0.197185
H15   H     H_    0.176950 0.218074 0.242051 0.197226
H16   H     H_    0.822871 0.781771 0.757713 0.197140
H17   H     H_    0.396555 0.813636 0.092964 0.157499
H18   H     H_    0.603393 0.186407 0.906977 0.157474
H19   H     H_    0.603319 0.813490 0.906798 0.157477
H20   H     H_    0.396742 0.186554 0.093259 0.157513
H21   H     H_    0.896669 0.313512 0.093169 0.157531
H22   H     H_    0.103275 0.686557 0.906748 0.157389
H23   H     H_    0.103411 0.313597 0.906976 0.157462
H24   H     H_    0.896581 0.686377 0.092969 0.157483
N1    N     N_R   0.433280 0.000000 0.657760 -0.173458
N2    N     N_R   0.566720 0.000000 0.342240 -0.173479
N3    N     N_R   0.933280 0.500000 0.657760 -0.173467
N4    N     N_R   0.066720 0.500000 0.342240 -0.173481
C81   C     C_R   0.321294 0.000063 0.666103 -0.333757
C82   C     C_R   0.678706 0.999944 0.333898 -0.333722
C83   C     C_R   0.821294 0.499941 0.666102 -0.333760
C84   C     C_R   0.178706 0.500038 0.333898 -0.333688
C85   C     C_R   0.351364 0.000027 0.603373 0.144472
C86   C     C_R   0.648636 0.999966 0.396627 0.144504
C87   C     C_R   0.851364 0.499970 0.603372 0.144487
C88   C     C_R   0.148636 0.500024 0.396627 0.144528
C89   C     C_R   0.488429 0.999996 0.775244 -0.006901
C90   C     C_R   0.511572 0.000025 0.224756 -0.006887
C91   C     C_R   0.988429 0.500005 0.775245 -0.006971
C92   C     C_R   0.011571 0.499979 0.224756 -0.006863
C93   C     C_R   0.461834 0.000023 0.844837 -0.036117
C94   C     C_R   0.538166 0.000013 0.155163 -0.036092
C95   C     C_R   0.961834 0.499978 0.844837 -0.036156
C96   C     C_R   0.038166 0.499985 0.155163 -0.036085
C97   C     C_R   0.376014 0.000066 0.786559 0.158090
C98   C     C_R   0.623987 0.999963 0.213441 0.158047
C99   C     C_R   0.876014 0.499943 0.786559 0.158117
C100  C     C_R   0.123987 0.500022 0.213441 0.158000
C101  C     C_R   0.516397 0.000008 0.968673 0.065415
C102  C     C_R   0.483603 0.000041 0.031328 0.065513
C103  C     C_R   0.016397 0.499986 0.968673 0.065227
C104  C     C_R   0.983604 0.499962 0.031328 0.065545
C105  C     C_R   0.397444 0.000100 0.967982 -0.290584
C106  C     C_R   0.602557 0.999949 0.032019 -0.290575
C107  C     C_R   0.897444 0.499919 0.967982 -0.290583
C108  C     C_R   0.102558 0.500027 0.032020 -0.290573
C109  C     C_R   0.345116 0.000110 0.848463 -0.232221
C110  C     C_R   0.654885 0.999928 0.151538 -0.232165
C111  C     C_R   0.845116 0.499909 0.848463 -0.232253
C112  C     C_R   0.154885 0.500044 0.151538 -0.232083
H25   H     H_    0.279381 0.000149 0.803845 0.149364
H26   H     H_    0.720620 0.999885 0.196155 0.149354
H27   H     H_    0.779381 0.499878 0.803845 0.149368
H28   H     H_    0.220620 0.500076 0.196156 0.149331
H29   H     H_    0.447523 0.000047 0.187801 0.121924
H30   H     H_    0.552477 0.999977 0.812200 0.121926
H31   H     H_    0.947523 0.499963 0.187800 0.121926
H32   H     H_    0.052477 0.500025 0.812200 0.121937
H33   H     H_    0.690557 0.999950 0.489237 0.128821
H34   H     H_    0.309441 0.000023 0.510764 0.128764
H35   H     H_    0.190557 0.500037 0.489237 0.128801
H36   H     H_    0.809442 0.499960 0.510763 0.128842
H37   H     H_    0.255458 0.000091 0.620539 0.129260
H38   H     H_    0.744543 0.999910 0.379462 0.129265
H39   H     H_    0.755457 0.499914 0.620538 0.129265
H40   H     H_    0.244543 0.500062 0.379462 0.129262
H41   H     H_    0.368163 0.000138 0.008416 0.143090
H42   H     H_    0.631838 0.999915 0.991584 0.143096
H43   H     H_    0.868163 0.499891 0.008416 0.143093
H44   H     H_    0.131839 0.500049 0.991585 0.143109
O17   O     O_3   0.404402 0.780181 0.934129 -0.554498
C113  C     C_3   0.392213 0.841280 0.892733 -0.278125
H45   H     H_    0.402156 0.874876 0.957192 0.165965
H46   H     H_    0.330073 0.847578 0.809137 0.154211
H47   H     H_    0.437949 0.851418 0.878126 0.206639
O18   O     O_3   0.595503 0.219892 0.065731 -0.554418
C114  C     C_3   0.607766 0.158833 0.107325 -0.278258
H48   H     H_    0.669818 0.152672 0.191106 0.154292
H49   H     H_    0.598120 0.125178 0.043141 0.165945
H50   H     H_    0.561881 0.148650 0.121626 0.206827
O19   O     O_3   0.595434 0.780012 0.065623 -0.554553
C115  C     C_3   0.607326 0.841208 0.106513 -0.276889
H51   H     H_    0.596991 0.874679 0.041637 0.165684
H52   H     H_    0.669518 0.847790 0.189913 0.153978
H53   H     H_    0.561679 0.851262 0.121327 0.206765
O20   O     O_3   0.404655 0.220044 0.934513 -0.554431
C116  C     C_3   0.392528 0.158952 0.893107 -0.277547
H54   H     H_    0.330469 0.152682 0.809382 0.154160
H55   H     H_    0.402308 0.125337 0.957431 0.165809
H56   H     H_    0.438401 0.148812 0.878763 0.206915
O21   O     O_3   0.904606 0.279994 0.934457 -0.554443
C117  C     C_3   0.892436 0.341067 0.892954 -0.277771
H57   H     H_    0.902204 0.374708 0.957239 0.165890
H58   H     H_    0.830367 0.347303 0.809226 0.154164
H59   H     H_    0.938294 0.351197 0.878578 0.206865
O22   O     O_3   0.095499 0.719944 0.065750 -0.554613
C118  C     C_3   0.107211 0.658651 0.106156 -0.276404
H60   H     H_    0.169492 0.651820 0.189304 0.153877
H61   H     H_    0.096476 0.625327 0.040833 0.165558
H62   H     H_    0.061726 0.648619 0.121286 0.206689
O23   O     O_3   0.095486 0.280081 0.065699 -0.554474
C119  C     C_3   0.107616 0.341177 0.107087 -0.277789
H63   H     H_    0.097742 0.374785 0.042691 0.165868
H64   H     H_    0.169711 0.347475 0.190747 0.154196
H65   H     H_    0.061803 0.351302 0.121553 0.206828
O24   O     O_3   0.904415 0.719828 0.934134 -0.554501
C120  C     C_3   0.892153 0.658743 0.892646 -0.278287
H66   H     H_    0.829984 0.652478 0.809075 0.154231
H67   H     H_    0.902111 0.625129 0.957092 0.166067
H68   H     H_    0.937839 0.648601 0.877946 0.206501
O25   O     O_3   0.277123 0.864983 0.394501 -0.554031
C121  C     C_3   0.206225 0.901085 0.349517 -0.325844
H69   H     H_    0.203815 0.941606 0.300758 0.139351
H70   H     H_    0.208449 0.918938 0.421937 0.176264
H71   H     H_    0.149040 0.873229 0.294730 0.167123
O26   O     O_3   0.723202 0.134750 0.605924 -0.554100
C122  C     C_3   0.794044 0.098520 0.651188 -0.326111
H72   H     H_    0.791995 0.080621 0.578936 0.176191
H73   H     H_    0.796184 0.058031 0.699788 0.139480
H74   H     H_    0.851294 0.126284 0.706215 0.167137
O27   O     O_3   0.722991 0.865089 0.605639 -0.554054
C123  C     C_3   0.793905 0.901192 0.650753 -0.326018
H75   H     H_    0.796282 0.941683 0.699533 0.139410
H76   H     H_    0.791750 0.919086 0.578414 0.176222
H77   H     H_    0.851075 0.873328 0.705553 0.167170
O28   O     O_3   0.276765 0.134724 0.394041 -0.554086
C124  C     C_3   0.205930 0.098465 0.348689 -0.326159
H78   H     H_    0.207900 0.080589 0.420890 0.176194
H79   H     H_    0.203894 0.057959 0.300194 0.139494
H80   H     H_    0.148657 0.126197 0.293530 0.167123
O29   O     O_3   0.776965 0.365141 0.394305 -0.554101
C125  C     C_3   0.705979 0.401156 0.349186 -0.326068
H81   H     H_    0.703391 0.441581 0.300116 0.139395
H82   H     H_    0.708217 0.419150 0.421539 0.176154
H83   H     H_    0.648881 0.373190 0.294673 0.167270
O30   O     O_3   0.223040 0.634878 0.605706 -0.554056
C126  C     C_3   0.293916 0.598705 0.650907 -0.325970
H84   H     H_    0.291842 0.580834 0.578621 0.176234
H85   H     H_    0.296136 0.558198 0.699536 0.139431
H86   H     H_    0.351134 0.626506 0.705886 0.167142
O31   O     O_3   0.223145 0.365204 0.605846 -0.554073
C127  C     C_3   0.294022 0.401374 0.651022 -0.326047
H87   H     H_    0.296305 0.441853 0.699759 0.139423
H88   H     H_    0.291890 0.419289 0.578711 0.176193
H89   H     H_    0.351235 0.373553 0.705889 0.167152
O32   O     O_3   0.776837 0.634796 0.394124 -0.554068
C128  C     C_3   0.706038 0.598516 0.348870 -0.326082
H90   H     H_    0.708037 0.580680 0.421114 0.176227
H91   H     H_    0.704022 0.557985 0.300449 0.139526
H92   H     H_    0.648749 0.626219 0.293676 0.167083

loop_
_geom_bond_atom_site_label_1
_geom_bond_atom_site_label_2
_geom_bond_distance
_ccdc_geom_bond_type
O16   Cu4   1.953787 S    
C18   C50   1.402866 A    
C47   C63   1.426936 A    
C17   C49   1.402856 A    
O2    C2    1.293177 A    
C12   C28   1.410174 A    
O21   C117  1.408633 S    
C54   C74   1.397162 A    
C34   H1    1.073484 S    
C65   C73   1.392284 A    
C53   C73   1.397157 A    
C96   C100  1.415190 A    
C30   O29   1.384884 S    
C99   C111  1.395877 A    
C68   C76   1.392269 A    
O4    Cu1   1.966833 S    
C93   C101  1.441765 A    
O31   C127  1.411654 S    
C5    C16   1.475287 S    
C79   O23   1.384316 S    
O17   C113  1.408629 S    
C82   H38   1.083716 S    
C120  H68   1.109273 S    
C95   C99   1.415190 A    
C6    C15   1.475279 S    
C10   C34   1.399025 A    
O11   C3    1.299404 A    
C62   C69   1.415739 A    
C117  H58   1.114320 S    
C90   H29   1.075684 S    
C112  H28   1.084027 S    
C19   C27   1.397721 A    
N3    C87   1.353826 A    
C106  C110  1.391492 A    
C60   C67   1.415722 A    
C83   C87   1.392684 A    
N4    C88   1.353825 A    
Cu1   N2    2.010332 S    
C84   H40   1.083716 S    
C59   C64   1.422713 A    
C18   H14   1.083041 S    
C114  H49   1.109226 S    
C11   C35   1.399016 A    
C82   C98   1.402980 A    
O11   Cu1   1.953789 S    
C13   C29   1.410171 A    
C14   C38   1.399011 A    
O6    C6    1.293193 A    
C22   H10   1.083019 S    
C42   C58   1.426891 A    
C108  H44   1.076661 S    
C45   C53   1.417345 A    
O28   C124  1.411668 S    
C42   C50   1.417348 A    
C15   C39   1.399020 A    
O29   C125  1.411631 S    
C100  C112  1.395879 A    
C116  H55   1.109238 S    
C94   C98   1.415190 A    
C113  H45   1.109289 S    
C59   C68   1.415741 A    
C114  H50   1.109227 S    
C66   C74   1.392254 A    
C128  H92   1.111338 S    
C39   C47   1.406060 A    
O5    Cu3   1.966840 S    
C28   O27   1.384826 S    
C91   C95   1.428243 A    
C38   C46   1.406023 A    
O6    Cu4   1.966839 S    
O23   C119  1.408642 S    
C41   C57   1.426940 A    
C86   H33   1.078554 S    
C35   C43   1.406056 A    
C118  H62   1.109341 S    
C125  H82   1.108507 S    
C103  C104  1.439748 A    
C104  C107  1.411214 A    
O13   Cu4   1.953787 S    
O3    C3    1.293186 A    
C64   C71   1.415755 A    
O14   Cu3   1.953787 S    
C68   H20   1.075612 S    
C81   C97   1.402979 A    
C29   O30   1.384801 S    
C16   C32   1.410165 A    
Cu4   N3    2.010333 S    
C93   C97   1.415189 A    
C39   H8    1.073434 S    
C24   C32   1.397776 A    
C92   H31   1.075683 S    
O15   C7    1.299418 A    
C37   H6    1.073491 S    
O16   C8    1.299405 A    
C21   H9    1.083034 S    
C124  H78   1.108557 S    
C71   H23   1.075600 S    
O1    Cu1   1.966840 S    
C70   H22   1.075614 S    
C81   H37   1.083717 S    
C82   C86   1.392682 A    
C33   C41   1.406046 A    
C60   C63   1.422711 A    
C44   C60   1.426900 A    
C31   O32   1.384781 S    
C21   C29   1.397736 A    
C89   H30   1.075683 S    
C107  H43   1.076662 S    
O9    Cu2   1.953787 S    
C4    C9    1.475264 S    
C126  H85   1.112948 S    
C23   C55   1.402863 A    
O10   C2    1.299403 A    
C105  H41   1.076660 S    
C22   C54   1.402850 A    
C125  H83   1.111220 S    
C14   C30   1.410189 A    
C117  H57   1.109254 S    
C55   C75   1.397159 A    
O19   C115  1.408703 S    
C48   C64   1.426934 A    
C115  H53   1.109303 S    
C92   C96   1.428245 A    
C108  C112  1.391485 A    
O24   C120  1.408641 S    
O2    Cu2   1.966839 S    
C90   C94   1.428244 A    
C77   O21   1.384303 S    
C72   C80   1.392272 A    
C110  H26   1.084029 S    
O22   C118  1.408738 S    
C43   C59   1.426922 A    
C34   C42   1.406029 A    
C121  H71   1.111343 S    
N1    C89   1.369891 A    
C120  H66   1.114419 S    
C87   H36   1.078557 S    
C107  C111  1.391498 A    
C35   H4    1.073459 S    
C102  C105  1.411215 A    
C123  H77   1.111250 S    
O7    Cu4   1.966835 S    
C118  H60   1.114592 S    
C69   C77   1.392256 A    
C9    C33   1.399008 A    
Cu2   N1    2.010333 S    
C115  H52   1.114493 S    
C116  H56   1.109235 S    
C121  H70   1.108540 S    
C101  C106  1.411218 A    
C67   H19   1.075623 S    
O25   C121  1.411639 S    
C63   C72   1.415774 A    
C46   C62   1.426910 A    
C97   C109  1.395877 A    
Cu3   N4    2.010332 S    
N3    C91   1.369892 A    
O15   Cu3   1.953789 S    
C122  H72   1.108532 S    
C69   H21   1.075623 S    
C119  H65   1.109250 S    
C33   H2    1.073433 S    
C84   C88   1.392685 A    
C7    C14   1.475273 S    
O32   C128  1.411592 S    
O12   C4    1.299400 A    
C36   C44   1.406028 A    
C125  H81   1.112913 S    
O13   C5    1.299406 A    
C66   H18   1.075596 S    
C103  C108  1.411228 A    
C83   C99   1.402980 A    
C26   O25   1.384837 S    
C40   C48   1.406040 A    
C40   H7    1.073449 S    
C22   C30   1.397807 A    
C127  H89   1.111366 S    
C81   C85   1.392681 A    
C61   C70   1.415728 A    
C24   H12   1.083032 S    
C58   C65   1.415744 A    
O9    C1    1.299403 A    
C122  H73   1.112978 S    
C72   H24   1.075592 S    
C43   C51   1.417364 A    
C57   C66   1.415764 A    
C19   H15   1.083044 S    
C106  H42   1.076663 S    
C85   H34   1.078555 S    
C15   C31   1.410138 A    
C1    C12   1.475254 S    
C111  H27   1.084028 S    
C65   H17   1.075624 S    
C47   C55   1.417383 A    
C17   C25   1.397740 A    
C109  H25   1.084028 S    
C128  H90   1.108529 S    
O10   Cu1   1.953787 S    
C127  H88   1.108542 S    
C27   O28   1.384796 S    
C52   C80   1.397137 A    
C126  H86   1.111333 S    
N1    C85   1.353829 A    
C20   C28   1.397753 A    
C89   C93   1.428245 A    
O30   C126  1.411604 S    
N2    C90   1.369891 A    
C13   C37   1.399025 A    
C95   C103  1.441766 A    
C20   C52   1.402840 A    
C123  H76   1.108508 S    
C84   C100  1.402979 A    
C10   C26   1.410174 A    
O3    Cu2   1.966835 S    
C74   O18   1.384298 S    
C36   H3    1.073496 S    
C37   C45   1.406043 A    
O20   C116  1.408636 S    
C16   C40   1.399012 A    
C116  H54   1.114283 S    
C67   C75   1.392330 A    
C126  H84   1.108526 S    
C98   C110  1.395877 A    
O4    C4    1.293179 A    
C75   O19   1.384355 S    
C120  H67   1.109315 S    
C113  H47   1.109267 S    
O1    C1    1.293175 A    
C8    C13   1.475268 S    
C38   H5    1.073481 S    
C41   C49   1.417372 A    
C115  H51   1.109392 S    
C94   C102  1.441763 A    
C124  H79   1.113043 S    
Cu1   Cu2   2.674711 S    
C88   H35   1.078553 S    
C114  H48   1.114269 S    
C96   C104  1.441764 A    
C71   C79   1.392272 A    
C101  C102  1.439749 A    
C56   C76   1.397173 A    
C48   C56   1.417363 A    
C58   C61   1.422685 A    
O14   C6    1.299392 A    
C20   H16   1.083028 S    
C51   C79   1.397152 A    
C57   C62   1.422713 A    
C23   C31   1.397721 A    
O7    C7    1.293164 A    
C83   H39   1.083717 S    
C123  H75   1.112891 S    
O8    C8    1.293179 A    
C12   C36   1.399024 A    
N4    C92   1.369891 A    
C73   O17   1.384304 S    
C25   O26   1.384805 S    
C44   C52   1.417323 A    
C105  C109  1.391495 A    
C91   H32   1.075683 S    
C32   O31   1.384834 S    
C113  H46   1.114377 S    
C18   C26   1.397781 A    
C119  H64   1.114326 S    
C21   C53   1.402840 A    
C23   H11   1.083048 S    
C76   O20   1.384314 S    
C122  H74   1.111361 S    
C17   H13   1.083036 S    
C119  H63   1.109263 S    
N2    C86   1.353827 A    
C80   O24   1.384297 S    
O26   C122  1.411626 S    
O5    C5    1.293184 A    
C124  H80   1.111438 S    
O12   Cu2   1.953787 S    
O27   C123  1.411585 S    
C118  H61   1.109467 S    
O8    Cu3   1.966833 S    
C19   C51   1.402846 A    
C45   C61   1.426898 A    
C78   O22   1.384389 S    
C11   C27   1.410158 A    
C2    C11   1.475266 S    
C117  H59   1.109245 S    
C24   C56   1.402859 A    
O18   C114  1.408624 S    
C128  H91   1.112936 S    
C3    C10   1.475287 S    
C121  H69   1.112990 S    
C70   C78   1.392407 A    
C9    C25   1.410145 A    
C50   C78   1.397156 A    
C49   C77   1.397162 A    
C127  H87   1.113006 S    
Cu3   Cu4   2.674711 S    
C46   C54   1.417339 A    
