data_mof_unit_39819.cif
_audit_creation_date              2013-03-05T15:41:51-0500
_audit_creation_method            fapswitch 2.2
_symmetry_space_group_name_H-M    P1
_symmetry_Int_Tables_number       1
_space_group_crystal_system       triclinic
_cell_length_a                    7.788379
_cell_length_b                    8.566822
_cell_length_c                    10.530914
_cell_angle_alpha                 91.239308
_cell_angle_beta                  85.325808
_cell_angle_gamma                 93.694497
_cell_volume                      698.753071898

loop_
_atom_site_label
_atom_site_type_symbol
_atom_site_description
_atom_site_fract_x
_atom_site_fract_y
_atom_site_fract_z
_atom_type_partial_charge
O1    O     O_R   0.389250 0.738570 0.508410 -0.604483
O2    O     O_R   0.610750 0.261430 0.491590 -0.604483
O3    O     O_R   0.678390 0.711620 0.486450 -0.635944
O4    O     O_R   0.321610 0.288380 0.513550 -0.635944
C1    C     C_R   0.545746 0.794667 0.496524 0.972167
C2    C     C_R   0.454253 0.205332 0.503476 0.972167
O5    O     O_R   0.355460 0.513510 0.697030 -0.576568
O6    O     O_R   0.644540 0.486490 0.302970 -0.576568
O7    O     O_R   0.644600 0.486560 0.675070 -0.603252
O8    O     O_R   0.355400 0.513440 0.324930 -0.603252
C3    C     C_R   0.501705 0.501531 0.742110 1.003999
C4    C     C_R   0.498295 0.498469 0.257890 1.003999
Zn1   Zn    Zn3+2 0.306940 0.517990 0.514670 1.048875
Zn2   Zn    Zn3+2 0.693060 0.482010 0.485330 1.048874
N1    N     N_2   0.950320 0.457950 0.465730 -0.144680
N2    N     N_2   0.049680 0.542050 0.534270 -0.144680
C5    C     C_3   0.451825 0.636598 0.965440 0.248114
C6    C     C_3   0.548175 0.363402 0.034560 0.248114
C7    C     C_3   0.610107 0.616878 0.040695 -0.320627
C8    C     C_3   0.389893 0.383122 0.959305 -0.320627
H1    H     H_    0.697785 0.712533 0.076258 0.244179
H2    H     H_    0.302215 0.287467 0.923742 0.244179
C9    C     C_3   0.496279 0.498150 0.123721 -0.301829
C10   C     C_3   0.503721 0.501850 0.876279 -0.301829
C11   C     C_3   0.338649 0.520989 0.049415 0.409361
C12   C     C_3   0.661351 0.479011 0.950585 0.409360
H3    H     H_    0.013674 0.382212 0.403861 0.224382
H4    H     H_    0.986326 0.617788 0.596139 0.224382
C13   C     C_2   0.569793 0.958216 0.494570 -0.270645
C14   C     C_2   0.430207 0.041784 0.505430 -0.270645
H5    H     H_    0.701612 0.009303 0.484213 0.185496
H6    H     H_    0.298388 0.990697 0.515787 0.185496
N3    N     N_R   0.397664 0.788153 0.929030 0.265603
O9    O     O_R   0.345526 0.887351 0.016868 -0.289866
O10   O     O_R   0.405154 0.827013 0.809948 -0.383297
N4    N     N_R   0.602336 0.211847 0.070970 0.265603
O11   O     O_R   0.654475 0.112649 0.983132 -0.289866
O12   O     O_R   0.594846 0.172987 0.190052 -0.383297
Cl1   Cl    Cl    0.125717 0.553254 0.116639 -0.470983
Cl2   Cl    Cl    0.874283 0.446746 0.883360 -0.470983

loop_
_geom_bond_atom_site_label_1
_geom_bond_atom_site_label_2
_geom_bond_distance
_ccdc_geom_bond_type
N2    H4    1.029335 S    
C7    C9    1.543014 S    
O7    Zn2   2.003031 S    
C13   C14   1.335666 D    
C14   H6    1.087827 S    
N1    H3    1.029335 S    
C6    C12   1.529130 S    
O6    C4    1.280057 A    
C5    C11   1.529130 S    
N4    O12   1.300185 A    
N3    O9    1.300758 A    
C13   H5    1.087828 S    
C11   Cl1   1.785246 S    
O5    C3    1.280058 A    
O7    C3    1.280580 A    
C4    C9    1.414231 S    
C12   Cl2   1.785246 S    
O2    C2    1.278467 A    
O3    Zn2   1.977406 S    
C5    N3    1.459147 S    
O1    C1    1.278467 A    
O8    C4    1.280579 A    
N4    O11   1.300757 A    
N3    O10   1.300185 A    
C10   C12   1.533611 S    
C1    C13   1.401909 S    
C9    C11   1.533611 S    
O2    Zn2   1.956666 S    
C5    C10   1.526086 S    
O1    Zn1   1.956666 S    
C8    C11   1.550894 S    
C6    C9    1.526086 S    
C8    C10   1.543013 S    
C3    C10   1.414231 S    
O5    Zn1   1.988873 S    
C6    C8    1.538882 S    
O4    C2    1.287737 A    
Zn1   N2    2.020801 S    
O4    Zn1   1.977406 S    
C7    C12   1.550894 S    
Zn2   N1    2.020800 S    
C5    C7    1.538883 S    
O6    Zn2   1.988871 S    
C7    H1    1.111026 S    
C6    N4    1.459147 S    
C2    C14   1.401909 S    
N1    N2    1.278903 D    
C8    H2    1.111026 S    
O3    C1    1.287737 A    
O8    Zn1   2.003031 S    
