data_mof_unit_49866.cif
_audit_creation_date              2012-12-11T14:21:12-0500
_audit_creation_method            fapswitch 2.2
_symmetry_space_group_name_H-M    P1
_symmetry_Int_Tables_number       1
_space_group_crystal_system       triclinic
_cell_length_a                    21.952088
_cell_length_b                    7.207684
_cell_length_c                    14.925173
_cell_angle_alpha                 89.998794
_cell_angle_beta                  106.906963
_cell_angle_gamma                 89.999444
_cell_volume                      2259.44742513

loop_
_atom_site_label
_atom_site_type_symbol
_atom_type_description
_atom_site_fract_x
_atom_site_fract_y
_atom_site_fract_z
_atom_type_partial_charge
O1    O     O_R   0.584770 0.505770 0.002090 -0.540772
O2    O     O_R   0.415230 0.005770 0.997910 -0.540773
O3    O     O_R   0.467060 0.173340 0.861950 -0.539011
O4    O     O_R   0.532940 0.673340 0.138050 -0.539014
C1    C     C_R   0.455416 0.344190 0.825974 0.676167
C2    C     C_R   0.544586 0.844186 0.174027 0.676166
O5    O     O_R   0.587510 0.175890 0.993210 -0.541264
O6    O     O_R   0.412490 0.675890 0.006790 -0.541263
O7    O     O_R   0.536540 0.008150 0.130100 -0.536268
O8    O     O_R   0.463460 0.508150 0.869900 -0.536269
C3    C     C_R   0.612941 0.344930 0.997317 0.731319
C4    C     C_R   0.387059 0.844931 0.002684 0.731326
O9    O     O_3   0.483140 0.340040 0.044760 -0.378037
O10   O     O_3   0.516860 0.840040 0.955240 -0.378039
V1    V     V_3+5 0.503130 0.064190 0.991700 1.413336
V2    V     V_3+5 0.496870 0.564190 0.008300 1.413339
C5    C     C_2   0.214180 0.727692 0.004366 -0.131278
C6    C     C_2   0.785821 0.227694 0.995637 -0.131272
C7    C     C_2   0.180396 0.886726 0.996564 -0.307181
C8    C     C_2   0.819603 0.386728 0.003436 -0.307187
H1    H     H_    0.191151 0.596984 0.010615 0.138644
H2    H     H_    0.808852 0.096986 0.989391 0.138648
H3    H     H_    0.201911 0.018880 0.989304 0.127565
H4    H     H_    0.798087 0.518882 0.010693 0.127567
C9    C     C_2   0.282077 0.714636 0.004180 -0.142957
C10   C     C_2   0.717925 0.214635 0.995823 -0.142958
C11   C     C_2   0.320004 0.861443 0.003842 -0.304348
C12   C     C_2   0.679996 0.361441 0.996158 -0.304348
H5    H     H_    0.301334 0.575657 0.004958 0.136549
H6    H     H_    0.698669 0.075656 0.995046 0.136549
H7    H     H_    0.302033 0.001267 0.004096 0.130662
H8    H     H_    0.697965 0.501266 0.995903 0.130665
C13   C     C_R   0.926261 0.888900 0.724264 -0.028398
C14   C     C_R   0.073738 0.388856 0.275734 -0.028370
C15   C     C_R   0.572279 0.850422 0.275561 -0.017986
C16   C     C_R   0.427720 0.350436 0.724441 -0.017982
C17   C     C_R   0.935012 0.930761 0.568279 -0.167817
C18   C     C_R   0.064968 0.430306 0.431733 -0.167815
C19   C     C_R   0.963456 0.921704 0.664458 -0.174600
C20   C     C_R   0.036530 0.421393 0.335548 -0.174629
C21   C     C_R   0.860389 0.865803 0.688046 -0.211226
C22   C     C_R   0.139615 0.365869 0.311947 -0.211206
C23   C     C_R   0.829795 0.879157 0.590552 0.102847
C24   C     C_R   0.170199 0.379022 0.409450 0.102849
C25   C     C_R   0.868790 0.911373 0.531051 0.139635
C26   C     C_R   0.131194 0.411004 0.468959 0.139636
C27   C     C_R   0.762158 0.864553 0.550414 0.019576
C28   C     C_R   0.237837 0.364439 0.449590 0.019566
C29   C     C_R   0.734984 0.881225 0.451329 0.055531
C30   C     C_R   0.265005 0.381011 0.548681 0.055532
C31   C     C_R   0.776291 0.912631 0.395635 -0.170633
C32   C     C_R   0.223689 0.412181 0.604383 -0.170620
C33   C     C_R   0.841584 0.926864 0.434848 -0.206387
C34   C     C_R   0.158392 0.426330 0.565170 -0.206388
C35   C     C_R   0.720936 0.835638 0.606229 -0.259838
C36   C     C_R   0.279063 0.335596 0.393775 -0.259814
C37   C     C_R   0.655083 0.822823 0.567695 0.268693
C38   C     C_R   0.344917 0.322831 0.432310 0.268673
C39   C     C_R   0.627964 0.834302 0.470211 0.100806
C40   C     C_R   0.372035 0.334317 0.529793 0.100786
C41   C     C_R   0.667511 0.865092 0.411050 0.028314
C42   C     C_R   0.332483 0.364989 0.588957 0.028317
C43   C     C_R   0.561723 0.811401 0.430618 -0.140054
C44   C     C_R   0.438282 0.311535 0.569381 -0.140050
C45   C     C_R   0.534338 0.818308 0.334176 -0.195716
C46   C     C_R   0.465667 0.318432 0.665823 -0.195724
C47   C     C_R   0.637833 0.874942 0.313185 -0.188172
C48   C     C_R   0.362161 0.374855 0.686821 -0.188169
H9    H     H_    0.871139 0.951736 0.389126 0.122998
H10   H     H_    0.128828 0.451004 0.610900 0.122993
H11   H     H_    0.664056 0.896065 0.263318 0.093279
H12   H     H_    0.335938 0.395944 0.736690 0.093273
H13   H     H_    0.483527 0.797373 0.305101 0.109288
H14   H     H_    0.516482 0.297575 0.694895 0.109304
H15   H     H_    0.964741 0.956260 0.522908 0.118870
H16   H     H_    0.035231 0.455605 0.477111 0.118868
H17   H     H_    0.014400 0.941682 0.692375 0.107619
H18   H     H_    0.985581 0.441266 0.307635 0.107610
H19   H     H_    0.834753 0.842518 0.738509 0.095432
H20   H     H_    0.165260 0.342826 0.261475 0.095407
H21   H     H_    0.760035 0.928312 0.320809 0.120923
H22   H     H_    0.239936 0.427693 0.679218 0.120912
H23   H     H_    0.738084 0.824190 0.681219 0.126680
H24   H     H_    0.261918 0.324124 0.318787 0.126693
H25   H     H_    0.530708 0.784760 0.473838 0.157095
H26   H     H_    0.469301 0.284999 0.526157 0.157119
O11   O     O_R   0.036450 0.233070 0.130130 -0.538355
O12   O     O_R   0.963550 0.733070 0.869870 -0.538358
O13   O     O_R   0.912470 0.560570 0.006790 -0.545614
O14   O     O_R   0.087530 0.060570 0.993210 -0.545614
C49   C     C_R   0.886962 0.391926 0.002476 0.730699
C50   C     C_R   0.113038 0.891925 0.997524 0.730702
O15   O     O_R   0.032920 0.562940 0.138050 -0.538593
O16   O     O_R   0.967080 0.062940 0.861950 -0.538593
O17   O     O_R   0.084790 0.730500 0.002090 -0.536931
O18   O     O_R   0.915210 0.230500 0.997910 -0.536930
C51   C     C_R   0.044982 0.394606 0.174421 0.685202
C52   C     C_R   0.955016 0.894612 0.825578 0.685203
O19   O     O_3   0.016820 0.396170 0.955260 -0.378509
O20   O     O_3   0.983180 0.896170 0.044740 -0.378506
V3    V     V_3+5 0.996880 0.672090 0.008300 1.413344
V4    V     V_3+5 0.003120 0.172090 0.991700 1.413344
N1    N     N_2   0.616267 0.794875 0.628268 -0.528442
H27   H     H_    0.636951 0.711656 0.685264 0.256485
C53   C     C_3   0.590817 0.964129 0.655223 -0.565372
H28   H     H_    0.630030 0.052198 0.698336 0.194011
H29   H     H_    0.558002 0.929618 0.697096 0.206795
H30   H     H_    0.563679 0.043087 0.592360 0.205399
N2    N     N_2   0.383737 0.294928 0.371741 -0.528442
H31   H     H_    0.363080 0.211605 0.314778 0.256491
C54   C     C_3   0.409124 0.464224 0.344717 -0.565398
H32   H     H_    0.369881 0.552084 0.301512 0.194004
H33   H     H_    0.441987 0.429759 0.302914 0.206804
H34   H     H_    0.436194 0.543384 0.407548 0.205380

loop_
_geom_bond_atom_site_label_1
_geom_bond_atom_site_label_2
_ccdc_geom_bond_type
C43   C45   A    
C22   H20   S    
C17   C25   A    
O18   V4    S    
C38   N2    S    
C54   H32   S    
C14   C22   A    
C33   H9    S    
C2    O7    A    
O12   V3    S    
C27   C29   A    
C18   H16   S    
O5    C3    A    
C53   H29   S    
C13   C19   A    
C14   C20   A    
C19   H17   S    
N2    C54   S    
C16   C46   A    
C37   C39   A    
C15   C45   A    
C38   C40   A    
C46   H14   S    
C1    C16   S    
C14   C51   S    
C45   H13   S    
C2    C15   S    
C40   C42   A    
C13   C52   S    
O14   V4    S    
C7    C50   S    
C49   O18   A    
C54   H33   S    
C8    H4    S    
C24   C26   A    
C29   C31   A    
C6    C10   S    
C30   C32   A    
O13   C49   A    
C31   H21   S    
C47   H11   S    
C48   H12   S    
C28   C30   A    
C17   H15   S    
O2    C4    A    
O6    V2    S    
C43   H25   S    
C21   C23   A    
C22   C24   A    
C44   H26   S    
C53   H30   S    
C32   C34   A    
C36   H24   S    
C9    H5    S    
C37   N1    S    
C8    C49   S    
C39   C41   A    
C29   C41   A    
C4    C11   S    
C11   H7    S    
C12   H8    S    
O4    C2    A    
O15   V3    S    
C50   O17   A    
C5    H1    S    
C31   C33   A    
C44   C46   A    
O4    V2    S    
C7    H3    S    
O11   V4    S    
C41   C47   A    
O14   C50   A    
C34   H10   S    
C15   C47   A    
O6    C4    A    
C26   C34   A    
N1    C53   S    
O1    V2    S    
C32   H22   S    
O2    V1    S    
C23   C25   A    
C10   H6    S    
C35   C37   A    
C30   C42   A    
C20   H18   S    
C35   H23   S    
O15   C51   A    
O3    V1    S    
C27   C35   A    
C28   C36   A    
O13   V3    S    
C6    H2    S    
C10   C12   D    
O3    C1    A    
C21   H19   S    
C16   C48   A    
C9    C11   D    
C53   H28   S    
C39   C43   A    
C42   C48   A    
C40   C44   A    
C13   C21   A    
O7    V1    S    
C5    C9    S    
C1    O8    A    
C17   C19   A    
O8    V2    S    
N2    H31   S    
C18   C20   A    
C3    C12   S    
O5    V1    S    
O20   V3    S    
C5    C7    D    
C36   C38   A    
C54   H34   S    
C6    C8    D    
C18   C26   A    
C25   C33   A    
O17   V3    S    
O19   V4    S    
O16   V4    S    
O9    V2    S    
N1    H27   S    
O16   C52   A    
O10   V1    S    
O1    C3    A    
C23   C27   A    
O12   C52   A    
C24   C28   A    
O11   C51   A    
