data_mof_unit_33860.cif
_audit_creation_date              2012-12-10T17:23:13-0500
_audit_creation_method            fapswitch 2.2
_symmetry_space_group_name_H-M    P1
_symmetry_Int_Tables_number       1
_space_group_crystal_system       triclinic
_cell_length_a                    15.865701
_cell_length_b                    10.867268
_cell_length_c                    9.58242
_cell_angle_alpha                 90.305004
_cell_angle_beta                  90.011103
_cell_angle_gamma                 92.528233
_cell_volume                      1650.53867955

loop_
_atom_site_label
_atom_site_type_symbol
_atom_type_description
_atom_site_fract_x
_atom_site_fract_y
_atom_site_fract_z
_atom_type_partial_charge
C1    C     C_R   0.506534 0.263023 0.500463 0.799266
C2    C     C_3   0.082816 0.500747 0.502382 0.174762
C3    C     C_3   0.974559 0.602086 0.569324 -0.227860
C4    C     C_3   0.917112 0.501148 0.501355 0.178236
C5    C     C_3   0.031248 0.602427 0.437265 -0.174555
C6    C     C_3   0.972118 0.501706 0.369376 -0.133287
C7    C     C_1   0.174576 0.500367 0.500861 0.000835
C8    C     C_1   0.825427 0.501124 0.500569 -0.065999
C9    C     C_R   0.552167 0.121573 0.756255 -0.161203
C10   C     C_R   0.541138 0.063336 0.884500 -0.160773
C11   C     C_R   0.499326 0.948640 0.890553 -0.136137
C12   C     C_R   0.339891 0.499647 0.499978 0.829554
C13   C     C_R   0.476463 0.886933 0.767455 -0.155657
C14   C     C_R   0.496013 0.939198 0.635196 0.091846
C15   C     C_R   0.521391 0.064972 0.631432 0.097203
C16   C     C_R   0.513849 0.129145 0.503494 -0.118805
C17   C     C_R   0.501822 0.063108 0.378788 -0.212333
C18   C     C_R   0.494666 0.935941 0.380029 -0.213894
C19   C     C_R   0.491674 0.872197 0.506735 -0.111707
C20   C     C_R   0.611402 0.665094 0.145046 -0.148653
C21   C     C_R   0.665253 0.746409 0.073156 -0.223570
C22   C     C_R   0.665363 0.746153 0.929417 -0.196825
C23   C     C_R   0.495253 0.737559 0.501446 0.776635
C24   C     C_R   0.611493 0.664760 0.856714 -0.137398
C25   C     C_R   0.554678 0.581209 0.925606 0.190214
C26   C     C_R   0.554640 0.581261 0.075287 0.206258
C27   C     C_R   0.448298 0.422318 0.073446 -0.060318
C28   C     C_R   0.448314 0.422362 0.925450 -0.048642
C29   C     C_R   0.660105 0.500464 0.500050 0.801626
C30   C     C_3   0.968220 0.399268 0.566736 -0.225691
C31   C     C_3   0.024904 0.400033 0.434688 -0.175242
C32   C     C_1   0.250146 0.500004 0.500130 -0.149926
C33   C     C_1   0.749848 0.500884 0.500186 -0.182324
C34   C     C_3   0.027050 0.500207 0.632758 0.058703
Cu1   Cu    Cu3+1 0.499990 0.499990 0.640660 0.931860
Cu2   Cu    Cu3+1 0.500010 0.500010 0.359340 0.934411
H1    H     H_    0.046585 0.317235 0.379258 0.139419
H2    H     H_    0.486221 0.906048 0.990583 0.139114
H3    H     H_    0.440943 0.800694 0.779005 0.173615
H4    H     H_    0.490118 0.887605 0.280945 0.165452
H5    H     H_    0.405961 0.358635 0.128368 0.140998
H6    H     H_    0.617567 0.672105 0.255003 0.200337
H7    H     H_    0.707555 0.809725 0.129731 0.150937
H8    H     H_    0.707582 0.809473 0.873473 0.150522
H9    H     H_    0.617169 0.672069 0.746805 0.200422
H10   H     H_    0.406012 0.358670 0.869670 0.152954
H11   H     H_    0.941351 0.316170 0.620404 0.133804
H12   H     H_    0.948108 0.502344 0.260564 0.132390
H13   H     H_    0.058138 0.685670 0.383947 0.140185
H14   H     H_    0.952860 0.684717 0.625100 0.133115
H15   H     H_    0.497991 0.109668 0.279432 0.161874
H16   H     H_    0.586619 0.209562 0.756397 0.162883
H17   H     H_    0.562896 0.108827 0.979501 0.135438
N1    N     N_R   0.500800 0.501210 0.147910 -0.199791
N2    N     N_R   0.500830 0.501290 0.852040 -0.206789
O1    O     O_R   0.499990 0.319640 0.618810 -0.589794
O2    O     O_R   0.500000 0.319660 0.381240 -0.582376
O3    O     O_R   0.379070 0.499980 0.618770 -0.558360
O4    O     O_R   0.379080 0.500000 0.381190 -0.574053
O5    O     O_R   0.500000 0.680340 0.618760 -0.614370
O6    O     O_R   0.500010 0.680360 0.381190 -0.599768
O7    O     O_R   0.620920 0.500000 0.618810 -0.598460
O8    O     O_R   0.620930 0.500020 0.381230 -0.590611
C35   C     C_2   0.055208 0.499374 0.781897 0.328625
H18   H     H_    0.008551 0.499079 0.864610 0.058282
O9    O     O_2   0.130023 0.499030 0.811252 -0.536601

loop_
_geom_bond_atom_site_label_1
_geom_bond_atom_site_label_2
_ccdc_geom_bond_type
Cu1   O1    S    
C11   H2    S    
C19   C23   S    
C24   C25   A    
C29   O8    A    
Cu2   O6    S    
C1    O2    A    
Cu2   O8    S    
C9    C10   A    
C27   H5    S    
C20   H6    S    
C2    C7    S    
C14   C15   A    
C4    C8    S    
Cu2   O4    S    
C12   O3    A    
C35   H18   S    
C17   H15   S    
C35   O9    D    
C34   C35   S    
C17   C18   A    
C9    C15   A    
C27   N1    A    
C4    C30   S    
C1    C16   S    
C21   H7    S    
C13   C14   A    
C12   C32   S    
C11   C13   A    
C28   H10   S    
C30   C31   S    
C9    H16   S    
C20   C26   A    
Cu1   O3    S    
C5    C6    S    
C24   H9    S    
C26   N1    A    
C28   N2    A    
C6    C31   S    
Cu1   O7    S    
C8    C33   T    
C23   O5    A    
C2    C34   S    
C22   C24   A    
C5    H13   S    
C2    C5    S    
C13   H3    S    
C10   C11   A    
C30   C34   S    
Cu1   N2    S    
C15   C16   A    
Cu1   O5    S    
C29   C33   S    
C30   H11   S    
C23   O6    A    
Cu2   N1    S    
C20   C21   A    
Cu2   O2    S    
C4    C6    S    
C18   C19   A    
C3    H14   S    
C27   C28   A    
C10   H17   S    
C18   H4    S    
C29   O7    A    
C16   C17   A    
C7    C32   T    
C3    C34   S    
C25   C26   A    
C21   C22   A    
C12   O4    A    
C14   C19   A    
C1    O1    A    
C22   H8    S    
C3    C4    S    
C25   N2    A    
C31   H1    S    
C2    C31   S    
C3    C5    S    
Cu1   Cu2   S    
C6    H12   S    
