data_mof_unit_62805.cif
_audit_creation_date              2012-10-26T20:21:28-0400
_audit_creation_method            fapswitch 2.2
_symmetry_space_group_name_H-M    P1
_symmetry_Int_Tables_number       1
_space_group_crystal_system       triclinic
_cell_length_a                    10.836482
_cell_length_b                    9.522912
_cell_length_c                    11.714487
_cell_angle_alpha                 90.009499
_cell_angle_beta                  90.183295
_cell_angle_gamma                 89.989034
_cell_volume                      1208.86867378

loop_
_atom_site_label
_atom_site_type_symbol
_atom_type_description
_atom_site_fract_x
_atom_site_fract_y
_atom_site_fract_z
_atom_type_partial_charge
C1    C     C_R   0.262147 0.500006 0.499920 0.605563
C2    C     C_R   0.935906 0.613908 0.452865 0.350806
C3    C     C_R   0.936321 0.386105 0.547220 0.348163
C4    C     C_R   0.063678 0.613894 0.452780 0.348163
C5    C     C_R   0.871659 0.500001 0.500068 -0.099917
C6    C     C_R   0.128341 0.499999 0.499932 -0.099917
C7    C     C_R   0.421575 0.074401 0.430604 0.059028
C8    C     C_R   0.578425 0.925599 0.569396 0.059028
C9    C     C_R   0.578396 0.074388 0.569421 0.059779
C10   C     C_R   0.421604 0.925612 0.430579 0.059778
C11   C     C_R   0.737853 0.499993 0.500080 0.605564
C12   C     C_R   0.499946 0.499993 0.283909 0.551210
C13   C     C_R   0.500054 0.500007 0.716091 0.551211
C14   C     C_1   0.499952 0.499983 0.162275 0.019882
C15   C     C_1   0.500048 0.500017 0.837725 0.019882
C16   C     C_1   0.499979 0.499992 0.059862 -0.004246
C17   C     C_1   0.500021 0.500008 0.940138 -0.004246
C18   C     C_R   0.064094 0.386091 0.547135 0.350806
Cu1   Cu    Cu3+1 0.500000 0.640660 0.500000 1.057126
Cu2   Cu    Cu3+1 0.500000 0.359340 0.500000 1.057126
F1    F     F_    0.124629 0.276353 0.595875 -0.542593
F2    F     F_    0.875371 0.723647 0.404125 -0.542593
F3    F     F_    0.876227 0.276419 0.596084 -0.563561
F4    F     F_    0.123773 0.723581 0.403916 -0.563561
H1    H     H_    0.358745 0.130441 0.374981 0.139810
H2    H     H_    0.641255 0.869559 0.625019 0.139810
H3    H     H_    0.641130 0.130410 0.625129 0.173258
H4    H     H_    0.358870 0.869590 0.374871 0.173258
N1    N     N_R   0.500000 0.852070 0.500000 -0.238604
N2    N     N_R   0.500000 0.147930 0.500000 -0.238604
O1    O     O_R   0.319640 0.618740 0.499990 -0.456342
O2    O     O_R   0.680360 0.381260 0.500010 -0.456342
O3    O     O_R   0.680360 0.618740 0.500010 -0.455064
O4    O     O_R   0.319640 0.381260 0.499990 -0.455063
O5    O     O_R   0.500010 0.618790 0.337200 -0.490104
O6    O     O_R   0.499990 0.381210 0.662800 -0.490104
O7    O     O_R   0.499990 0.618790 0.662800 -0.514195
O8    O     O_R   0.500010 0.381210 0.337200 -0.514195

loop_
_geom_bond_atom_site_label_1
_geom_bond_atom_site_label_2
_ccdc_geom_bond_type
C2    F2    S    
C7    C10   A    
C2    C4    A    
C18   F1    S    
C8    H2    S    
C3    F3    S    
Cu1   Cu2   S    
C7    H1    S    
C1    O1    A    
Cu1   O1    S    
Cu2   O4    S    
C7    N2    A    
Cu2   N2    S    
C12   O5    A    
C10   N1    A    
C9    N2    A    
C3    C18   A    
C6    C18   A    
C8    N1    A    
C12   C14   S    
C11   O2    A    
C5    C11   S    
C13   C15   S    
C12   O8    A    
C4    F4    S    
C14   C16   T    
C2    C5    A    
C1    C6    S    
Cu1   N1    S    
C11   O3    A    
Cu2   O8    S    
C1    O4    A    
C9    H3    S    
C13   O6    A    
C4    C6    A    
Cu2   O2    S    
C10   H4    S    
C15   C17   T    
C8    C9    A    
Cu1   O5    S    
Cu1   O7    S    
C13   O7    A    
Cu1   O3    S    
C16   C17   S    
C3    C5    A    
Cu2   O6    S    
