data_mof_unit_17654.cif
_audit_creation_date              2012-12-11T15:06:47-0500
_audit_creation_method            fapswitch 2.2
_symmetry_space_group_name_H-M    P1
_symmetry_Int_Tables_number       1
_space_group_crystal_system       triclinic
_cell_length_a                    19.656118
_cell_length_b                    11.379101
_cell_length_c                    18.700061
_cell_angle_alpha                 90.114901
_cell_angle_beta                  90.281979
_cell_angle_gamma                 89.994429
_cell_volume                      4182.56396656

loop_
_atom_site_label
_atom_site_type_symbol
_atom_type_description
_atom_site_fract_x
_atom_site_fract_y
_atom_site_fract_z
_atom_type_partial_charge
C1    C     C_R   0.760865 0.525387 0.639904 0.534262
C2    C     C_R   0.238635 0.523337 0.360996 0.535434
C3    C     C_R   0.260865 0.025387 0.639904 0.534259
C4    C     C_R   0.738635 0.023337 0.360996 0.535435
C5    C     C_3   0.808637 0.132506 0.450306 -0.260155
C6    C     C_3   0.184323 0.117688 0.550589 -0.253925
C7    C     C_3   0.308637 0.632506 0.450306 -0.260155
C8    C     C_3   0.684323 0.617687 0.550588 -0.253925
C9    C     C_3   0.746624 0.055990 0.437309 0.067506
C10   C     C_3   0.252631 0.059899 0.564052 0.065466
C11   C     C_3   0.246624 0.555991 0.437309 0.067506
C12   C     C_3   0.752631 0.559899 0.564052 0.065465
C13   C     C_3   0.758070 0.087968 0.575441 0.065049
C14   C     C_3   0.239440 0.092522 0.426350 0.067213
C15   C     C_3   0.258070 0.587968 0.575441 0.065049
C16   C     C_3   0.739440 0.592522 0.426350 0.067213
C17   C     C_3   0.762768 0.957252 0.561211 -0.256732
C18   C     C_3   0.246865 0.961492 0.438175 -0.260233
C19   C     C_3   0.262768 0.457252 0.561211 -0.256730
C20   C     C_3   0.746866 0.461492 0.438175 -0.260233
C21   C     C_3   0.813785 0.150362 0.531560 -0.218867
C22   C     C_3   0.175461 0.130389 0.469722 -0.214335
C23   C     C_3   0.313785 0.650362 0.531560 -0.218868
C24   C     C_3   0.675461 0.630389 0.469722 -0.214335
C25   C     C_3   0.007211 0.205286 0.460398 -0.232913
C26   C     C_3   0.006090 0.205264 0.543088 -0.240901
C27   C     C_3   0.507211 0.705286 0.460398 -0.232913
C28   C     C_3   0.506090 0.705264 0.543088 -0.240900
C29   C     C_3   0.063696 0.410182 0.474599 -0.211622
C30   C     C_3   0.932155 0.384748 0.526121 -0.220093
C31   C     C_3   0.563696 0.910182 0.474599 -0.211623
C32   C     C_3   0.432155 0.884749 0.526121 -0.220095
C33   C     C_3   0.942603 0.387666 0.444981 -0.261190
C34   C     C_3   0.054800 0.404145 0.555554 -0.255602
C35   C     C_3   0.442604 0.887666 0.444981 -0.261189
C36   C     C_3   0.554800 0.904145 0.555554 -0.255602
C37   C     C_3   0.011707 0.333313 0.431527 0.065775
C38   C     C_3   0.991734 0.331902 0.570105 0.063277
C39   C     C_3   0.511707 0.833313 0.431527 0.065774
C40   C     C_3   0.491733 0.831902 0.570105 0.063276
C41   C     C_3   0.819083 0.029863 0.047454 -0.276805
C42   C     C_3   0.180880 0.029762 0.952522 -0.276780
C43   C     C_3   0.319084 0.529854 0.047450 -0.276810
C44   C     C_3   0.680882 0.529759 0.952526 -0.276788
C45   C     C_R   0.772868 0.118633 0.650776 0.533149
C46   C     C_R   0.225620 0.122116 0.350883 0.537458
C47   C     C_R   0.272868 0.618633 0.650776 0.533148
C48   C     C_R   0.725621 0.622115 0.350883 0.537456
C49   C     C_3   0.818746 0.026634 0.966842 -0.258151
C50   C     C_3   0.181260 0.026198 0.033100 -0.258641
C51   C     C_3   0.318743 0.526619 0.966838 -0.258159
C52   C     C_3   0.681263 0.526185 0.033103 -0.258640
C53   C     C_3   0.691447 0.012411 0.030315 -0.183013
C54   C     C_3   0.308578 0.012279 0.969285 -0.182434
C55   C     C_3   0.191444 0.512423 0.030310 -0.183012
C56   C     C_3   0.808583 0.512262 0.969297 -0.182422
C57   C     C_3   0.740996 0.202094 0.061962 0.096573
C58   C     C_3   0.258906 0.202107 0.938637 0.095785
C59   C     C_3   0.241014 0.702097 0.061959 0.096578
C60   C     C_3   0.758910 0.702095 0.938642 0.095796
C61   C     C_3   0.747948 0.070994 0.075492 0.087307
C62   C     C_3   0.251990 0.071092 0.924535 0.087682
C63   C     C_3   0.247951 0.570993 0.075489 0.087316
C64   C     C_3   0.751996 0.571078 0.924541 0.087679
C65   C     C_3   0.760452 0.105567 0.936510 0.023300
C66   C     C_3   0.239648 0.104831 0.063653 0.023184
C67   C     C_3   0.260454 0.605568 0.936507 0.023293
C68   C     C_3   0.739649 0.604826 0.063657 0.023185
C69   C     C_3   0.693843 0.041910 0.949499 -0.247732
C70   C     C_3   0.306153 0.040946 0.050308 -0.248481
C71   C     C_3   0.193841 0.541928 0.949496 -0.247740
C72   C     C_3   0.806156 0.540945 0.050318 -0.248462
C73   C     C_3   0.756255 0.220116 0.981327 -0.150998
C74   C     C_3   0.243885 0.219593 0.019400 -0.149933
C75   C     C_3   0.256264 0.720118 0.981320 -0.150995
C76   C     C_3   0.743887 0.719587 0.019404 -0.149932
C77   C     C_3   0.998840 0.480548 0.040744 -0.232815
C78   C     C_3   0.001232 0.480629 0.959486 -0.233192
C79   C     C_3   0.498842 0.980530 0.040744 -0.232861
C80   C     C_3   0.501240 0.980610 0.959486 -0.233254
C81   C     C_3   0.067112 0.291863 0.026893 -0.223612
C82   C     C_3   0.933056 0.291841 0.972884 -0.223429
C83   C     C_3   0.567125 0.791865 0.026874 -0.223708
C84   C     C_3   0.433029 0.791887 0.972912 -0.223542
C85   C     C_3   0.946063 0.283308 0.054148 -0.258195
C86   C     C_3   0.054106 0.283508 0.945583 -0.257966
C87   C     C_3   0.446092 0.783245 0.054158 -0.258157
C88   C     C_3   0.554073 0.783436 0.945578 -0.257915
C89   C     C_R   0.970413 0.341820 0.645969 0.531487
C90   C     C_R   0.031629 0.342315 0.355336 0.534657
C91   C     C_R   0.470413 0.841820 0.645969 0.531493
C92   C     C_R   0.531629 0.842315 0.355336 0.534662
C93   C     C_3   0.010045 0.352881 0.069565 0.057669
C94   C     C_3   0.990076 0.353032 0.930359 0.057896
C95   C     C_3   0.510061 0.852862 0.069563 0.057689
C96   C     C_3   0.490059 0.853017 0.930365 0.057917
C97   C     C_R   0.760328 0.534315 0.848370 0.525736
C98   C     C_R   0.239594 0.534002 0.151550 0.526849
C99   C     C_R   0.260324 0.034327 0.848365 0.525726
C100  C     C_R   0.739594 0.034004 0.151552 0.526845
C101  C     C_R   0.774638 0.133948 0.859324 0.530217
C102  C     C_R   0.225514 0.133373 0.140851 0.531078
C103  C     C_R   0.274638 0.633946 0.859322 0.530217
C104  C     C_R   0.725514 0.633372 0.140852 0.531080
C105  C     C_R   0.968766 0.353620 0.853699 0.531587
C106  C     C_R   0.031277 0.353521 0.146258 0.532663
C107  C     C_R   0.468749 0.853619 0.853709 0.531635
C108  C     C_R   0.531292 0.853519 0.146252 0.532709
C109  C     C_3   0.685197 0.127079 0.466826 -0.234066
C110  C     C_3   0.308115 0.145967 0.537380 -0.243094
C111  C     C_3   0.185197 0.627079 0.466826 -0.234067
C112  C     C_3   0.808115 0.645967 0.537380 -0.243094
C113  C     C_3   0.687027 0.129805 0.548891 -0.239818
C114  C     C_3   0.306131 0.150067 0.455422 -0.232791
C115  C     C_3   0.187027 0.629805 0.548891 -0.239819
C116  C     C_3   0.806130 0.650068 0.455422 -0.232791
C117  C     C_3   0.759898 0.939745 0.480010 -0.215508
C118  C     C_3   0.255292 0.944790 0.519189 -0.224480
C119  C     C_3   0.259898 0.439745 0.480010 -0.215506
C120  C     C_3   0.755292 0.444790 0.519189 -0.224480
Cr1   Cr    Cr6+3 0.885690 0.492860 0.745310 1.000306
Cr2   Cr    Cr6+3 0.114310 0.492860 0.254690 1.001105
Cr3   Cr    Cr6+3 0.385690 0.992860 0.745310 1.000308
Cr4   Cr    Cr6+3 0.614310 0.992860 0.254690 1.001099
Cr5   Cr    Cr6+3 0.729880 0.332270 0.748190 0.994358
Cr6   Cr    Cr6+3 0.270120 0.332270 0.251810 0.995268
Cr7   Cr    Cr6+3 0.229880 0.832270 0.748190 0.994351
Cr8   Cr    Cr6+3 0.770120 0.832270 0.251810 0.995264
Cr9   Cr    Cr6+3 0.888120 0.178590 0.753010 0.995781
Cr10  Cr    Cr6+3 0.111880 0.178590 0.246990 0.996603
Cr11  Cr    Cr6+3 0.388120 0.678590 0.753010 0.995784
Cr12  Cr    Cr6+3 0.611880 0.678590 0.246990 0.996601
H1    H     H_    0.636821 0.095559 0.446869 0.133293
H2    H     H_    0.359825 0.123800 0.555749 0.128833
H3    H     H_    0.136821 0.595559 0.446869 0.133294
H4    H     H_    0.859825 0.623800 0.555749 0.128833
H5    H     H_    0.864637 0.122845 0.549450 0.135564
H6    H     H_    0.135268 0.066687 0.455029 0.129068
H7    H     H_    0.364637 0.622848 0.549450 0.135564
H8    H     H_    0.635268 0.566687 0.455028 0.129068
H9    H     H_    0.811620 0.910512 0.465215 0.127743
H10   H     H_    0.217348 0.880936 0.537918 0.131528
H11   H     H_    0.311620 0.410512 0.465214 0.127743
H12   H     H_    0.717348 0.380936 0.537918 0.131528
H13   H     H_    0.811666 0.922871 0.582929 0.128488
H14   H     H_    0.201321 0.913290 0.418332 0.122297
H15   H     H_    0.311667 0.422872 0.582928 0.128489
H16   H     H_    0.701322 0.413290 0.418331 0.122296
H17   H     H_    0.046690 0.149426 0.439015 0.132186
H18   H     H_    0.969357 0.140076 0.562774 0.127236
H19   H     H_    0.546690 0.649426 0.439015 0.132186
H20   H     H_    0.469357 0.640076 0.562774 0.127236
H21   H     H_    0.960038 0.163244 0.440256 0.107865
H22   H     H_    0.055338 0.175866 0.564509 0.111768
H23   H     H_    0.460038 0.663244 0.440256 0.107865
H24   H     H_    0.555338 0.675866 0.564509 0.111768
H25   H     H_    0.616398 0.892434 0.459258 0.110772
H26   H     H_    0.392168 0.824747 0.537003 0.109045
H27   H     H_    0.116397 0.392434 0.459258 0.110772
H28   H     H_    0.892168 0.324746 0.537003 0.109045
H29   H     H_    0.600293 0.864857 0.581605 0.098443
H30   H     H_    0.401925 0.838329 0.416481 0.100256
H31   H     H_    0.100293 0.364858 0.581605 0.098442
H32   H     H_    0.901925 0.338329 0.416481 0.100255
H33   H     H_    0.940780 0.479651 0.425260 0.123154
H34   H     H_    0.047771 0.494260 0.577397 0.131242
H35   H     H_    0.440781 0.979651 0.425260 0.123154
H36   H     H_    0.547771 0.994260 0.577397 0.131243
H37   H     H_    0.919749 0.473941 0.544392 0.138878
H38   H     H_    0.051531 0.502205 0.460602 0.132111
H39   H     H_    0.419750 0.973941 0.544391 0.138877
H40   H     H_    0.551531 0.002204 0.460602 0.132111
H41   H     H_    0.835605 0.941654 0.065316 0.162233
H42   H     H_    0.164324 0.941604 0.934371 0.162224
H43   H     H_    0.335606 0.441646 0.065315 0.162232
H44   H     H_    0.664319 0.441608 0.934370 0.162228
H45   H     H_    0.687255 0.218510 0.446491 0.106519
H46   H     H_    0.298410 0.233821 0.559717 0.111208
H47   H     H_    0.187256 0.718510 0.446492 0.106519
H48   H     H_    0.798410 0.733821 0.559718 0.111208
H49   H     H_    0.858487 0.091133 0.067313 0.107347
H50   H     H_    0.141446 0.091074 0.932947 0.107075
H51   H     H_    0.358493 0.591122 0.067305 0.107352
H52   H     H_    0.641450 0.591084 0.932956 0.107078
H53   H     H_    0.870557 0.047061 0.948677 0.147630
H54   H     H_    0.129473 0.046746 0.051375 0.147927
H55   H     H_    0.370559 0.547012 0.948668 0.147645
H56   H     H_    0.629474 0.546718 0.051380 0.147936
H57   H     H_    0.809639 0.936396 0.948477 0.191348
H58   H     H_    0.190260 0.935849 0.051109 0.191257
H59   H     H_    0.309621 0.436385 0.948479 0.191356
H60   H     H_    0.690270 0.435835 0.051108 0.191234
H61   H     H_    0.702340 0.921962 0.037130 0.080249
H62   H     H_    0.297939 0.921852 0.961491 0.080203
H63   H     H_    0.202327 0.421970 0.037115 0.080242
H64   H     H_    0.797952 0.421833 0.961516 0.080178
H65   H     H_    0.690305 0.960693 0.916636 0.092039
H66   H     H_    0.309552 0.959388 0.082655 0.092438
H67   H     H_    0.190299 0.460716 0.916629 0.092031
H68   H     H_    0.809554 0.459395 0.082671 0.092418
H69   H     H_    0.778734 0.251842 0.095027 0.078028
H70   H     H_    0.221061 0.252064 0.905952 0.077851
H71   H     H_    0.278763 0.751833 0.095017 0.078034
H72   H     H_    0.721066 0.752051 0.905955 0.077856
H73   H     H_    0.807409 0.250992 0.980285 0.064587
H74   H     H_    0.192757 0.250465 0.021032 0.064440
H75   H     H_    0.307418 0.751009 0.980253 0.064566
H76   H     H_    0.692760 0.750467 0.021041 0.064419
H77   H     H_    0.719842 0.282147 0.956990 0.156375
H78   H     H_    0.280373 0.281464 0.043922 0.157147
H79   H     H_    0.219840 0.782136 0.956989 0.156388
H80   H     H_    0.780377 0.781457 0.043924 0.157156
H81   H     H_    0.641072 0.033193 0.051892 0.174697
H82   H     H_    0.358922 0.033621 0.947870 0.175203
H83   H     H_    0.141070 0.533212 0.051887 0.174693
H84   H     H_    0.858927 0.533595 0.947880 0.175197
H85   H     H_    0.673128 0.218575 0.567711 0.135112
H86   H     H_    0.313252 0.239219 0.436175 0.139157
H87   H     H_    0.173128 0.718574 0.567711 0.135112
H88   H     H_    0.813251 0.739221 0.436176 0.139158
H89   H     H_    0.650942 0.100599 0.934559 0.143459
H90   H     H_    0.349092 0.099338 0.065646 0.143032
H91   H     H_    0.150943 0.600623 0.934557 0.143448
H92   H     H_    0.849093 0.599344 0.065654 0.143033
H93   H     H_    0.035374 0.546737 0.060575 0.157290
H94   H     H_    0.964665 0.546761 0.939816 0.156930
H95   H     H_    0.535369 0.046730 0.060575 0.157310
H96   H     H_    0.464678 0.046756 0.939817 0.156928
H97   H     H_    0.948779 0.512615 0.058986 0.119149
H98   H     H_    0.051295 0.512765 0.941343 0.119045
H99   H     H_    0.448775 0.012573 0.058983 0.119160
H100  H     H_    0.551309 0.012714 0.941343 0.119066
H101  H     H_    0.609600 0.847452 0.036288 0.104169
H102  H     H_    0.390550 0.847473 0.963730 0.104373
H103  H     H_    0.109605 0.347395 0.036377 0.104173
H104  H     H_    0.890536 0.347286 0.963591 0.104379
H105  H     H_    0.597964 0.818417 0.915045 0.095599
H106  H     H_    0.402196 0.818104 0.084827 0.095892
H107  H     H_    0.098002 0.318567 0.915089 0.095613
H108  H     H_    0.902156 0.318254 0.084763 0.095914
H109  H     H_    0.954284 0.190292 0.069942 0.124053
H110  H     H_    0.045921 0.190531 0.929474 0.124018
H111  H     H_    0.454349 0.690209 0.069889 0.124118
H112  H     H_    0.545849 0.690447 0.929516 0.124092
H113  H     H_    0.923529 0.203693 0.951306 0.138116
H114  H     H_    0.076679 0.203684 0.048220 0.137524
H115  H     H_    0.423388 0.703801 0.951293 0.138126
H116  H     H_    0.576748 0.703724 0.048225 0.137523
H117  H     H_    0.647828 0.071634 0.570996 0.109823
H118  H     H_    0.350788 0.102232 0.434046 0.107966
H119  H     H_    0.147829 0.571633 0.570995 0.109823
H120  H     H_    0.850788 0.602234 0.434046 0.107967
H121  H     H_    0.723911 0.870004 0.465666 0.108799
H122  H     H_    0.305814 0.914568 0.527428 0.109124
H123  H     H_    0.223911 0.370004 0.465666 0.108799
H124  H     H_    0.805814 0.414568 0.527429 0.109124
H125  H     H_    0.720666 0.909373 0.587792 0.098476
H126  H     H_    0.291429 0.926558 0.408591 0.100055
H127  H     H_    0.220667 0.409373 0.587792 0.098474
H128  H     H_    0.791430 0.426559 0.408591 0.100055
H129  H     H_    0.855163 0.088763 0.429848 0.122768
H130  H     H_    0.143282 0.060878 0.572263 0.131003
H131  H     H_    0.355164 0.588762 0.429848 0.122768
H132  H     H_    0.643282 0.560878 0.572262 0.131003
H133  H     H_    0.803753 0.217932 0.422172 0.101009
H134  H     H_    0.181370 0.204657 0.577492 0.098587
H135  H     H_    0.303754 0.717932 0.422172 0.101009
H136  H     H_    0.681370 0.704656 0.577491 0.098588
H137  H     H_    0.804256 0.240741 0.543875 0.110466
H138  H     H_    0.158256 0.218950 0.455418 0.111584
H139  H     H_    0.304255 0.740741 0.543875 0.110466
H140  H     H_    0.658256 0.718949 0.455418 0.111585
O1    O     O_R   0.957210 0.449410 0.665480 -0.534598
O2    O     O_R   0.042790 0.449410 0.334520 -0.533919
O3    O     O_R   0.457210 0.949410 0.665480 -0.534594
O4    O     O_R   0.542790 0.949410 0.334520 -0.533917
O5    O     O_R   0.736260 0.212010 0.826560 -0.511432
O6    O     O_R   0.263740 0.212010 0.173440 -0.510904
O7    O     O_R   0.236260 0.712010 0.826560 -0.511435
O8    O     O_R   0.763740 0.712010 0.173440 -0.510908
O9    O     O_R   0.832520 0.095300 0.836000 -0.529939
O10   O     O_R   0.167480 0.095300 0.164000 -0.529074
O11   O     O_R   0.332520 0.595300 0.836000 -0.529949
O12   O     O_R   0.667480 0.595300 0.164000 -0.529083
O13   O     O_R   0.946380 0.253940 0.826940 -0.513521
O14   O     O_R   0.053620 0.253940 0.173060 -0.512649
O15   O     O_R   0.446380 0.753940 0.826940 -0.513519
O16   O     O_R   0.553620 0.753940 0.173060 -0.512650
O17   O     O_3   0.834560 0.334570 0.748840 -0.273810
O18   O     O_3   0.165440 0.334570 0.251160 -0.276725
O19   O     O_3   0.334560 0.834570 0.748840 -0.273814
O20   O     O_3   0.665440 0.834570 0.251160 -0.276730
O21   O     O_R   0.820730 0.541240 0.668250 -0.516918
O22   O     O_R   0.179270 0.541240 0.331750 -0.517708
O23   O     O_R   0.320730 0.041240 0.668250 -0.516919
O24   O     O_R   0.679270 0.041240 0.331750 -0.517709
O25   O     O_R   0.714240 0.455060 0.663710 -0.533255
O26   O     O_R   0.285760 0.455060 0.336290 -0.532797
O27   O     O_R   0.214240 0.955060 0.663710 -0.533257
O28   O     O_R   0.785760 0.955060 0.336290 -0.532797
O29   O     O_R   0.736780 0.204870 0.675910 -0.514566
O30   O     O_R   0.263220 0.204870 0.324090 -0.515648
O31   O     O_R   0.236780 0.704870 0.675910 -0.514566
O32   O     O_R   0.763220 0.704870 0.324090 -0.515648
O33   O     O_R   0.833070 0.087590 0.673490 -0.531028
O34   O     O_R   0.166930 0.087590 0.326510 -0.531057
O35   O     O_R   0.333070 0.587590 0.673490 -0.531029
O36   O     O_R   0.666930 0.587590 0.326510 -0.531058
O37   O     O_R   0.946890 0.246800 0.676300 -0.512208
O38   O     O_R   0.053110 0.246800 0.323700 -0.513654
O39   O     O_R   0.446890 0.746800 0.676300 -0.512206
O40   O     O_R   0.553110 0.746800 0.323700 -0.513652
O41   O     O_R   0.956650 0.457120 0.827980 -0.527510
O42   O     O_R   0.043350 0.457120 0.172020 -0.527078
O43   O     O_R   0.456650 0.957120 0.827980 -0.527511
O44   O     O_R   0.543350 0.957120 0.172020 -0.527082
O45   O     O_R   0.820220 0.548390 0.818890 -0.497094
O46   O     O_R   0.179780 0.548390 0.181110 -0.496500
O47   O     O_R   0.320220 0.048390 0.818890 -0.497098
O48   O     O_R   0.679780 0.048390 0.181110 -0.496516
O49   O     O_R   0.713680 0.462770 0.826210 -0.540126
O50   O     O_R   0.286320 0.462770 0.173790 -0.539681
O51   O     O_R   0.213680 0.962770 0.826210 -0.540128
O52   O     O_R   0.786320 0.962770 0.173790 -0.539681
O53   O     O_3   0.674546 0.239774 0.077822 -0.738070
H141  H     H_    0.674240 0.263105 0.129005 0.331435
O54   O     O_3   0.325295 0.239931 0.922762 -0.738511
H142  H     H_    0.325542 0.262933 0.871578 0.330985
O55   O     O_3   0.174570 0.739796 0.077830 -0.738078
H143  H     H_    0.174276 0.763129 0.129014 0.331429
O56   O     O_3   0.825300 0.739921 0.922769 -0.738508
H144  H     H_    0.825548 0.762925 0.871585 0.330985

loop_
_geom_bond_atom_site_label_1
_geom_bond_atom_site_label_2
_ccdc_geom_bond_type
C78   H94   S    
C5    H133  S    
C82   C94   S    
C119  H11   S    
C120  H12   S    
C21   H5    S    
C53   C69   S    
C104  O8    A    
C43   C63   S    
C44   C64   S    
Cr6   O6    S    
Cr11  O35   S    
C84   H115  S    
C114  H86   S    
C63   C98   S    
Cr2   O2    S    
C19   H127  S    
C35   C39   S    
C31   H40   S    
C28   C40   S    
C72   H92   S    
C36   H36   S    
C30   C38   S    
C113  H85   S    
C75   H75   S    
C56   C72   S    
C45   O33   A    
C8    H132  S    
C18   C118  S    
C60   O56   S    
C81   C86   S    
C83   C88   S    
C87   H106  S    
C48   O32   A    
C89   O1    A    
C41   C49   S    
C111  H3    S    
Cr8   O28   S    
Cr1   O45   S    
Cr2   O42   S    
Cr3   O47   S    
Cr4   O48   S    
C18   H14   S    
C26   C38   S    
Cr10  O34   S    
C14   C114  S    
Cr11  O39   S    
C60   C76   S    
C24   H8    S    
Cr8   O52   S    
C30   H37   S    
C88   H112  S    
C54   C70   S    
C48   O36   A    
C68   C72   S    
C23   H139  S    
C97   O45   A    
C13   C21   S    
C99   O47   A    
C3    O27   A    
C31   H25   S    
C64   C97   S    
C36   H29   S    
C15   C115  S    
C20   C120  S    
C1    O25   A    
C54   H82   S    
C77   H97   S    
Cr4   O20   S    
C57   C61   S    
C82   C85   S    
Cr6   O50   S    
C59   C63   S    
Cr11  O19   S    
C60   C64   S    
Cr9   O13   S    
C13   C45   S    
C102  O6    A    
C78   C94   S    
C43   H51   S    
C69   H89   S    
C95   C108  S    
C62   C99   S    
C107  O43   A    
C5    C21   S    
C58   H70   S    
C79   H95   S    
C110  H46   S    
C31   C36   S    
C47   O35   A    
C4    O28   A    
Cr5   O17   S    
C90   O38   A    
C54   H62   S    
Cr1   O21   S    
C84   H102  S    
Cr2   O18   S    
C65   C101  S    
Cr10  O14   S    
Cr3   O23   S    
Cr11  O11   S    
C67   C103  S    
C66   C70   S    
C37   C90   S    
C24   H140  S    
C73   H77   S    
C55   H83   S    
C115  H119  S    
C111  H47   S    
C113  H117  S    
C25   H17   S    
C57   C73   S    
C53   C61   S    
C60   H72   S    
C83   H101  S    
C55   C63   S    
C6    H134  S    
C56   C64   S    
C7    H131  S    
Cr7   O51   S    
C116  H88   S    
C42   C62   S    
C112  H48   S    
Cr5   O29   S    
C76   H80   S    
C83   C95   S    
C70   H66   S    
C56   H64   S    
C1    C12   S    
Cr9   O33   S    
C112  H4    S    
C2    C11   S    
Cr3   O3    S    
C7    C11   S    
C6    H130  S    
C42   H42   S    
Cr9   O37   S    
C25   C26   S    
C105  O13   A    
C107  O15   A    
C5    C9    S    
C108  O16   A    
C109  H45   S    
C93   C106  S    
C8    C12   S    
C90   O2    A    
C51   C67   S    
C7    H135  S    
C42   C50   S    
Cr2   O46   S    
Cr3   O43   S    
C110  H2    S    
C61   C100  S    
C67   C75   S    
C17   H125  S    
C50   H54   S    
C112  C116  S    
C51   H59   S    
C58   C74   S    
Cr10  O38   S    
C41   H41   S    
C53   H81   S    
C81   H114  S    
C33   H33   S    
C44   H44   S    
C68   C76   S    
C59   O55   S    
C1    O21   A    
C98   O46   A    
C85   H108  S    
C14   C22   S    
C3    O23   A    
C7    C23   S    
C8    C24   S    
C40   C91   S    
C101  O9    A    
C56   H84   S    
Cr7   O27   S    
C46   O30   A    
C99   O51   A    
Cr8   O20   S    
C49   H53   S    
C57   H69   S    
C52   H56   S    
Cr7   O7    S    
C4    C9    S    
Cr4   O24   S    
Cr8   O8    S    
C86   H110  S    
C58   C62   S    
C5    H129  S    
C88   C96   S    
C94   C105  S    
C77   H93   S    
C82   H104  S    
C53   H61   S    
C80   H100  S    
C55   H63   S    
C12   C112  S    
C21   H137  S    
C14   C46   S    
C77   C78   S    
C42   H50   S    
C15   C19   S    
C75   H79   S    
C101  O5    A    
C92   O40   A    
C6    C22   S    
C102  O10   A    
C73   H73   S    
Cr6   O18   S    
Cr2   O22   S    
C15   C47   S    
Cr3   O19   S    
C46   O34   A    
C82   H113  S    
C17   C117  S    
C19   C119  S    
C27   H23   S    
C41   H49   S    
C81   H103  S    
C2    O22   A    
Cr12  O36   S    
C16   C116  S    
C76   H76   S    
C9    C109  S    
C25   H21   S    
C26   H18   S    
C19   H15   S    
C105  O41   A    
C54   C62   S    
C57   O53   S    
C109  H1    S    
C29   C34   S    
C108  O44   A    
C33   C37   S    
C41   C61   S    
C17   H13   S    
O56   H144  S    
C79   C95   S    
Cr5   O25   S    
Cr6   O30   S    
C85   H109  S    
C86   H107  S    
C80   H96   S    
Cr12  O12   S    
C32   H39   S    
C91   O39   A    
C100  O52   A    
C39   C92   S    
C27   H19   S    
C106  O14   A    
C14   C18   S    
C68   C104  S    
C119  H123  S    
C6    C10   S    
C71   H67   S    
C13   C17   S    
C78   H98   S    
C22   H6    S    
Cr5   O49   S    
C91   O3    A    
O54   H142  S    
C104  O12   A    
C43   C51   S    
Cr5   O5    S    
C65   C69   S    
C77   C93   S    
C70   H90   S    
C10   C110  S    
C67   C71   S    
O53   H141  S    
C50   H58   S    
Cr1   O1    S    
C18   H126  S    
C51   H55   S    
C59   H71   S    
C29   C37   S    
C11   C111  S    
C34   H34   S    
C66   C74   S    
C43   H43   S    
C9    C117  S    
O55   H143  S    
C66   C102  S    
C117  H9    S    
C84   C87   S    
C103  O7    A    
C8    H136  S    
C11   C119  S    
C16   C48   S    
C29   H27   S    
C30   H28   S    
C38   C89   S    
C49   C65   S    
C74   H78   S    
C23   H7    S    
Cr7   O31   S    
Cr8   O32   S    
C49   H57   S    
Cr1   O41   S    
C114  H118  S    
C65   C73   S    
C52   H60   S    
Cr4   O44   S    
C86   C94   S    
C25   C37   S    
C12   C120  S    
C27   C39   S    
C83   H116  S    
C35   H35   S    
Cr12  O20   S    
C55   C71   S    
C29   H38   S    
C80   C96   S    
C118  H122  S    
C44   H52   S    
C52   C68   S    
C16   C20   S    
C22   H138  S    
C15   C23   S    
Cr9   O17   S    
C16   C24   S    
C69   H65   S    
C115  H87   S    
C59   C75   S    
C85   C93   S    
C2    O26   A    
C103  O11   A    
C32   H26   S    
C35   H30   S    
C71   H91   S    
C117  H121  S    
C32   C35   S    
C36   C40   S    
C33   H32   S    
C34   H31   S    
C97   O49   A    
Cr7   O19   S    
C116  H120  S    
C87   C95   S    
C120  H124  S    
C10   C118  S    
C72   H68   S    
C81   C93   S    
C87   H111  S    
C79   H99   S    
Cr10  O18   S    
C20   H16   S    
Cr12  O40   S    
Cr9   O9    S    
C50   C66   S    
C100  O48   A    
C20   H128  S    
C28   H20   S    
C45   O29   A    
C58   O54   S    
C26   H22   S    
C92   O4    A    
C84   C96   S    
C106  O42   A    
C74   H74   S    
C110  C114  S    
C30   C33   S    
C34   C38   S    
C96   C107  S    
C47   O31   A    
C4    O24   A    
C118  H10   S    
C89   O37   A    
Cr6   O26   S    
C109  C113  S    
Cr1   O17   S    
Cr10  O10   S    
C3    C10   S    
Cr11  O15   S    
Cr4   O4    S    
C44   C52   S    
Cr12  O16   S    
C88   H105  S    
C31   C39   S    
C32   C40   S    
C79   C80   S    
C98   O50   A    
C27   C28   S    
C28   H24   S    
C111  C115  S    
C13   C113  S    
