data_mof_unit_68256.cif
_audit_creation_date              2012-12-11T17:40:56-0500
_audit_creation_method            fapswitch 2.2
_symmetry_space_group_name_H-M    P1
_symmetry_Int_Tables_number       1
_space_group_crystal_system       triclinic
_cell_length_a                    8.169893
_cell_length_b                    12.771783
_cell_length_c                    14.313964
_cell_angle_alpha                 93.364319
_cell_angle_beta                  90.599688
_cell_angle_gamma                 97.686367
_cell_volume                      1477.35378512

loop_
_atom_site_label
_atom_site_type_symbol
_atom_type_description
_atom_site_fract_x
_atom_site_fract_y
_atom_site_fract_z
_atom_type_partial_charge
Ba1   Ba    Ba6+2 0.855630 0.555280 0.454520 1.659515
Ba2   Ba    Ba6+2 0.334200 0.444810 0.545490 1.648915
Br1   Br    Br    0.867125 0.306182 0.100439 -0.647665
Br2   Br    Br    0.311734 0.054142 0.309416 -0.629028
C1    C     C_3   0.658338 0.944724 0.154722 -0.370537
C2    C     C_R   0.178694 0.494027 0.193649 0.057051
C3    C     C_R   0.329937 0.550056 0.224692 -0.306249
C4    C     C_3   0.138033 0.793754 0.194547 0.410799
C5    C     C_R   0.441713 0.597896 0.162776 0.016213
C6    C     C_R   0.397036 0.600603 0.068689 -0.135571
C7    C     C_R   0.241746 0.550880 0.034679 -0.031975
C8    C     C_R   0.132402 0.491042 0.095388 -0.038693
C9    C     C_R   0.049295 0.505858 0.900361 -0.057118
C10   C     C_R   0.937043 0.450915 0.961122 -0.010029
C11   C     C_R   0.006066 0.503977 0.802593 0.057200
C12   C     C_3   0.661386 0.852837 0.217726 0.325542
C13   C     C_R   0.852701 0.451924 0.770818 -0.294275
C14   C     C_R   0.737024 0.410206 0.833566 0.009172
C15   C     C_R   0.777482 0.410406 0.927396 -0.103122
C16   C     C_3   0.140153 0.834900 0.097018 -0.357847
C17   C     C_R   0.200139 0.557010 0.939139 -0.042861
C18   C     C_R   0.760738 0.173788 0.528544 -0.297185
C19   C     C_R   0.423148 0.812790 0.463091 -0.322965
C20   C     C_R   0.411190 0.987373 0.409132 0.174330
C21   C     C_R   0.338706 0.883504 0.417259 0.011044
C22   C     C_R   0.573021 0.846064 0.510792 0.061371
C23   C     C_3   0.470958 0.323304 0.260704 0.365160
C24   C     C_R   0.638856 0.956126 0.514517 -0.080701
C25   C     C_R   0.556271 0.028680 0.463720 -0.072314
C26   C     C_R   0.620096 0.138926 0.473606 0.053230
C27   C     C_R   0.850617 0.103312 0.568537 0.005358
C28   C     C_3   0.226235 0.761239 0.657653 0.275821
C29   C     C_R   0.786579 0.995688 0.565683 -0.071375
C30   C     C_3   0.218283 0.878828 0.674964 -0.337372
C31   C     C_3   0.962683 0.240752 0.347318 0.361610
C32   C     C_3   0.903385 0.125188 0.318779 -0.346651
C33   C     C_3   0.713710 0.676836 0.737580 0.305725
C34   C     C_3   0.415824 0.294135 0.159331 -0.335812
C35   C     C_3   0.728716 0.702381 0.842778 -0.389136
C36   C     C_3   0.065441 0.199140 0.799374 0.317232
C37   C     C_3   0.076755 0.162818 0.898534 -0.328809
C38   C     C_3   0.544259 0.149823 0.755943 0.338700
C39   C     C_3   0.571725 0.046382 0.797518 -0.378661
C40   C     C_R   0.984787 0.433382 0.053474 0.271173
H1    H     H_    0.739363 0.879595 0.281187 0.083045
H2    H     H_    0.831535 0.653744 0.711915 0.013887
H3    H     H_    0.612491 0.610491 0.723591 0.059591
H4    H     H_    0.591625 0.006545 0.188530 0.139852
H5    H     H_    0.833529 0.765923 0.858917 0.130560
H6    H     H_    0.750481 0.631416 0.879472 0.060438
H7    H     H_    0.612948 0.729294 0.869103 0.116816
H8    H     H_    0.532994 0.827924 0.240204 -0.046664
H9    H     H_    0.593990 0.915511 0.087483 0.119177
H10   H     H_    0.364714 0.347098 0.300263 0.001920
H11   H     H_    0.572117 0.390594 0.262738 0.060371
H12   H     H_    0.280668 0.908084 0.742354 0.121003
H13   H     H_    0.295003 0.242415 0.156983 0.156006
H14   H     H_    0.403845 0.366092 0.121694 0.049924
H15   H     H_    0.507430 0.250904 0.122274 0.178836
H16   H     H_    0.786759 0.979922 0.139866 0.141946
H17   H     H_    0.208203 0.784625 0.048833 0.056419
H18   H     H_    0.168834 0.263090 0.790380 0.116372
H19   H     H_    0.945892 0.230709 0.790492 -0.034755
H20   H     H_    0.108831 0.232907 0.948243 0.117532
H21   H     H_    0.955455 0.119706 0.918248 0.119523
H22   H     H_    0.173519 0.109477 0.903946 0.141129
H23   H     H_    0.279241 0.923069 0.617832 0.073742
H24   H     H_    0.662646 0.182817 0.724696 -0.047271
H25   H     H_    0.447665 0.132827 0.699922 0.081298
H26   H     H_    0.693101 0.055750 0.835269 0.117653
H27   H     H_    0.571961 0.983398 0.740407 0.078882
H28   H     H_    0.059041 0.715881 0.192923 0.066212
H29   H     H_    0.472430 0.021932 0.847208 0.133218
H30   H     H_    0.365885 0.551267 0.297788 0.058896
H31   H     H_    0.484582 0.640482 0.021787 0.069766
H32   H     H_    0.682152 0.377727 0.973385 0.129587
H33   H     H_    0.819395 0.448836 0.697238 0.070890
H34   H     H_    0.087811 0.893094 0.678513 0.137568
H35   H     H_    0.286952 0.602469 0.895654 0.099949
H36   H     H_    0.854024 0.944323 0.603469 0.102472
H37   H     H_    0.806709 0.257417 0.536186 0.052377
H38   H     H_    0.266049 0.782963 0.213629 -0.077813
H39   H     H_    0.368364 0.730982 0.464400 0.071375
H40   H     H_    0.011368 0.832728 0.069489 0.140553
H41   H     H_    0.204101 0.917926 0.099296 0.146099
H42   H     H_    0.355444 0.748532 0.646545 0.009417
H43   H     H_    0.150009 0.733557 0.594027 0.070184
H44   H     H_    0.858801 0.279382 0.374617 -0.008666
H45   H     H_    0.059335 0.245218 0.402358 0.070906
H46   H     H_    0.774079 0.116397 0.293770 0.108861
H47   H     H_    0.913108 0.075847 0.378614 0.094217
H48   H     H_    0.978464 0.095412 0.261286 0.195687
O1    O     O_2   0.887370 0.460630 0.272300 -0.429328
O2    O     O_2   0.193732 0.110126 0.566157 -0.472888
O3    O     O_3   0.077883 0.113821 0.734544 -0.617083
O4    O     O_3   0.129410 0.451380 0.388510 -0.509391
O5    O     O_3   0.575400 0.626570 0.547370 -0.496728
O6    O     O_2   0.344320 0.238700 0.455090 -0.434946
O7    O     O_3   0.528753 0.235364 0.296855 -0.591525
O8    O     O_2   0.395541 0.406980 0.834242 -0.501154
O9    O     O_3   0.490936 0.218760 0.826104 -0.598493
O10   O     O_3   0.670210 0.653170 0.329170 -0.482467
O11   O     O_2   0.772048 0.576292 0.165599 -0.474585
O12   O     O_3   0.679941 0.767338 0.694794 -0.641477
O13   O     O_3   0.027105 0.289369 0.268681 -0.581664
O14   O     O_3   0.729999 0.772264 0.167027 -0.593198
O15   O     O_2   0.845380 0.761330 0.544970 -0.473566
O16   O     O_3   0.088930 0.704860 0.376040 -0.501742
O17   O     O_2   0.995756 0.884842 0.434071 -0.471361
O18   O     O_3   0.074668 0.866260 0.257540 -0.555462
O19   O     O_2   0.302330 0.539400 0.727760 -0.471879
O20   O     O_3   0.060300 0.548700 0.611500 -0.499806
O21   O     O_3   0.519500 0.346920 0.670840 -0.485444
O22   O     O_3   0.169291 0.710113 0.737128 -0.638916
O23   O     O_3   0.614310 0.373510 0.452640 -0.494316
O24   O     O_3   0.100780 0.295230 0.623970 -0.497129
P1    P     P_3+3 0.054400 0.427280 0.286870 1.031618
P2    P     P_3+3 0.668300 0.742890 0.573060 0.968359
P3    P     P_3+3 0.125593 0.838818 0.372113 1.013255
P4    P     P_3+3 0.135310 0.572810 0.713130 0.968651
P5    P     P_3+3 0.055166 0.156090 0.621441 0.939462
P6    P     P_3+3 0.651262 0.649144 0.206680 0.955668
P7    P     P_3+3 0.527643 0.244516 0.419556 1.002631
P8    P     P_3+3 0.534019 0.348777 0.791866 0.946709

loop_
_geom_bond_atom_site_label_1
_geom_bond_atom_site_label_2
_ccdc_geom_bond_type
C39   H29   S    
C35   H7    S    
C30   H12   S    
C31   C32   S    
C23   H10   S    
Ba2   O20   S    
C4    C16   S    
C36   H19   S    
C19   H39   S    
C4    H38   S    
O7    P7    S    
C15   H32   S    
C14   C15   A    
Ba1   O20   S    
C2    C8    A    
Br2   C20   S    
Ba2   O21   S    
C23   H11   S    
C23   C34   S    
O5    P2    S    
C36   H18   S    
C11   P4    S    
C11   C13   A    
Ba1   Ba2   S    
C31   H44   S    
C19   C22   A    
C16   H17   S    
C20   C25   A    
C1    C12   S    
C34   H14   S    
Ba2   O24   S    
Ba2   O5    S    
C27   C29   A    
C33   H3    S    
C18   C26   A    
C5    C6    A    
C2    P1    S    
C12   O14   S    
C32   H48   S    
O18   P3    S    
C9    C10   A    
C38   H24   S    
O16   P3    S    
O13   P1    S    
O1    P1    D    
C21   P3    S    
C5    P6    S    
C3    H30   S    
O12   P2    S    
O6    P7    D    
Ba2   O19   S    
C1    H4    S    
Br1   C40   S    
C4    H28   S    
O9    P8    S    
O23   P7    S    
C18   C27   A    
C18   H37   S    
C12   H8    S    
O4    P1    S    
C20   C21   A    
C27   P5    S    
O24   P5    S    
Ba1   O5    S    
O20   P4    S    
Ba2   P4    S    
C37   H21   S    
C28   H43   S    
C7    C17   A    
C38   H25   S    
O19   P4    D    
O8    P8    D    
C28   C30   S    
C12   H1    S    
C25   C26   A    
C31   O13   S    
C4    O18   S    
C34   H13   S    
Ba2   O23   S    
C28   H42   S    
C16   H41   S    
O14   P6    S    
C13   H33   S    
C13   C14   A    
C9    C17   A    
Ba1   P1    S    
C2    C3    A    
Ba1   O15   S    
C31   H45   S    
C32   H47   S    
C36   C37   S    
C35   H5    S    
C24   C29   A    
C39   H26   S    
C16   H40   S    
C38   C39   S    
C36   O3    S    
C38   O9    S    
O17   P3    D    
C10   C40   A    
C32   H46   S    
C3    C5    A    
C24   C25   A    
C39   H27   S    
O15   P2    D    
C1    H16   S    
C10   C15   A    
C22   P2    S    
C30   H23   S    
C33   O12   S    
C7    C8    A    
C29   H36   S    
C37   H22   S    
C22   C24   A    
C9    C11   A    
C1    H9    S    
C33   C35   S    
C30   H34   S    
O3    P5    S    
O21   P8    S    
C17   H35   S    
Ba1   O4    S    
Ba2   O4    S    
Ba1   P2    S    
C19   C21   A    
C23   O7    S    
C6    C7    A    
Ba1   O16   S    
C34   H15   S    
O2    P5    D    
C35   H6    S    
C26   P7    S    
Ba2   O6    S    
Ba1   O1    S    
C8    C40   A    
Ba1   O23   S    
C37   H20   S    
C28   O22   S    
C33   H2    S    
O10   P6    S    
O11   P6    D    
Ba1   O10   S    
O22   P4    S    
C14   P8    S    
C6    H31   S    
