data_mof_unit_22046.cif
_audit_creation_date              2012-12-11T17:45:25-0500
_audit_creation_method            fapswitch 2.2
_symmetry_space_group_name_H-M    P1
_symmetry_Int_Tables_number       1
_space_group_crystal_system       triclinic
_cell_length_a                    15.054296
_cell_length_b                    15.049762
_cell_length_c                    15.081328
_cell_angle_alpha                 110.872243
_cell_angle_beta                  108.774733
_cell_angle_gamma                 108.26826
_cell_volume                      2645.20983601

loop_
_atom_site_label
_atom_site_type_symbol
_atom_type_description
_atom_site_fract_x
_atom_site_fract_y
_atom_site_fract_z
_atom_type_partial_charge
C1    C     C_R   0.972776 0.250171 0.063394 -0.178699
C2    C     C_R   0.702063 0.199792 0.791560 -0.093583
C3    C     C_R   0.776759 0.592239 0.029600 -0.026034
C4    C     C_R   0.313466 0.757343 0.223075 0.477664
C5    C     C_R   0.942237 0.410802 0.685545 -0.155833
C6    C     C_R   0.674954 0.501659 0.959376 0.116777
C7    C     C_R   0.960069 0.504083 0.678462 0.061325
C8    C     C_R   0.697849 0.139463 0.696028 0.019643
C9    C     C_R   0.049494 0.863219 0.062398 0.094846
C10   C     C_R   0.634551 0.256307 0.086849 -0.457170
C11   C     C_R   0.689645 0.341526 0.194546 0.471492
C12   C     C_R   0.323673 0.779451 0.324710 -0.262967
C13   C     C_R   0.747721 0.327867 0.278997 -0.371002
C14   C     C_R   0.736302 0.223985 0.253990 0.612165
C15   C     C_R   0.675869 0.137312 0.146260 0.386140
C16   C     C_R   0.204930 0.411428 0.893390 -0.139618
C17   C     C_R   0.626182 0.153855 0.061254 0.336586
C18   C     C_R   0.848381 0.427920 0.482535 -0.135522
C19   C     C_R   0.939773 0.512156 0.581663 0.002669
C20   C     C_R   0.016302 0.599396 0.585441 0.137167
C21   C     C_R   0.000470 0.599511 0.491189 -0.200979
C22   C     C_R   0.917963 0.509387 0.391431 0.007303
C23   C     C_R   0.293317 0.501557 0.919376 -0.151503
C24   C     C_R   0.837332 0.424042 0.385483 0.155239
C25   C     C_R   0.139655 0.789749 0.742785 0.466155
C26   C     C_R   0.238085 0.866806 0.838918 -0.349769
C27   C     C_R   0.318585 0.839805 0.872573 0.671180
C28   C     C_R   0.986484 0.590351 0.293660 0.021695
C29   C     C_R   0.302461 0.736224 0.806966 -0.175115
C30   C     C_R   0.204696 0.658811 0.712666 -0.278695
C31   C     C_R   0.122210 0.684347 0.681666 0.009242
C32   C     C_R   0.152730 0.952300 0.373288 -0.320170
C33   C     C_R   0.256593 0.970557 0.398934 -0.230682
C34   C     C_R   0.933418 0.501971 0.299708 0.063837
C35   C     C_R   0.314274 0.959473 0.483916 0.057154
C36   C     C_R   0.272160 0.942604 0.550919 0.730528
C37   C     C_R   0.166806 0.921201 0.522768 -0.296040
C38   C     C_R   0.105124 0.921989 0.431631 0.542179
C39   C     C_R   0.507742 0.043218 0.583346 0.736584
C40   C     C_R   0.292123 0.590315 0.986170 0.759968
C41   C     C_R   0.604096 0.040350 0.607392 -0.140854
C42   C     C_R   0.606850 0.946367 0.546037 0.002822
C43   C     C_R   0.511932 0.858633 0.455193 -0.275411
C44   C     C_R   0.416892 0.864065 0.428430 0.025071
C45   C     C_R   0.686388 0.409609 0.940275 -0.052041
C46   C     C_R   0.413758 0.954666 0.497192 -0.093408
C47   C     C_R   0.738000 0.906400 0.495374 -0.104653
C48   C     C_R   0.832386 0.899517 0.521943 -0.100512
C49   C     C_R   0.894683 0.922136 0.626530 -0.039379
C50   C     C_R   0.861836 0.950198 0.704496 -0.117956
C51   C     C_R   0.767906 0.958106 0.678583 -0.128239
C52   C     C_R   0.910625 0.410735 0.211119 -0.087814
C53   C     C_R   0.705775 0.937107 0.573986 0.222578
C54   C     C_3   0.481484 0.429999 0.818836 0.345975
C55   C     C_3   0.372924 0.421635 0.810299 -0.533340
C56   C     C_R   0.023636 0.592306 0.781772 -0.063501
C57   C     C_3   0.536735 0.462616 0.011727 -0.429210
C58   C     C_3   0.587713 0.619948 0.981984 1.171245
C59   C     C_3   0.572308 0.502756 0.941360 -0.056623
C60   C     C_3   0.392991 0.502542 0.922248 0.213788
C61   C     C_3   0.436442 0.469469 0.006165 -0.416592
C62   C     C_3   0.479940 0.617338 0.959934 -0.528110
C63   C     C_R   0.241402 0.122911 0.857311 0.598405
C64   C     C_R   0.221106 0.738782 0.310244 0.467667
C65   C     C_R   0.176159 0.104346 0.903911 -0.159063
C66   C     C_R   0.220865 0.153746 0.017211 0.085416
C67   C     C_R   0.789956 0.198390 0.697809 0.486061
C68   C     C_R   0.331333 0.221676 0.084227 -0.153997
C69   C     C_R   0.396620 0.239370 0.038233 -0.146878
C70   C     C_R   0.352905 0.187375 0.925223 -0.268928
C71   C     C_R   0.151749 0.031462 0.073086 -0.265823
C72   C     C_R   0.079155 0.978400 0.098997 0.074017
C73   C     C_R   0.035536 0.036986 0.151433 0.138242
C74   C     C_R   0.055370 0.137410 0.160078 -0.197222
C75   C     C_R   0.097823 0.170045 0.100290 0.070126
C76   C     C_R   0.075603 0.263272 0.985871 0.510738
C77   C     C_R   0.155857 0.121122 0.065177 0.040338
C78   C     C_R   0.992227 0.798676 0.090797 -0.063288
C79   C     C_R   0.849920 0.923513 0.109412 0.767276
C80   C     C_R   0.773081 0.904070 0.143063 -0.106037
C81   C     C_R   0.803083 0.957228 0.253307 -0.053858
C82   C     C_R   0.910070 0.032884 0.330439 -0.016948
C83   C     C_R   0.987195 0.053824 0.297337 -0.284786
C84   C     C_R   0.958352 0.997250 0.186777 -0.190172
C85   C     C_R   0.055710 0.230943 0.056370 -0.098912
C86   C     C_R   0.086503 0.802809 0.003696 -0.121700
F1    F     F_    0.792225 0.208672 0.332764 -0.672365
F2    F     F_    0.328592 0.934922 0.635896 -0.702191
F3    F     F_    0.505123 0.134799 0.641022 -0.684957
F4    F     F_    0.656761 0.684388 0.093551 -0.765461
F5    F     F_    0.629861 0.665554 0.929814 -0.716967
F6    F     F_    0.333621 0.688170 0.993388 -0.705999
F7    F     F_    0.818096 0.875306 0.001526 -0.662446
H1    H     H_    0.933858 0.233999 0.108709 0.132929
H2    H     H_    0.062967 0.664698 0.496124 0.160610
H3    H     H_    0.251275 0.946805 0.889562 0.149898
H4    H     H_    0.364874 0.714957 0.829758 0.147939
H5    H     H_    0.192370 0.578275 0.664851 0.167127
H6    H     H_    0.177549 0.327809 0.836042 0.176888
H7    H     H_    0.109121 0.958466 0.305911 0.148544
H8    H     H_    0.289401 0.986553 0.348644 0.168753
H9    H     H_    0.131182 0.898428 0.568502 0.211866
H10   H     H_    0.511866 0.786336 0.404252 0.148144
H11   H     H_    0.691054 0.889691 0.414210 0.116965
H12   H     H_    0.045493 0.675627 0.806993 0.114296
H13   H     H_    0.857054 0.876690 0.461333 0.185652
H14   H     H_    0.968128 0.917686 0.646576 0.180194
H15   H     H_    0.908572 0.965572 0.784949 0.131670
H16   H     H_    0.002296 0.672459 0.341154 0.141551
H17   H     H_    0.743453 0.980168 0.739737 0.132140
H18   H     H_    0.502895 0.470890 0.774492 0.156296
H19   H     H_    0.335438 0.440628 0.747839 0.172138
H20   H     H_    0.315673 0.337598 0.783835 0.196923
H21   H     H_    0.521254 0.378258 0.984185 0.170420
H22   H     H_    0.374938 0.389761 0.984205 0.213836
H23   H     H_    0.964935 0.821959 0.148507 0.062050
H24   H     H_    0.454125 0.638718 0.896464 0.182247
H25   H     H_    0.492891 0.680634 0.036470 0.237249
H26   H     H_    0.601570 0.512232 0.098062 0.264138
H27   H     H_    0.455742 0.529949 0.088091 0.185887
H28   H     H_    0.405143 0.198314 0.890547 0.110730
H29   H     H_    0.090709 0.052903 0.852495 0.103590
H30   H     H_    0.366796 0.259571 0.171828 0.133024
H31   H     H_    0.480740 0.294991 0.091212 0.181912
H32   H     H_    0.199225 0.998201 0.048190 0.139770
H33   H     H_    0.022451 0.181465 0.200537 0.140054
H34   H     H_    0.144571 0.830805 0.979374 0.108506
H35   H     H_    0.863583 0.327049 0.185550 0.079790
H36   H     H_    0.689218 0.851339 0.083300 0.210195
H37   H     H_    0.742905 0.942137 0.278530 0.165638
H38   H     H_    0.933075 0.076223 0.415661 0.160508
H39   H     H_    0.069286 0.115815 0.357591 0.174742
H40   H     H_    0.624335 0.326002 0.894764 0.140314
H41   H     H_    0.905741 0.205654 0.668241 0.306694
H42   H     H_    0.539504 0.094659 0.906001 0.344616
H43   H     H_    0.716067 0.484800 0.290996 0.327761
H44   H     H_    0.462686 0.837651 0.265548 0.323375
H45   H     H_    0.648867 0.172992 0.821618 0.148210
H46   H     H_    0.638468 0.989448 0.048092 0.358263
H47   H     H_    0.077056 0.883858 0.769801 0.309970
H48   H     H_    0.455394 0.880541 0.986212 0.348142
H49   H     H_    0.962113 0.874008 0.324243 0.316426
H50   H     H_    0.441777 0.283952 0.796606 0.321335
H51   H     H_    0.250840 0.103855 0.727457 0.320062
H52   H     H_    0.257061 0.739699 0.445220 0.341101
H53   H     H_    0.227824 0.340261 0.068038 0.308203
H54   H     H_    0.798187 0.676797 0.063498 0.178841
H55   H     H_    0.895745 0.328136 0.618599 0.166636
H56   H     H_    0.597624 0.270128 0.022393 0.165949
H57   H     H_    0.788935 0.362644 0.480410 0.169397
N1    N     N_R   0.947080 0.293830 0.002870 -0.072738
N2    N     N_R   0.153670 0.443180 0.946090 -0.066510
N3    N     N_R   0.002360 0.556820 0.208890 -0.041822
N4    N     N_R   0.210070 0.556820 0.002870 -0.115012
N5    N     N_R   0.945960 0.443180 0.152110 -0.053892
N6    N     N_R   0.151710 0.706170 0.208890 -0.110428
N7    N     N_R   0.004320 0.293830 0.946090 -0.086124
N8    N     N_R   0.789930 0.443180 0.997130 -0.054731
N9    N     N_R   0.054040 0.556820 0.847890 -0.045714
N10   N     N_R   0.848290 0.293830 0.791110 -0.112089
N11   N     N_R   0.995680 0.706170 0.053910 -0.058789
N12   N     N_R   0.052920 0.706170 0.997130 -0.047419
N13   N     N_R   0.791050 0.293830 0.847890 -0.076391
N14   N     N_R   0.846330 0.556820 0.053910 -0.071781
N15   N     N_R   0.997640 0.443180 0.791110 -0.062363
N16   N     N_R   0.208950 0.706170 0.152110 -0.101496
Ni1   Ni    Ni4+2 0.869690 0.369690 0.000000 0.208842
Ni2   Ni    Ni4+2 0.130310 0.630310 0.000000 0.282633
Ni3   Ni    Ni4+2 0.000970 0.369690 0.869780 0.208396
Ni4   Ni    Ni4+2 0.999030 0.630310 0.130220 0.225586
O1    O     O_3   0.827301 0.156976 0.630006 -0.763449
O2    O     O_3   0.194342 0.077454 0.746166 -0.780314
O3    O     O_3   0.193499 0.727827 0.385415 -0.797385
O4    O     O_3   0.172680 0.299108 0.990076 -0.794700
O5    O     O_3   0.570670 0.069701 0.954604 -0.706502
O6    O     O_3   0.691352 0.438821 0.212891 -0.763322
O7    O     O_3   0.392609 0.794864 0.198375 -0.691352
O8    O     O_3   0.671351 0.039024 0.127206 -0.719040
O9    O     O_3   0.056579 0.812098 0.711361 -0.762607
O10   O     O_3   0.410753 0.915133 0.970672 -0.696001
O11   O     O_3   0.998467 0.889472 0.399748 -0.776143
O12   O     O_3   0.471534 0.326425 0.766262 -0.685727

loop_
_geom_bond_atom_site_label_1
_geom_bond_atom_site_label_2
_ccdc_geom_bond_type
C25   C31   A    
C66   C68   A    
C63   C65   A    
C58   C62   S    
C6    C45   A    
C55   H19   S    
C27   C29   A    
H48   O10   S    
C41   C42   A    
N14   Ni4   S    
C35   C36   A    
C9    C72   S    
C4    O7    S    
C3    C6    A    
C40   N4    A    
H43   O6    S    
N11   N12   A    
C52   H35   S    
C39   C41   A    
C74   H33   S    
C36   F2    S    
C52   N5    A    
C3    H54   S    
C11   O6    S    
C29   C30   A    
C38   O11   S    
C33   H8    S    
N1    N7    A    
C36   C37   A    
C14   F1    S    
C79   F7    S    
C56   N9    A    
C32   C38   A    
C42   C53   S    
C79   C84   A    
C12   C64   A    
C57   C59   S    
C10   C17   A    
C23   C40   A    
H47   O9    S    
N9    Ni2   S    
C60   C62   S    
C18   C19   A    
C73   C74   A    
C62   H24   S    
C13   C14   A    
N7    Ni3   S    
C75   C85   S    
C48   H13   S    
C83   C84   A    
N5    Ni1   S    
C68   C69   A    
N3    Ni4   S    
C61   H22   S    
N10   Ni3   S    
C54   O12   S    
C67   N10   A    
C86   N12   A    
C5    N15   A    
C4    C12   A    
C58   F5    S    
C73   C84   S    
N8    N14   A    
C57   H26   S    
C28   C34   A    
C5    H55   S    
C21   C22   A    
C61   H27   S    
C26   H3    S    
N4    Ni2   S    
C7    C56   A    
C68   H30   S    
C44   C46   A    
N8    Ni1   S    
C81   C82   A    
C54   C59   S    
N15   Ni3   S    
C23   C60   S    
C22   C34   S    
C78   H23   S    
C76   N7    A    
C74   C75   A    
C27   O10   S    
C2    H45   S    
N10   N13   A    
N16   Ni2   S    
C8    C41   S    
C72   C73   A    
C49   H14   S    
C5    C7    A    
C1    H1    S    
C21   H2    S    
C69   H31   S    
C67   O1    S    
C25   C26   A    
C82   C83   A    
C37   H9    S    
N9    N15   A    
C13   C24   S    
C60   C61   S    
C51   C53   A    
H42   O5    S    
N13   Ni1   S    
C43   C44   A    
H50   O12   S    
C37   C38   A    
C9    C86   A    
C75   C77   A    
C47   C48   A    
C63   C70   A    
N6    N16   A    
C50   C51   A    
C26   C27   A    
C16   N2    A    
C65   H29   S    
C40   F6    S    
C58   F4    S    
C3    N14   A    
C8    C67   A    
C39   C46   A    
N12   Ni2   S    
N11   Ni4   S    
C48   C49   A    
H52   O3    S    
C65   C66   A    
C51   H17   S    
C7    C19   S    
H41   O1    S    
C28   N3    A    
C18   C24   A    
C1    C85   A    
N3    N5    A    
C42   C43   A    
C71   C77   A    
C30   H5    S    
C15   C17   A    
C66   C77   S    
C64   N6    A    
C54   C55   S    
C47   H11   S    
C86   H34   S    
C34   C52   A    
C6    C59   S    
C50   H15   S    
C2    C8    A    
C45   N8    A    
N2    N4    A    
C80   C81   A    
C2    N13   A    
C25   O9    S    
C16   H6    S    
C57   C61   S    
C57   H21   S    
C28   H16   S    
C16   C23   A    
C55   H20   S    
H51   O2    S    
C45   H40   S    
C29   H4    S    
C32   C33   A    
C19   C20   A    
C76   O4    S    
C58   C59   S    
C71   C72   A    
C10   H56   S    
H46   O8    S    
C18   H57   S    
C82   H38   S    
N2    Ni3   S    
C11   C13   A    
C70   H28   S    
C63   O2    S    
C30   C31   A    
N1    Ni1   S    
C47   C53   A    
H53   O4    S    
N6    Ni4   S    
C33   C35   A    
C4    N16   A    
C54   H18   S    
C1    N1    A    
C22   C24   A    
C9    C78   A    
C69   C70   A    
C80   H36   S    
C43   H10   S    
C56   H12   S    
C62   H25   S    
C10   C11   A    
C81   H37   S    
C79   C80   A    
C32   H7    S    
C83   H39   S    
H49   O11   S    
H44   O7    S    
C20   C21   A    
C78   N11   A    
C12   C44   S    
C49   C50   A    
C15   O8    S    
C14   C15   A    
C71   H32   S    
C64   O3    S    
C55   C60   S    
C35   C46   S    
C76   C85   A    
C39   F3    S    
C17   O5    S    
C20   C31   S    
