data_mof_unit_48310.cif
_audit_creation_date              2012-10-26T20:31:46-0400
_audit_creation_method            fapswitch 2.2
_symmetry_space_group_name_H-M    P1
_symmetry_Int_Tables_number       1
_space_group_crystal_system       triclinic
_cell_length_a                    15.872996
_cell_length_b                    10.850032
_cell_length_c                    9.547718
_cell_angle_alpha                 89.966227
_cell_angle_beta                  89.921147
_cell_angle_gamma                 90.372527
_cell_volume                      1644.29539457

loop_
_atom_site_label
_atom_site_type_symbol
_atom_type_description
_atom_site_fract_x
_atom_site_fract_y
_atom_site_fract_z
_atom_type_partial_charge
C1    C     C_R   0.500011 0.262721 0.499978 0.568786
C2    C     C_R   0.498204 0.130123 0.498917 0.027507
C3    C     C_R   0.479819 0.064638 0.374764 -0.155309
C4    C     C_R   0.340177 0.499882 0.500130 0.540790
C5    C     C_R   0.479151 0.935325 0.374814 -0.127225
C6    C     C_R   0.497112 0.869856 0.498809 0.033881
C7    C     C_R   0.512874 0.937840 0.618905 -0.038229
C8    C     C_3   0.539684 0.927351 0.767724 -0.204721
C9    C     C_3   0.540910 0.069581 0.768799 0.160613
C10   C     C_R   0.545535 0.586746 0.073465 0.177487
C11   C     C_R   0.449364 0.422201 0.074738 0.020178
C12   C     C_3   0.950451 0.407850 0.610679 -0.216201
C13   C     C_R   0.449140 0.422311 0.925965 0.488755
C14   C     C_R   0.546034 0.585541 0.925917 0.063213
C15   C     C_3   0.639055 0.603228 0.918802 -0.232537
C16   C     C_R   0.499394 0.737277 0.499882 0.567302
C17   C     C_3   0.639014 0.606622 0.077911 0.135829
C18   C     C_R   0.659771 0.499805 0.499894 0.587575
C19   C     C_3   0.048092 0.407838 0.610831 -0.210999
C20   C     C_3   0.048689 0.461490 0.354311 -0.216530
C21   C     C_3   0.951050 0.461509 0.354150 -0.213787
C22   C     C_1   0.749412 0.499797 0.499779 0.018929
C23   C     C_3   0.917099 0.499823 0.499909 0.053805
C24   C     C_3   0.082622 0.499808 0.500180 0.060561
C25   C     C_3   0.951553 0.630123 0.535061 -0.209769
C26   C     C_3   0.049193 0.630112 0.535232 -0.218280
C27   C     C_1   0.824963 0.499818 0.499786 -0.050030
C28   C     C_1   0.174831 0.499806 0.500298 -0.067289
C29   C     C_1   0.250436 0.499830 0.500288 -0.016207
C30   C     C_R   0.514100 0.062030 0.619023 0.051117
Cu1   Cu    Cu3+1 0.500000 0.499980 0.640670 1.076440
Cu2   Cu    Cu3+1 0.500000 0.500020 0.359330 1.000457
F1    F     F_    0.398762 0.341460 0.857003 -0.637142
H1    H     H_    0.926612 0.313304 0.587650 0.128170
H2    H     H_    0.409674 0.357500 0.130908 0.134338
H3    H     H_    0.071111 0.313285 0.587846 0.126656
H4    H     H_    0.672122 0.521249 0.876637 0.154930
H5    H     H_    0.656640 0.691426 0.867080 0.173020
H6    H     H_    0.674161 0.529121 0.125960 0.125476
H7    H     H_    0.072511 0.526354 0.272795 0.124271
H8    H     H_    0.071719 0.367907 0.326684 0.124384
H9    H     H_    0.927240 0.367937 0.326451 0.131405
H10   H     H_    0.928018 0.526391 0.272576 0.139549
H11   H     H_    0.072587 0.659785 0.639848 0.124760
H12   H     H_    0.071473 0.433500 0.716809 0.128194
H13   H     H_    0.073024 0.698030 0.456994 0.123661
H14   H     H_    0.928103 0.659806 0.639589 0.134002
H15   H     H_    0.756587 0.146923 0.660459 0.360194
H16   H     H_    0.614827 0.938119 0.139873 0.389707
H17   H     H_    0.926987 0.433534 0.716574 0.129753
H18   H     H_    0.928537 0.698024 0.456725 0.148775
H19   H     H_    0.466085 0.112622 0.278016 0.141818
H20   H     H_    0.464788 0.887279 0.278305 0.169207
H21   H     H_    0.489592 0.886404 0.834949 0.127345
H22   H     H_    0.602602 0.883950 0.777367 0.207960
H23   H     H_    0.492645 0.111405 0.838200 0.141315
N1    N     N_R   0.500530 0.500930 0.147930 -0.299406
N2    N     N_R   0.500530 0.500890 0.852020 -0.219058
O1    O     O_R   0.500000 0.319640 0.618810 -0.417463
O2    O     O_2   0.684905 0.079787 0.917541 -0.249490
O3    O     O_3   0.703652 0.099413 0.647699 -0.512074
O4    O     O_2   0.670802 0.751185 0.302206 -0.269629
O5    O     O_2   0.753400 0.790354 0.089870 -0.261945
O6    O     O_3   0.597126 0.860610 0.093380 -0.548874
O7    O     O_R   0.500010 0.319680 0.381230 -0.528343
O8    O     O_R   0.379430 0.499990 0.618840 -0.452994
O9    O     O_R   0.379440 0.500030 0.381260 -0.520375
O10   O     O_R   0.499990 0.680320 0.618770 -0.524765
O11   O     O_R   0.500000 0.680360 0.381190 -0.467276
O12   O     O_R   0.620560 0.499970 0.618740 -0.490430
O13   O     O_R   0.620570 0.500010 0.381160 -0.482103
O14   O     O_2   0.638911 0.270568 0.804742 -0.290267
S1    S     S_3+6 0.644657 0.133149 0.788905 0.012417
S2    S     S_3+6 0.667826 0.755249 0.145053 0.014215

loop_
_geom_bond_atom_site_label_1
_geom_bond_atom_site_label_2
_ccdc_geom_bond_type
C18   O12   A    
Cu1   O8    S    
C20   H8    S    
C26   H11   S    
C7    C8    S    
C12   C23   S    
Cu1   N2    S    
C5    H20   S    
C28   C29   T    
C24   C26   S    
C19   H3    S    
C1    O1    A    
C5    C6    A    
C20   H7    S    
C10   C17   S    
O2    S1    D    
C1    C2    S    
C17   H6    S    
Cu1   O1    S    
C15   H4    S    
C21   H10   S    
Cu1   O12   S    
C20   C24   S    
C8    C9    S    
C1    O7    A    
C16   O10   A    
C23   C27   S    
C25   H14   S    
C4    C29   S    
H16   O6    S    
C9    S1    S    
Cu2   N1    S    
C8    H22   S    
Cu2   O13   S    
Cu1   O10   S    
C14   N2    A    
C10   N1    A    
C10   C14   A    
C8    H21   S    
C13   N2    A    
O3    S1    S    
C25   C26   S    
C25   H18   S    
C15   H5    S    
C13   F1    S    
Cu1   Cu2   S    
C9    H23   S    
Cu2   O11   S    
C9    C30   S    
Cu2   O9    S    
C22   C27   T    
C21   C23   S    
C17   S2    S    
C12   H1    S    
C18   O13   A    
C15   C17   S    
C18   C22   S    
C16   O11   A    
C24   C28   S    
O14   S1    D    
C3    C5    A    
C4    O9    A    
C12   H17   S    
C3    H19   S    
C19   H12   S    
C6    C7    A    
O5    S2    D    
C2    C30   A    
C11   H2    S    
C19   C24   S    
C4    O8    A    
C11   C13   A    
H15   O3    S    
C12   C19   S    
C2    C3    A    
C23   C25   S    
C26   H13   S    
C6    C16   S    
C21   H9    S    
C20   C21   S    
C7    C30   A    
O6    S2    S    
C14   C15   S    
O4    S2    D    
C11   N1    A    
Cu2   O7    S    
