data_mof_unit_15169.cif
_audit_creation_date              2013-03-05T15:42:19-0500
_audit_creation_method            fapswitch 2.2
_symmetry_space_group_name_H-M    P1
_symmetry_Int_Tables_number       1
_space_group_crystal_system       triclinic
_cell_length_a                    11.066034
_cell_length_b                    10.929349
_cell_length_c                    9.704099
_cell_angle_alpha                 89.13298
_cell_angle_beta                  102.840183
_cell_angle_gamma                 90.432593
_cell_volume                      1144.1674978

loop_
_atom_site_label
_atom_site_type_symbol
_atom_site_description
_atom_site_fract_x
_atom_site_fract_y
_atom_site_fract_z
_atom_type_partial_charge
O1    O     O_R   0.500020 0.321960 0.617050 -0.530055
O2    O     O_R   0.499980 0.321920 0.382890 -0.576589
C1    C     C_R   0.500620 0.265297 0.500962 0.843537
O3    O     O_R   0.320700 0.500020 0.574050 -0.581677
O4    O     O_R   0.320660 0.499980 0.339890 -0.561963
C2    C     C_R   0.262678 0.500796 0.442102 0.736324
Cu1   Cu    Cu3+1 0.500020 0.500020 0.638640 1.020960
Cu2   Cu    Cu3+1 0.499980 0.499980 0.361360 1.070203
O5    O     O_R   0.500020 0.678080 0.617110 -0.579235
O6    O     O_R   0.499980 0.678040 0.382950 -0.538174
O7    O     O_R   0.679340 0.500020 0.660110 -0.562891
O8    O     O_R   0.679300 0.499980 0.425950 -0.522315
C3    C     C_R   0.494881 0.734721 0.497513 0.794170
C4    C     C_R   0.737168 0.500649 0.557634 0.856642
H1    H     H_    0.880269 0.527736 0.378348 0.262533
H2    H     H_    0.116971 0.498382 0.622266 0.185967
C5    C     C_2   0.127109 0.501121 0.406968 0.176030
C6    C     C_2   0.066316 0.501704 0.512533 -0.283366
H3    H     H_    0.922584 0.485946 0.699282 0.183001
C7    C     C_2   0.872188 0.499282 0.590481 -0.356237
C8    C     C_2   0.931843 0.511034 0.485687 -0.066810
C9    C     C_2   0.491902 0.936393 0.381699 0.351172
C10   C     C_2   0.468429 0.865539 0.488809 0.217791
C11   C     C_2   0.474128 0.070231 0.384179 -0.238083
C12   C     C_2   0.507556 0.133165 0.504038 -0.288556
H4    H     H_    0.440173 0.119028 0.285004 0.144591
H5    H     H_    0.545236 0.088221 0.604787 0.187873
C13   C     C_2   0.425825 0.430635 0.903409 0.561744
N1    N     N_2   0.498650 0.498660 0.846590 -0.279137
H6    H     H_    0.535619 0.575558 0.900142 0.194605
C14   C     C_2   0.411594 0.454082 0.053693 -0.178630
N2    N     N_2   0.498620 0.498630 0.152710 -0.069277
H7    H     H_    0.323766 0.431627 0.079866 0.152416
N3    N     N_R   0.618545 0.493323 0.130521 0.225208
O9    O     O_R   0.689727 0.589368 0.155136 -0.337078
O10   O     O_R   0.667644 0.387992 0.114683 -0.330687
N4    N     N_R   0.062385 0.499617 0.260724 0.128109
O11   O     O_R   0.097268 0.572177 0.169215 -0.357071
O12   O     O_R   0.981782 0.413758 0.215635 -0.311640
O13   O     O_3   0.543646 0.883625 0.277954 -0.555725
C15   C     C_3   0.494986 0.934523 0.142312 0.063127
H8    H     H_    0.541826 0.023109 0.129871 0.165358
H9    H     H_    0.392736 0.948028 0.122975 0.119381
C16   C     C_3   0.519518 0.847898 0.030484 -0.679542
H10   H     H_    0.471701 0.759159 0.038090 0.240527
H11   H     H_    0.484086 0.888396 0.923579 0.207254
H12   H     H_    0.620620 0.831878 0.045598 0.274566
O14   O     O_3   0.408534 0.912709 0.587638 -0.618555
C17   C     C_3   0.279198 0.890499 0.545036 0.050232
H13   H     H_    0.248860 0.843889 0.441148 0.123471
H14   H     H_    0.230932 0.979988 0.534434 0.178379
C18   C     C_3   0.235733 0.814045 0.657534 -0.773816
H15   H     H_    0.277785 0.721789 0.665943 0.257777
H16   H     H_    0.262715 0.858615 0.761830 0.244977
H17   H     H_    0.133315 0.803902 0.628785 0.214372
O15   O     O_3   0.354439 0.343182 0.818622 -0.544612
C19   C     C_3   0.325379 0.242609 0.898741 0.021073
H18   H     H_    0.245943 0.265604 0.946290 0.157955
H19   H     H_    0.406392 0.213542 0.983125 0.140634
C20   C     C_3   0.287258 0.134710 0.801774 -0.746290
H20   H     H_    0.366072 0.106645 0.756010 0.273183
H21   H     H_    0.260108 0.056786 0.863235 0.191230
H22   H     H_    0.207317 0.159908 0.714937 0.251636

loop_
_geom_bond_atom_site_label_1
_geom_bond_atom_site_label_2
_geom_bond_distance
_ccdc_geom_bond_type
O4    Cu2   1.948676 S    
C14   H7    1.083310 S    
O13   C15   1.413982 S    
N4    O11   1.301121 A    
Cu1   N1    2.021219 S    
C12   H5    1.085531 S    
C6    C8    1.456660 S    
C15   H8    1.112353 S    
H3    C7    1.087132 S    
C16   H12   1.110456 S    
C1    C12   1.446233 S    
Cu2   O8    1.943642 S    
C17   C18   1.523500 S    
C9    O13   1.397417 S    
Cu1   O5    1.954117 S    
C18   H16   1.108693 S    
C5    C6    1.344839 D    
C13   O15   1.392155 S    
Cu1   Cu2   2.690662 S    
N4    O12   1.301503 A    
H2    C6    1.087791 S    
C5    N4    1.440854 S    
C18   H15   1.107965 S    
C7    C8    1.334007 D    
Cu1   O7    1.948675 S    
C15   H9    1.115621 S    
C19   H18   1.111710 S    
N1    H6    1.028248 S    
C20   H22   1.110783 S    
Cu2   O6    1.960474 S    
O14   C17   1.418831 S    
C15   C16   1.521055 S    
C18   H17   1.110460 S    
C11   H4    1.085638 S    
O2    C1    1.292617 A    
N3    O10   1.302310 A    
O3    Cu1   1.943641 S    
O4    C2    1.295688 A    
O7    C4    1.296546 A    
C9    C11   1.478660 S    
C19   H19   1.115932 S    
O3    C2    1.298534 A    
O15   C19   1.412817 S    
Cu2   N2    2.021746 S    
C4    C7    1.456980 S    
H1    C8    1.084257 S    
C11   C12   1.338629 D    
C3    C10   1.459010 S    
C20   H21   1.109820 S    
N3    O9    1.300339 A    
C17   H13   1.118524 S    
C2    C5    1.462734 S    
O5    C3    1.297246 A    
C9    C10   1.356513 D    
C13   N1    1.297014 D    
C19   C20   1.517798 S    
C10   O14   1.388339 S    
C16   H11   1.110766 S    
C17   H14   1.110348 S    
O1    Cu1   1.960475 S    
C13   C14   1.526867 S    
O2    Cu2   1.954117 S    
C16   H10   1.110638 S    
C14   N2    1.297516 D    
O8    C4    1.295990 A    
C20   H20   1.110087 S    
O1    C1    1.295041 A    
O6    C3    1.293119 A    
N2    N3    1.392650 S    
