data_mof_unit_33029.cif
_audit_creation_date              2013-03-05T16:05:45-0500
_audit_creation_method            fapswitch 2.2
_symmetry_space_group_name_H-M    P1
_symmetry_Int_Tables_number       1
_space_group_crystal_system       triclinic
_cell_length_a                    9.516205
_cell_length_b                    10.825549
_cell_length_c                    17.353148
_cell_angle_alpha                 90.328623
_cell_angle_beta                  85.526441
_cell_angle_gamma                 89.805454
_cell_volume                      1782.20022529

loop_
_atom_site_label
_atom_site_type_symbol
_atom_site_description
_atom_site_fract_x
_atom_site_fract_y
_atom_site_fract_z
_atom_type_partial_charge
O1    O     O_R   0.381260 0.680340 0.500000 -0.537438
O2    O     O_R   0.618740 0.319660 0.500000 -0.560699
O3    O     O_R   0.618830 0.680370 0.500010 -0.596484
O4    O     O_R   0.381170 0.319630 0.499990 -0.596616
C1    C     C_R   0.499796 0.737916 0.500463 0.791248
C2    C     C_R   0.500027 0.262075 0.500325 0.787254
O5    O     O_R   0.367440 0.500000 0.613600 -0.558421
O6    O     O_R   0.632560 0.500000 0.386400 -0.535337
O7    O     O_R   0.605010 0.500030 0.613600 -0.595839
O8    O     O_R   0.394990 0.499970 0.386400 -0.596101
C3    C     C_R   0.481214 0.501082 0.649934 0.789786
C4    C     C_R   0.518813 0.497168 0.350077 0.794925
Cu1   Cu    Cu3+1 0.359340 0.499980 0.500000 0.977989
Cu2   Cu    Cu3+1 0.640660 0.500020 0.500000 0.977969
C5    C     C_R   0.470744 0.504663 0.734278 -0.022686
C6    C     C_R   0.529237 0.487498 0.265848 -0.030290
C7    C     C_R   0.589684 0.535500 0.773141 -0.204731
C8    C     C_R   0.408344 0.459944 0.227840 -0.206883
C9    C     C_R   0.581691 0.537730 0.853273 -0.149211
C10   C     C_R   0.416065 0.451118 0.147921 -0.145983
C11   C     C_R   0.454827 0.507912 0.895638 0.195518
C12   C     C_R   0.544540 0.471886 0.104625 0.192889
C13   C     C_R   0.334907 0.480530 0.856991 -0.171921
C14   C     C_R   0.666564 0.494623 0.142562 -0.179788
C15   C     C_R   0.342938 0.477979 0.776591 -0.214274
C16   C     C_R   0.659102 0.502591 0.222897 -0.177526
C17   C     C_2   0.444655 0.505658 0.980224 -0.230972
C18   C     C_2   0.553790 0.471743 0.019892 -0.228096
H1    H     H_    0.688836 0.558697 0.741683 0.144910
H2    H     H_    0.307616 0.444444 0.259806 0.149807
H3    H     H_    0.754159 0.522131 0.251183 0.168435
H4    H     H_    0.250007 0.453570 0.747680 0.140710
H5    H     H_    0.654414 0.447216 0.989763 0.143827
H6    H     H_    0.343844 0.530432 0.009946 0.143692
H7    H     H_    0.235992 0.458512 0.889073 0.121051
H8    H     H_    0.766870 0.509046 0.109920 0.122660
H9    H     H_    0.321422 0.427402 0.120510 0.123198
H10   H     H_    0.674363 0.564087 0.881746 0.121399
C19   C     C_R   0.623177 0.935801 0.514251 -0.188576
C20   C     C_R   0.375646 0.064171 0.488864 -0.191436
H11   H     H_    0.719685 0.887391 0.524606 0.147698
H12   H     H_    0.279111 0.112546 0.478508 0.145033
C21   C     C_R   0.623147 0.063606 0.514508 -0.199734
C22   C     C_R   0.375397 0.936375 0.489129 -0.167144
H13   H     H_    0.719340 0.111569 0.525477 0.140797
H14   H     H_    0.278697 0.888426 0.479098 0.164995
C23   C     C_R   0.499746 0.128232 0.501155 -0.014491
C24   C     C_R   0.499410 0.871752 0.501295 -0.017658
C25   C     C_R   0.917914 0.576304 0.548382 -0.239537
C26   C     C_R   0.082196 0.425224 0.450691 -0.238875
H15   H     H_    0.853710 0.638825 0.584914 0.162042
H16   H     H_    0.146807 0.368665 0.410488 0.162235
C27   C     C_R   0.067901 0.575504 0.549886 0.573589
C28   C     C_R   0.931970 0.422740 0.451197 0.573628
N1    N     N_R   0.147930 0.499970 0.499980 -0.215081
N2    N     N_R   0.852070 0.500030 0.500020 -0.214778
O9    O     O_3   0.137484 0.659034 0.594491 -0.552185
C29   C     C_3   0.075351 0.670617 0.671079 0.043407
H17   H     H_    0.160395 0.660627 0.710870 0.179375
H18   H     H_    0.996026 0.598350 0.688404 0.100348
C30   C     C_3   0.012051 0.799354 0.683809 -0.839655
H19   H     H_    0.927903 0.816060 0.644285 0.232063
H20   H     H_    0.966269 0.808829 0.744415 0.210484
H21   H     H_    0.095339 0.870187 0.672946 0.259022
O10   O     O_3   0.863659 0.353678 0.397767 -0.553210
C31   C     C_3   0.915913 0.231308 0.389065 0.044125
H22   H     H_    0.824391 0.167873 0.394646 0.178937
H23   H     H_    0.986857 0.201990 0.433850 0.101374
C32   C     C_3   0.988182 0.213194 0.308254 -0.836415
H24   H     H_    0.079229 0.276401 0.298513 0.231043
H25   H     H_    0.026302 0.116436 0.301149 0.212490
H26   H     H_    0.912337 0.232137 0.264211 0.258116

loop_
_geom_bond_atom_site_label_1
_geom_bond_atom_site_label_2
_geom_bond_distance
_ccdc_geom_bond_type
C32   H26   1.110837 S    
Cu2   N2    2.011848 S    
O7    Cu2   1.974045 S    
C28   N2    1.372251 A    
C8    H2    1.083455 S    
C9    H10   1.082284 S    
C30   H21   1.110945 S    
C25   N2    1.362465 A    
O7    C3    1.292077 A    
C19   C24   1.401281 A    
C26   H16   1.079478 S    
C26   N1    1.362569 A    
C14   H8    1.083525 S    
O5    Cu1   1.978821 S    
O6    C4    1.294741 A    
Cu1   N1    2.011849 S    
C30   H19   1.109257 S    
C29   C30   1.524444 S    
C27   N1    1.372362 A    
C31   H22   1.109588 S    
C11   C17   1.463811 S    
C32   H25   1.110375 S    
C16   H3    1.083194 S    
C17   H6    1.085243 S    
C28   O10   1.389448 S    
C12   C18   1.466139 S    
Cu1   Cu2   2.677099 S    
O5    C3    1.294759 A    
C10   H9    1.081823 S    
C21   H13   1.083066 S    
C14   C16   1.392493 A    
O9    C29   1.416578 S    
C26   C28   1.429265 A    
O3    Cu2   1.962705 S    
O8    C4    1.292424 A    
C15   H4    1.082995 S    
C25   C27   1.429579 A    
C12   C14   1.400614 A    
O4    C2    1.289895 A    
C9    C11   1.403233 A    
C10   C12   1.403661 A    
C18   H5    1.085981 S    
C13   H7    1.083558 S    
C13   C15   1.391430 A    
C11   C13   1.399762 A    
C6    C16   1.403055 A    
C32   H24   1.109034 S    
O2    Cu2   1.964311 S    
C1    C24   1.448822 S    
O1    C1    1.291166 A    
C5    C15   1.402607 A    
C31   C32   1.524276 S    
O1    Cu1   1.964311 S    
C2    C23   1.449090 S    
C29   H18   1.115152 S    
C22   C24   1.400590 A    
C3    C5    1.459539 S    
C20   C22   1.383504 A    
C7    H1    1.083597 S    
C19   H11   1.083476 S    
C8    C10   1.385782 A    
C6    C8    1.402124 A    
O10   C31   1.416494 S    
C4    C6    1.460391 S    
C17   C18   1.341296 D    
C5    C7    1.402290 A    
C27   O9    1.389702 S    
C7    C9    1.386737 A    
C19   C21   1.383537 A    
O6    Cu2   1.978823 S    
C31   H23   1.115224 S    
C25   H15   1.079407 S    
C29   H17   1.109449 S    
C20   C23   1.401509 A    
C21   C23   1.400320 A    
C30   H20   1.110584 S    
O2    C2    1.291781 A    
O4    Cu1   1.962705 S    
C22   H14   1.083389 S    
C20   H12   1.083523 S    
O3    C1    1.290364 A    
O8    Cu1   1.974047 S    
