data_mof_unit_50821.cif
_audit_creation_date              2012-12-11T14:00:01-0500
_audit_creation_method            fapswitch 2.2
_symmetry_space_group_name_H-M    P1
_symmetry_Int_Tables_number       1
_space_group_crystal_system       triclinic
_cell_length_a                    11.224274
_cell_length_b                    11.156405
_cell_length_c                    18.746034
_cell_angle_alpha                 89.77899
_cell_angle_beta                  89.450193
_cell_angle_gamma                 119.81941
_cell_volume                      2036.42545365

loop_
_atom_site_label
_atom_site_type_symbol
_atom_type_description
_atom_site_fract_x
_atom_site_fract_y
_atom_site_fract_z
_atom_type_partial_charge
C1    C     C_R   0.541574 0.477888 0.853127 0.564271
C2    C     C_R   0.481807 0.539427 0.349529 0.533610
C3    C     C_R   0.136311 0.550265 0.358633 0.558036
C4    C     C_R   0.416799 0.868599 0.359682 0.550394
C5    C     C_2   0.014242 0.503617 0.583081 -0.104611
C6    C     C_2   0.578116 0.450932 0.563743 -0.117412
C7    C     C_2   0.490412 0.982225 0.585320 -0.108665
C8    C     C_2   0.428852 0.885567 0.437197 -0.130915
C9    C     C_2   0.509021 0.486243 0.414571 -0.115972
C10   C     C_2   0.132852 0.553175 0.436903 -0.151054
C11   C     C_2   0.104164 0.445200 0.481292 -0.014750
C12   C     C_R   0.519055 0.059012 0.850914 0.558123
C13   C     C_2   0.632697 0.552879 0.445709 -0.000145
C14   C     C_2   0.360412 0.933437 0.477738 -0.018968
C15   C     C_2   0.365021 0.922126 0.555872 0.016240
C16   C     C_2   0.630534 0.567240 0.523373 0.006747
C17   C     C_2   0.106830 0.469492 0.558746 0.012468
C18   C     C_2   0.026247 0.516435 0.913240 -0.137243
C19   C     C_2   0.493549 0.495115 0.922680 -0.139425
C20   C     C_2   0.486430 0.968381 0.912584 -0.137720
C21   C     C_2   0.458548 0.920357 0.064661 -0.133609
C22   C     C_2   0.496995 0.494253 0.077689 -0.126977
C23   C     C_R   0.939039 0.459279 0.851446 0.555036
C24   C     C_2   0.081510 0.537101 0.064635 -0.132841
C25   C     C_2   0.080488 0.640863 0.026936 -0.081915
C26   C     C_2   0.388673 0.399098 0.039727 -0.074243
C27   C     C_2   0.556172 0.911103 0.025523 -0.080461
C28   C     C_2   0.583911 0.960572 0.950877 -0.068216
C29   C     C_2   0.402040 0.385218 0.962664 -0.071080
C30   C     C_2   0.026357 0.616657 0.953825 -0.066879
C31   C     C_3   0.049241 0.297768 0.455088 -0.235637
C32   C     C_3   0.995443 0.186300 0.513450 -0.458653
C33   C     C_3   0.764782 0.644923 0.404164 -0.227999
C34   C     C_R   0.478381 0.541964 0.146945 0.545946
C35   C     C_3   0.886395 0.637139 0.433294 -0.445080
C36   C     C_3   0.289801 0.008185 0.445968 -0.231045
C37   C     C_3   0.244685 0.081812 0.498838 -0.461109
C38   C     C_3   0.231685 0.823694 0.595749 -0.249936
C39   C     C_3   0.175746 0.879661 0.653687 -0.387120
C40   C     C_3   0.653084 0.705704 0.550663 -0.225809
C41   C     C_3   0.802417 0.806154 0.569836 -0.412419
C42   C     C_3   0.222204 0.470918 0.602239 -0.266279
C43   C     C_3   0.180244 0.389770 0.672558 -0.392153
C44   C     C_1   0.110373 0.771413 0.058793 0.239176
C45   C     C_R   0.127166 0.548603 0.138057 0.544172
C46   C     C_1   0.255817 0.303865 0.072254 0.254553
C47   C     C_1   0.653261 0.875988 0.056369 0.254848
C48   C     C_1   0.721725 0.007600 0.922399 0.266086
C49   C     C_1   0.310200 0.250239 0.932419 0.264407
C50   C     C_1   0.965712 0.698753 0.929930 0.262634
C51   C     C_R   0.422544 0.873739 0.138410 0.543056
C52   C     C_R   0.585321 0.450149 0.641309 0.573167
C53   C     C_R   0.516774 0.055851 0.651634 0.541251
C54   C     C_R   0.945285 0.461066 0.651488 0.536122
Cr1   Cr    Cr6+3 0.464030 0.233680 0.750360 1.011689
Cr2   Cr    Cr6+3 0.766320 0.230350 0.750360 1.027917
Cr3   Cr    Cr6+3 0.769650 0.535970 0.750360 1.021180
Cr4   Cr    Cr6+3 0.233680 0.464030 0.249640 1.029835
Cr5   Cr    Cr6+3 0.230350 0.766320 0.249640 1.031436
Cr6   Cr    Cr6+3 0.535970 0.769650 0.249640 1.039259
H1    H     H_    0.160815 0.652487 0.459836 0.072359
H2    H     H_    0.380503 0.918752 0.931175 0.101959
H3    H     H_    0.549840 0.597383 0.945700 0.105916
H4    H     H_    0.081849 0.464563 0.929308 0.099079
H5    H     H_    0.079592 0.198757 0.548463 0.150496
H6    H     H_    0.913467 0.189279 0.545737 0.181561
H7    H     H_    0.951077 0.083586 0.488041 0.125739
H8    H     H_    0.959909 0.270177 0.420228 0.185451
H9    H     H_    0.130902 0.291998 0.423986 0.162157
H10   H     H_    0.904468 0.669685 0.489596 0.138694
H11   H     H_    0.868191 0.530150 0.428455 0.169349
H12   H     H_    0.418704 0.415857 0.445987 0.074987
H13   H     H_    0.979710 0.709169 0.402415 0.158502
H14   H     H_    0.754748 0.612336 0.347533 0.179717
H15   H     H_    0.787485 0.753812 0.405654 0.159790
H16   H     H_    0.146273 0.006333 0.524856 0.141808
H17   H     H_    0.324683 0.139321 0.539049 0.178244
H18   H     H_    0.226970 0.157482 0.469177 0.126144
H19   H     H_    0.363461 0.089561 0.408544 0.182762
H20   H     H_    0.197097 0.933533 0.416530 0.163568
H21   H     H_    0.187851 0.981468 0.639414 0.165897
H22   H     H_    0.064416 0.806636 0.661837 0.124092
H23   H     H_    0.485637 0.842782 0.463149 0.064025
H24   H     H_    0.224990 0.885023 0.705564 0.176136
H25   H     H_    0.149296 0.774828 0.555770 0.132824
H26   H     H_    0.245121 0.741591 0.620683 0.130440
H27   H     H_    0.807597 0.893072 0.600959 0.134175
H28   H     H_    0.847482 0.755196 0.601808 0.180980
H29   H     H_    0.865765 0.849874 0.520851 0.120665
H30   H     H_    0.623065 0.755770 0.508720 0.123143
H31   H     H_    0.583553 0.691080 0.596500 0.162073
H32   H     H_    0.096751 0.281972 0.664764 0.166578
H33   H     H_    0.269296 0.385988 0.694678 0.165772
H34   H     H_    0.581133 0.019680 0.551134 0.084671
H35   H     H_    0.150212 0.442719 0.712864 0.160807
H36   H     H_    0.276026 0.429715 0.568939 0.146540
H37   H     H_    0.300721 0.579019 0.613687 0.119745
H38   H     H_    0.543112 0.352012 0.538046 0.070748
H39   H     H_    0.955105 0.524292 0.544933 0.077978
H40   H     H_    0.044770 0.436121 0.041336 0.123369
H41   H     H_    0.598236 0.552713 0.053183 0.123240
H42   H     H_    0.400932 0.964935 0.041795 0.125142
N1    N     N_1   0.130618 0.875135 0.082926 -0.233959
N2    N     N_1   0.150182 0.227173 0.097560 -0.233737
N3    N     N_1   0.735448 0.852760 0.078790 -0.235002
N4    N     N_1   0.831233 0.044467 0.900128 -0.241706
N5    N     N_1   0.235930 0.142847 0.909047 -0.244764
N6    N     N_1   0.918198 0.764797 0.911420 -0.238084
O1    O     O_R   0.434100 0.092480 0.829780 -0.497800
O2    O     O_R   0.362730 0.477510 0.175360 -0.504868
O3    O     O_R   0.114780 0.637270 0.175360 -0.480538
O4    O     O_R   0.522490 0.885220 0.175360 -0.465681
O5    O     O_R   0.432250 0.092620 0.670380 -0.530320
O6    O     O_R   0.907380 0.339630 0.670380 -0.518234
O7    O     O_R   0.660370 0.567750 0.670380 -0.521297
O8    O     O_R   0.092620 0.432250 0.329620 -0.508077
O9    O     O_R   0.339630 0.907380 0.329620 -0.525899
O10   O     O_R   0.567750 0.660370 0.329620 -0.531063
O11   O     O_R   0.475790 0.362860 0.676880 -0.523089
O12   O     O_R   0.907520 0.341620 0.829780 -0.498035
O13   O     O_R   0.637140 0.112930 0.676880 -0.509388
O14   O     O_R   0.887070 0.524210 0.676880 -0.531701
O15   O     O_R   0.362860 0.475790 0.323120 -0.521597
O16   O     O_R   0.112930 0.637140 0.323120 -0.511970
O17   O     O_R   0.524210 0.887070 0.323120 -0.476898
O18   O     O_3   0.666667 0.333333 0.749450 -0.269214
O19   O     O_3   0.333333 0.666667 0.250550 -0.339337
O20   O     O_R   0.658380 0.565900 0.829780 -0.484892
O21   O     O_R   0.092480 0.434100 0.170220 -0.468398
O22   O     O_R   0.341620 0.907520 0.170220 -0.475979
O23   O     O_R   0.565900 0.658380 0.170220 -0.491809
O24   O     O_R   0.477510 0.362730 0.824640 -0.486490
O25   O     O_R   0.637270 0.114780 0.824640 -0.483507
O26   O     O_R   0.885220 0.522490 0.824640 -0.489307

loop_
_geom_bond_atom_site_label_1
_geom_bond_atom_site_label_2
_ccdc_geom_bond_type
C41   H29   S    
Cr5   O22   S    
C45   O21   A    
C51   O4    A    
C8    H23   S    
C1    O20   A    
C21   C51   S    
C4    C8    S    
C1    O24   A    
Cr3   O20   S    
Cr2   O25   S    
C2    O10   A    
Cr3   O7    S    
Cr1   O11   S    
C2    O15   A    
Cr4   O15   S    
C22   H41   S    
C4    O17   A    
C38   H26   S    
C42   H36   S    
C24   C45   S    
C6    H38   S    
Cr6   O17   S    
C39   H24   S    
C3    O8    A    
C14   C36   S    
C38   C39   S    
C5    C17   D    
Cr4   O21   S    
Cr5   O19   S    
Cr5   O16   S    
Cr6   O23   S    
C7    H34   S    
C9    C13   D    
C17   C42   S    
C33   C35   S    
Cr3   O14   S    
C33   H15   S    
C48   N4    T    
C5    H39   S    
C35   H10   S    
C19   H3    S    
C47   N3    T    
C43   H35   S    
C9    H12   S    
Cr6   O10   S    
C18   C30   D    
Cr2   O18   S    
C35   H13   S    
C7    C15   D    
C54   O14   A    
C11   C31   S    
Cr4   O19   S    
Cr5   O9    S    
C24   H40   S    
Cr1   O1    S    
Cr4   O8    S    
Cr2   O12   S    
C28   C48   S    
C41   H27   S    
C25   C44   S    
C12   O1    A    
C51   O22   A    
C53   O5    A    
C31   H8    S    
C22   C34   S    
C1    C19   S    
C38   H25   S    
C18   C23   S    
C5    C54   S    
C24   C25   D    
C39   H21   S    
C49   N5    T    
C36   H20   S    
C42   H37   S    
C23   O12   A    
C29   C49   S    
Cr1   O5    S    
C37   H17   S    
C15   C38   S    
C13   C33   S    
Cr6   O4    S    
Cr5   O3    S    
C31   C32   S    
Cr1   O18   S    
C12   C20   S    
C16   C40   S    
C32   H7    S    
C21   H42   S    
C40   C41   S    
C37   H16   S    
C34   O23   A    
C12   O25   A    
C21   C27   D    
Cr3   O26   S    
C10   H1    S    
C42   C43   S    
C7    C53   S    
C19   C29   D    
Cr3   O18   S    
C3    O16   A    
C32   H6    S    
C52   O7    A    
C27   C47   S    
C25   C30   S    
C41   H28   S    
C36   C37   S    
C8    C14   D    
C23   O26   A    
Cr4   O2    S    
C50   N6    T    
Cr6   O19   S    
C39   H22   S    
C36   H19   S    
C11   C17   S    
C45   O3    A    
C20   C28   D    
C37   H18   S    
C43   H32   S    
C40   H30   S    
Cr2   O13   S    
C44   N1    T    
C35   H11   S    
C3    C10   S    
C53   O13   A    
C18   H4    S    
C46   N2    T    
C34   O2    A    
C54   O6    A    
C43   H33   S    
C40   H31   S    
C30   C50   S    
C4    O9    A    
C10   C11   D    
C26   C46   S    
C6    C16   D    
C52   O11   A    
C33   H14   S    
C31   H9    S    
C26   C29   S    
Cr1   O24   S    
C22   C26   D    
C13   C16   S    
C27   C28   S    
Cr2   O6    S    
C14   C15   S    
C32   H5    S    
C6    C52   S    
C2    C9    S    
C20   H2    S    
