data_mof_unit_43271.cif
_audit_creation_date              2012-12-10T18:47:01-0500
_audit_creation_method            fapswitch 2.2
_symmetry_space_group_name_H-M    P1
_symmetry_Int_Tables_number       1
_space_group_crystal_system       triclinic
_cell_length_a                    10.69982
_cell_length_b                    10.024036
_cell_length_c                    14.967781
_cell_angle_alpha                 90.088411
_cell_angle_beta                  92.075309
_cell_angle_gamma                 89.885164
_cell_volume                      1604.31711481

loop_
_atom_site_label
_atom_site_type_symbol
_atom_type_description
_atom_site_fract_x
_atom_site_fract_y
_atom_site_fract_z
_atom_type_partial_charge
C1    C     C_R   0.260451 0.500059 0.499766 0.907875
C2    C     C_R   0.739549 0.499941 0.500234 0.907874
C3    C     C_R   0.276526 0.454984 0.039707 -0.173024
C4    C     C_R   0.723471 0.545022 0.960293 -0.173024
C5    C     C_R   0.064285 0.378479 0.502371 -0.122230
C6    C     C_R   0.935715 0.621521 0.497629 -0.122230
C7    C     C_R   0.936470 0.378410 0.502105 -0.116453
C8    C     C_R   0.063530 0.621590 0.497895 -0.116453
C9    C     C_R   0.872346 0.499935 0.500097 -0.012209
C10   C     C_R   0.127654 0.500065 0.499903 -0.012207
C11   C     C_R   0.578821 0.071290 0.556664 0.156181
C12   C     C_R   0.421179 0.928710 0.443336 0.156182
C13   C     C_R   0.421166 0.071402 0.443340 0.157627
C14   C     C_R   0.578834 0.928598 0.556659 0.157628
C15   C     C_R   0.497506 0.499879 0.327393 0.949279
C16   C     C_R   0.502494 0.500121 0.672607 0.949279
C17   C     C_R   0.616583 0.504530 0.816969 0.104696
C18   C     C_R   0.383415 0.495472 0.183031 0.104696
C19   C     C_R   0.502469 0.500237 0.768169 -0.154839
C20   C     C_R   0.497530 0.499763 0.231831 -0.154839
C21   C     C_R   0.387444 0.498929 0.809902 0.085303
C22   C     C_R   0.612555 0.501072 0.190097 0.085303
C23   C     C_R   0.386446 0.480531 0.902614 0.017351
C24   C     C_R   0.613552 0.519473 0.097385 0.017351
C25   C     C_R   0.500201 0.498676 0.953091 -0.000264
C26   C     C_R   0.499796 0.501329 0.046909 -0.000264
C27   C     C_R   0.614579 0.514380 0.909923 0.044025
C28   C     C_R   0.385419 0.485625 0.090077 0.044025
C29   C     C_R   0.277062 0.446401 0.947394 0.191342
C30   C     C_R   0.722935 0.553604 0.052606 0.191342
H1    H     H_    0.191082 0.428625 0.071485 0.207501
H2    H     H_    0.808916 0.571381 0.928515 0.207500
H3    H     H_    0.112807 0.283578 0.504634 0.184159
H4    H     H_    0.887193 0.716422 0.495366 0.184159
H5    H     H_    0.888535 0.283466 0.503209 0.186451
H6    H     H_    0.111465 0.716534 0.496791 0.186451
N1    N     N_R   0.500000 0.857200 0.500000 -0.151457
N2    N     N_R   0.500000 0.142800 0.500000 -0.151457
O1    O     O_R   0.316770 0.614620 0.499990 -0.607007
O2    O     O_R   0.683230 0.385380 0.500010 -0.607006
O3    O     O_R   0.683230 0.614620 0.500010 -0.611625
O4    O     O_R   0.316770 0.385380 0.499990 -0.611625
O5    O     O_R   0.499980 0.614680 0.367850 -0.588956
O6    O     O_R   0.500020 0.385320 0.632150 -0.588955
O7    O     O_R   0.500020 0.614680 0.632150 -0.582780
O8    O     O_R   0.499980 0.385320 0.367850 -0.582780
Zn1   Zn    Zn3+2 0.500000 0.653120 0.500000 1.036582
Zn2   Zn    Zn3+2 0.500000 0.346880 0.500000 1.036582
I1    I     I_    0.790985 0.499642 0.749986 -0.236002
I2    I     I_    0.209014 0.500359 0.250015 -0.236003
I3    I     I_    0.226033 0.571304 0.735198 -0.247980
I4    I     I_    0.773965 0.428690 0.264798 -0.247977
I5    I     I_    0.120425 0.341337 0.889956 -0.200410
I6    I     I_    0.879572 0.658667 0.110046 -0.200412
I7    I     I_    0.704019 0.172253 0.646894 -0.208989
I8    I     I_    0.295981 0.827747 0.353105 -0.208990
I9    I     I_    0.295817 0.172613 0.353216 -0.214147
I10   I     I_    0.704183 0.827387 0.646784 -0.214148

loop_
_geom_bond_atom_site_label_1
_geom_bond_atom_site_label_2
_ccdc_geom_bond_type
C16   O7    A    
C2    C9    S    
C11   N2    A    
O6    Zn2   S    
N1    Zn1   S    
O5    Zn1   S    
C16   O6    A    
C26   C28   A    
N2    Zn2   S    
C11   I7    S    
C7    C9    A    
C6    C9    A    
O7    Zn1   S    
O3    Zn1   S    
C15   O5    A    
C5    C10   A    
O4    Zn2   S    
C14   N1    A    
C3    H1    S    
C30   I6    S    
C13   N2    A    
C12   I8    S    
C29   I5    S    
C16   C19   S    
C23   C29   A    
C22   I4    S    
C3    C28   A    
C19   C21   A    
C20   C22   A    
C18   C20   A    
C23   C25   A    
C21   C23   A    
C15   C20   S    
C14   I10   S    
C11   C14   A    
C22   C24   A    
C24   C30   A    
C13   I9    S    
C1    O1    A    
C2    O3    A    
C4    H2    S    
C17   C27   A    
O8    Zn2   S    
C2    O2    A    
C1    O4    A    
C21   I3    S    
C4    C27   A    
C18   C28   A    
C12   C13   A    
C18   I2    S    
C3    C29   A    
C8    H6    S    
C17   I1    S    
C12   N1    A    
C5    C7    A    
O2    Zn2   S    
C6    C8    A    
C15   O8    A    
C17   C19   A    
C25   C26   A    
O1    Zn1   S    
C7    H5    S    
C8    C10   A    
C4    C30   A    
C1    C10   S    
C6    H4    S    
C24   C26   A    
C25   C27   A    
C5    H3    S    
