data_mof_unit_30949.cif
_audit_creation_date              2012-12-10T21:13:55-0500
_audit_creation_method            fapswitch 2.2
_symmetry_space_group_name_H-M    P1
_symmetry_Int_Tables_number       1
_space_group_crystal_system       triclinic
_cell_length_a                    15.427352
_cell_length_b                    16.904343
_cell_length_c                    17.435046
_cell_angle_alpha                 92.424774
_cell_angle_beta                  93.284638
_cell_angle_gamma                 68.265863
_cell_volume                      4215.61585139

loop_
_atom_site_label
_atom_site_type_symbol
_atom_type_description
_atom_site_fract_x
_atom_site_fract_y
_atom_site_fract_z
_atom_type_partial_charge
C1    C     C_R   0.503514 0.500248 0.646726 0.888213
C2    C     C_R   0.499080 0.498927 0.353156 0.891134
C3    C     C_R   0.093500 0.414485 0.444579 -0.252787
C4    C     C_R   0.892015 0.604315 0.502421 -0.256007
C5    C     C_R   0.052531 0.353845 0.427848 0.085888
C6    C     C_R   0.932846 0.664275 0.521884 0.080011
C7    C     C_R   0.580354 0.415726 0.158060 -0.164047
C8    C     C_R   0.488497 0.569269 0.852990 -0.167572
C9    C     C_R   0.563729 0.418238 0.235750 -0.269748
C10   C     C_R   0.473576 0.570726 0.773775 -0.277517
C11   C     C_R   0.505614 0.494407 0.270400 -0.027946
C12   C     C_R   0.520214 0.498013 0.729312 -0.024441
C13   C     C_R   0.461119 0.567628 0.226364 0.095963
C14   C     C_R   0.585557 0.424582 0.764058 0.091117
C15   C     C_R   0.478020 0.564354 0.148604 -0.213181
C16   C     C_R   0.600065 0.423810 0.843636 -0.215279
C17   C     C_R   0.538326 0.489205 0.115350 0.142191
C18   C     C_R   0.550679 0.495490 0.887433 0.141564
C19   C     C_1   0.551425 0.487729 0.035847 -0.064487
C20   C     C_1   0.555074 0.490313 0.968160 -0.062792
C21   C     C_R   0.526927 0.162666 0.569768 0.010192
C22   C     C_R   0.464771 0.839646 0.432020 0.013471
C23   C     C_R   0.676113 0.447005 0.499446 0.909146
C24   C     C_R   0.323885 0.553219 0.499879 0.903727
C25   C     C_R   0.524697 0.247492 0.566298 -0.082480
C26   C     C_R   0.463595 0.756272 0.437081 -0.081577
C27   C     C_R   0.476948 0.253215 0.434543 0.193976
C28   C     C_R   0.538290 0.740530 0.561810 0.176968
C29   C     C_R   0.496277 0.164106 0.432779 0.020999
C30   C     C_R   0.535674 0.825987 0.560380 0.025717
C31   C     C_R   0.512346 0.119877 0.501496 0.055981
C32   C     C_R   0.501514 0.875246 0.494688 0.057842
C33   C     C_1   0.509061 0.033186 0.499477 -0.069209
C34   C     C_1   0.504299 0.962174 0.495182 -0.062162
C35   C     C_R   0.775448 0.414429 0.485389 -0.081660
C36   C     C_R   0.222657 0.588049 0.504084 -0.079652
C37   C     C_R   0.899788 0.333710 0.400773 0.098709
C38   C     C_R   0.084154 0.676364 0.571115 0.101439
C39   C     C_R   0.811203 0.350575 0.429370 -0.268685
C40   C     C_R   0.179896 0.651673 0.558526 -0.266695
C41   C     C_R   0.826963 0.462516 0.513166 0.041847
C42   C     C_R   0.170589 0.549487 0.460432 0.033451
C43   C     C_R   0.908577 0.454972 0.476855 0.016208
C44   C     C_R   0.080774 0.561155 0.482786 0.022464
C45   C     C_R   0.954487 0.379595 0.433405 0.063378
C46   C     C_R   0.031584 0.635764 0.526256 0.064548
C47   C     C_R   0.946939 0.518927 0.484596 0.041008
C48   C     C_R   0.040388 0.498970 0.467248 0.038949
H1    H     H_    0.541347 0.277510 0.617847 0.165291
H2    H     H_    0.433881 0.730219 0.389605 0.163345
H3    H     H_    0.222207 0.679806 0.592955 0.152215
H4    H     H_    0.767500 0.317679 0.404658 0.157184
H5    H     H_    0.168044 0.393728 0.443582 0.150029
H6    H     H_    0.816923 0.625641 0.497329 0.154122
H7    H     H_    0.626097 0.357111 0.131543 0.138235
H8    H     H_    0.449661 0.624599 0.887514 0.137937
H9    H     H_    0.598634 0.361760 0.269300 0.146170
H10   H     H_    0.424051 0.627633 0.747360 0.144888
H11   H     H_    0.443995 0.620425 0.114223 0.130614
H12   H     H_    0.648137 0.366898 0.871175 0.131801
N1    N     N_R   0.499980 0.292780 0.499970 -0.127850
N2    N     N_R   0.500020 0.707220 0.500030 -0.129620
O1    O     O_R   0.500000 0.433430 0.610870 -0.598294
O2    O     O_R   0.500000 0.566570 0.389130 -0.593890
O3    O     O_R   0.500010 0.566520 0.610900 -0.655201
O4    O     O_R   0.499990 0.433480 0.389100 -0.656871
O5    O     O_R   0.632240 0.395450 0.499980 -0.607330
O6    O     O_R   0.367760 0.604550 0.500020 -0.606519
O7    O     O_R   0.632250 0.528530 0.500000 -0.624864
O8    O     O_R   0.367750 0.471470 0.500000 -0.624800
Zn1   Zn    Zn3+2 0.500000 0.411140 0.499980 0.925282
Zn2   Zn    Zn3+2 0.500000 0.588860 0.500020 0.925398
C49   C     C_3   0.116856 0.261239 0.415737 -0.455487
C50   C     C_3   0.187429 0.227406 0.483892 -0.326963
C51   C     C_3   0.250105 0.134427 0.470145 -0.892969
H13   H     H_    0.207600 0.093849 0.462503 0.258829
H14   H     H_    0.290890 0.128066 0.418215 0.255800
H15   H     H_    0.299644 0.111687 0.520368 0.256798
H16   H     H_    0.233247 0.264659 0.493219 0.216937
H17   H     H_    0.149058 0.232571 0.537091 0.227669
H18   H     H_    0.076752 0.218723 0.409972 0.209756
H19   H     H_    0.154603 0.255544 0.362135 0.199671
C52   C     C_3   0.870100 0.758008 0.526462 -0.449746
C53   C     C_3   0.810737 0.787829 0.451707 -0.318178
C54   C     C_3   0.755999 0.883755 0.454317 -0.898586
H20   H     H_    0.709298 0.900958 0.503343 0.260589
H21   H     H_    0.804376 0.918836 0.460486 0.259610
H22   H     H_    0.712663 0.903222 0.400325 0.244286
H23   H     H_    0.856889 0.771937 0.402104 0.227513
H24   H     H_    0.759854 0.755634 0.442395 0.218450
H25   H     H_    0.823486 0.768746 0.575331 0.192666
H26   H     H_    0.912393 0.798512 0.535695 0.210163
C55   C     C_3   0.548771 0.118569 0.645958 -0.416502
C56   C     C_3   0.651550 0.058931 0.652854 -0.329513
C57   C     C_3   0.674423 0.013565 0.729431 -0.906253
H27   H     H_    0.662663 0.060686 0.777851 0.262315
H28   H     H_    0.630116 0.975443 0.735373 0.263477
H29   H     H_    0.748851 0.970038 0.732229 0.250102
H30   H     H_    0.667260 0.010383 0.605512 0.221706
H31   H     H_    0.697011 0.096323 0.648319 0.221271
H32   H     H_    0.534260 0.166575 0.693927 0.191525
H33   H     H_    0.502441 0.082326 0.652036 0.204984
C58   C     C_3   0.425832 0.889167 0.359691 -0.418014
C59   C     C_3   0.504792 0.887657 0.309420 -0.331671
C60   C     C_3   0.466053 0.934740 0.234840 -0.899386
H34   H     H_    0.424475 0.903224 0.200594 0.259720
H35   H     H_    0.421099 0.002008 0.247296 0.260026
H36   H     H_    0.524686 0.933970 0.200357 0.252423
H37   H     H_    0.549328 0.918134 0.340886 0.224018
H38   H     H_    0.549186 0.820576 0.295210 0.222791
H39   H     H_    0.380101 0.861273 0.326157 0.191083
H40   H     H_    0.381456 0.955935 0.374945 0.207280
C61   C     C_3   0.429347 0.303473 0.363848 -0.342708
C62   C     C_3   0.343479 0.286072 0.329335 -0.416773
C63   C     C_3   0.303753 0.337475 0.256865 -0.893689
H41   H     H_    0.290111 0.406090 0.267468 0.267782
H42   H     H_    0.353927 0.313695 0.210300 0.271280
H43   H     H_    0.237216 0.330268 0.237402 0.250496
H44   H     H_    0.359072 0.218841 0.312446 0.253123
H45   H     H_    0.289205 0.303227 0.372484 0.213426
H46   H     H_    0.399199 0.370472 0.381394 0.243786
H47   H     H_    0.481468 0.293352 0.319398 0.208378
C64   C     C_3   0.577075 0.686705 0.632996 -0.341946
C65   C     C_3   0.650771 0.703847 0.687636 -0.412015
C66   C     C_3   0.693447 0.632425 0.745351 -0.895687
H48   H     H_    0.638765 0.629316 0.782566 0.277512
H49   H     H_    0.725800 0.569746 0.715909 0.273489
H50   H     H_    0.748048 0.645230 0.782323 0.253472
H51   H     H_    0.707146 0.709928 0.654193 0.229811
H52   H     H_    0.617974 0.762273 0.723142 0.258810
H53   H     H_    0.517183 0.691303 0.667643 0.207552
H54   H     H_    0.613014 0.621221 0.611837 0.255105
N3    N     N_3   0.502592 0.118562 0.360571 -0.475113
H55   H     H_    0.454933 0.087723 0.358387 0.184829
H56   H     H_    0.569738 0.071965 0.358051 0.191489
N4    N     N_3   0.565174 0.864179 0.626693 -0.491693
H57   H     H_    0.620726 0.881258 0.612548 0.192214
H58   H     H_    0.509618 0.918815 0.643532 0.190238
N5    N     N_3   0.203053 0.512933 0.386684 -0.480637
H59   H     H_    0.253692 0.452870 0.395154 0.189649
H60   H     H_    0.148648 0.507193 0.351173 0.199034
N6    N     N_3   0.804170 0.506490 0.586003 -0.485099
H61   H     H_    0.865028 0.504142 0.617148 0.197758
H62   H     H_    0.761340 0.569672 0.577387 0.193776
C67   C     C_3   0.924428 0.280416 0.326961 -0.451929
C68   C     C_3   0.850752 0.317320 0.261475 -0.319072
C69   C     C_3   0.880880 0.268535 0.185849 -0.895983
H63   H     H_    0.946837 0.273323 0.168331 0.260960
H64   H     H_    0.891365 0.200408 0.191894 0.261292
H65   H     H_    0.825816 0.296041 0.140168 0.248291
H66   H     H_    0.782909 0.313779 0.275130 0.214414
H67   H     H_    0.840117 0.385308 0.253749 0.230328
H68   H     H_    0.991423 0.279013 0.305977 0.208866
H69   H     H_    0.931028 0.214113 0.338042 0.198574
C70   C     C_3   0.046127 0.733552 0.640833 -0.448764
C71   C     C_3   0.100227 0.695401 0.715788 -0.326555
C72   C     C_3   0.055245 0.749172 0.785730 -0.894296
H70   H     H_    0.053698 0.815064 0.781442 0.261455
H71   H     H_    0.982844 0.751315 0.790085 0.260062
H72   H     H_    0.096428 0.720703 0.838730 0.250056
H73   H     H_    0.101248 0.629802 0.721638 0.227540
H74   H     H_    0.173463 0.691999 0.715421 0.214531
H75   H     H_    0.049701 0.797061 0.632388 0.199224
H76   H     H_    0.972603 0.742254 0.649137 0.208799
N7    N     N_3   0.398157 0.644741 0.260167 -0.465619
H77   H     H_    0.422414 0.693494 0.250661 0.174308
H78   H     H_    0.332920 0.659923 0.231333 0.179365
N8    N     N_3   0.638325 0.351707 0.718731 -0.458620
H79   H     H_    0.626739 0.298853 0.737996 0.170321
H80   H     H_    0.709194 0.340958 0.728895 0.181163

loop_
_geom_bond_atom_site_label_1
_geom_bond_atom_site_label_2
_ccdc_geom_bond_type
C29   N3    S    
C42   C44   A    
N7    H77   S    
C37   C45   A    
C64   H54   S    
C27   C29   A    
C11   C13   A    
C49   C50   S    
C23   O7    A    
C36   C42   A    
C57   H27   S    
C7    H7    S    
C8    H8    S    
C62   C63   S    
C57   H29   S    
C24   O8    A    
C64   C65   S    
C54   H20   S    
C52   H26   S    
C60   H35   S    
C55   C56   S    
C22   C32   A    
C52   C53   S    
C71   C72   S    
C10   H10   S    
C61   C62   S    
C26   H2    S    
C59   H37   S    
C63   H41   S    
C3    C48   A    
C18   C20   S    
C58   H39   S    
C16   H12   S    
C23   O5    A    
C21   C25   A    
C27   N1    A    
C72   H70   S    
C61   H47   S    
C69   H63   S    
C44   C46   A    
C7    C17   A    
C66   H50   S    
C1    O3    A    
C31   C33   S    
O8    Zn1   S    
C9    H9    S    
C62   H44   S    
C4    H6    S    
N1    Zn1   S    
N8    H80   S    
C39   H4    S    
C71   H74   S    
C72   H71   S    
C38   C40   A    
C50   H17   S    
C41   C43   A    
C1    C12   S    
C53   H24   S    
C38   C70   S    
C2    C11   S    
C1    O1    A    
C49   H18   S    
C59   C60   S    
C2    O2    A    
C67   C68   S    
C54   H21   S    
C37   C39   A    
C60   H36   S    
C28   C64   S    
C50   C51   S    
C65   H52   S    
C36   C40   A    
C69   H65   S    
C53   C54   S    
C4    C6    A    
C55   H32   S    
C70   H75   S    
C5    C45   A    
C8    C18   A    
C22   C58   S    
C58   H40   S    
C32   C34   S    
O7    Zn2   S    
C35   C39   A    
C51   H13   S    
O4    Zn1   S    
C9    C11   A    
C13   N7    S    
C47   C48   A    
C56   H31   S    
O6    Zn2   S    
C63   H43   S    
C21   C31   A    
C33   C34   T    
N2    Zn2   S    
C16   C18   A    
C25   N1    A    
N5    H60   S    
C43   C45   A    
C51   H14   S    
C10   C12   A    
C68   H67   S    
C67   H69   S    
C27   C61   S    
C8    C10   A    
N8    H79   S    
C12   C14   A    
C71   H73   S    
C72   H72   S    
C23   C35   S    
C50   H16   S    
C13   C15   A    
N3    H55   S    
C14   C16   A    
C53   H23   S    
C14   N8    S    
O3    Zn2   S    
C49   H19   S    
C70   C71   S    
N6    H62   S    
C52   H25   S    
C59   H38   S    
N4    H58   S    
C66   H49   S    
C68   C69   S    
C54   H22   S    
C15   C17   A    
C63   H42   S    
C6    C52   S    
C6    C46   A    
C64   H53   S    
C42   N5    S    
C15   H11   S    
O1    Zn1   S    
N4    H57   S    
C3    C5    A    
C55   H33   S    
N5    H59   S    
C57   H28   S    
C2    O4    A    
C70   H76   S    
C40   H3    S    
C69   H64   S    
C60   H34   S    
C30   N4    S    
C24   C36   S    
C19   C20   T    
C28   C30   A    
C26   N2    A    
C67   H68   S    
C41   N6    S    
C29   C31   A    
C30   C32   A    
C3    H5    S    
C66   H48   S    
C21   C55   S    
C56   H30   S    
C17   C19   S    
C65   H51   S    
O5    Zn1   S    
O2    Zn2   S    
C5    C49   S    
C56   C57   S    
C35   C41   A    
C51   H15   S    
C25   H1    S    
C38   C46   A    
C24   O6    A    
C68   H66   S    
C7    C9    A    
C61   H46   S    
N7    H78   S    
C22   C26   A    
C58   C59   S    
N3    H56   S    
N6    H61   S    
C37   C67   S    
C43   C47   A    
C62   H45   S    
C44   C48   A    
C65   C66   S    
C4    C47   A    
C28   N2    A    
