data_mof_unit_12833.cif
_audit_creation_date              2012-12-10T16:48:44-0500
_audit_creation_method            fapswitch 2.2
_symmetry_space_group_name_H-M    P1
_symmetry_Int_Tables_number       1
_space_group_crystal_system       triclinic
_cell_length_a                    17.109047
_cell_length_b                    8.739568
_cell_length_c                    7.399839
_cell_angle_alpha                 103.046053
_cell_angle_beta                  89.508478
_cell_angle_gamma                 92.507438
_cell_volume                      1076.87389874

loop_
_atom_site_label
_atom_site_type_symbol
_atom_type_description
_atom_site_fract_x
_atom_site_fract_y
_atom_site_fract_z
_atom_type_partial_charge
C1    C     C_R   0.499725 0.200302 0.453978 0.816737
C2    C     C_R   0.500078 0.799659 0.546646 0.790159
C3    C     C_2   0.508031 0.034673 0.429530 0.189375
C4    C     C_2   0.493733 0.966431 0.573609 0.178759
C5    C     C_R   0.350452 0.498900 0.527181 0.783907
C6    C     C_R   0.649867 0.500626 0.472264 0.793067
C7    C     C_R   0.265551 0.471805 0.542530 -0.119838
C8    C     C_R   0.736076 0.509111 0.454784 -0.123826
C9    C     C_R   0.228304 0.365745 0.393420 -0.321349
C10   C     C_R   0.778840 0.556803 0.621298 -0.317653
C11   C     C_R   0.147761 0.329850 0.396047 0.536175
C12   C     C_R   0.860404 0.563765 0.622403 0.531903
C13   C     C_R   0.104322 0.406118 0.548342 -0.059621
C14   C     C_R   0.900105 0.514403 0.454801 -0.039023
C15   C     C_R   0.140733 0.507877 0.699960 -0.255331
C16   C     C_R   0.859330 0.474793 0.287085 -0.258680
C17   C     C_R   0.221265 0.542634 0.699762 0.158406
C18   C     C_R   0.777350 0.473353 0.282984 0.126303
C19   C     C_2   0.018187 0.400716 0.538156 0.470919
C20   C     C_2   0.985934 0.504725 0.454039 0.425609
Cu1   Cu    Cu3+1 0.508700 0.517250 0.683000 0.964407
Cu2   Cu    Cu3+1 0.491300 0.482750 0.317000 0.960332
H1    H     H_    0.262028 0.312809 0.272842 0.161302
H2    H     H_    0.748882 0.588374 0.752834 0.162003
H3    H     H_    0.105252 0.566741 0.814874 0.181497
H4    H     H_    0.892044 0.442439 0.158895 0.204980
H5    H     H_    0.439425 0.380019 0.957781 0.236573
H6    H     H_    0.560555 0.620166 0.042069 0.234045
N1    N     N_2   0.478180 0.456750 0.041980 -0.198033
N2    N     N_2   0.521820 0.543250 0.958020 -0.199219
O1    O     O_R   0.505650 0.286040 0.618880 -0.553344
O2    O     O_R   0.494350 0.713960 0.381120 -0.560708
O3    O     O_R   0.490960 0.256910 0.309800 -0.555659
O4    O     O_R   0.509040 0.743090 0.690200 -0.565549
O5    O     O_R   0.394600 0.516230 0.672450 -0.588638
O6    O     O_R   0.605400 0.483770 0.327550 -0.592447
O7    O     O_R   0.379910 0.487100 0.363380 -0.593594
O8    O     O_R   0.620090 0.512900 0.636620 -0.590560
C21   C     C_3   0.738692 0.435939 0.093440 -0.374633
C22   C     C_3   0.706722 0.266059 0.038092 -0.748627
H7    H     H_    0.658125 0.244486 0.129769 0.268672
H8    H     H_    0.684056 0.241722 0.893751 0.248045
H9    H     H_    0.753799 0.183848 0.044652 0.228221
H10   H     H_    0.692841 0.519925 0.085648 0.198831
H11   H     H_    0.782209 0.452192 0.986318 0.219257
C23   C     C_3   0.255079 0.663788 0.862544 -0.424133
C24   C     C_3   0.266948 0.591661 0.029360 -0.731334
H12   H     H_    0.305684 0.490707 0.992131 0.248515
H13   H     H_    0.294380 0.681219 0.144573 0.237481
H14   H     H_    0.209857 0.550441 0.077900 0.261225
H15   H     H_    0.310882 0.718008 0.826647 0.199258
H16   H     H_    0.214727 0.762216 0.902161 0.183156
O9    O     O_3   0.033759 0.590702 0.355550 -0.590225
C25   C     C_3   0.009791 0.746654 0.382433 -0.337156
H17   H     H_    0.002836 0.802060 0.532401 0.154713
H18   H     H_    0.954929 0.751871 0.305279 0.177150
H19   H     H_    0.055747 0.816627 0.326575 0.186677
O10   O     O_3   0.969666 0.304670 0.623452 -0.581702
C26   C     C_3   0.011216 0.192125 0.688991 -0.299413
H20   H     H_    0.050726 0.249644 0.805406 0.198746
H21   H     H_    0.044239 0.116576 0.575187 0.152899
H22   H     H_    0.968563 0.114430 0.743378 0.180218
O11   O     O_3   0.902364 0.605888 0.787145 -0.572658
C27   C     C_3   0.886572 0.761132 0.879724 -0.388956
H23   H     H_    0.830466 0.763952 0.956827 0.164304
H24   H     H_    0.886283 0.842720 0.783662 0.150839
H25   H     H_    0.933622 0.805156 0.982925 0.196921
O12   O     O_3   0.108374 0.236148 0.244335 -0.575592
C28   C     C_3   0.145446 0.092780 0.179818 -0.394218
H26   H     H_    0.166117 0.041894 0.295237 0.153065
H27   H     H_    0.194401 0.107807 0.084963 0.167669
H28   H     H_    0.102347 0.006439 0.098213 0.189665
O13   O     O_3   0.529528 0.950939 0.254937 -0.558559
C29   C     C_3   0.611896 0.943873 0.249014 -0.311954
H29   H     H_    0.631659 0.855697 0.324006 0.143155
H30   H     H_    0.642106 0.059666 0.307742 0.134424
H31   H     H_    0.630274 0.906004 0.102108 0.189768
O14   O     O_3   0.477919 0.055694 0.750372 -0.559755
C30   C     C_3   0.404213 0.009837 0.812942 -0.270881
H32   H     H_    0.410766 0.914427 0.887549 0.208660
H33   H     H_    0.360112 0.974245 0.699414 0.097559
H34   H     H_    0.381056 0.111197 0.914270 0.167319

loop_
_geom_bond_atom_site_label_1
_geom_bond_atom_site_label_2
_ccdc_geom_bond_type
Cu2   N1    S    
C5    O7    A    
H5    N1    S    
O13   C29   S    
C19   C20   D    
C1    O3    A    
C24   H13   S    
O9    C25   S    
Cu1   O1    S    
C29   H30   S    
C15   H3    S    
C23   H16   S    
C1    O1    A    
C2    O2    A    
C28   H27   S    
C25   H17   S    
C22   H9    S    
Cu1   O8    S    
O12   C28   S    
C7    C17   A    
C29   H31   S    
C6    O8    A    
C21   H11   S    
C2    O4    A    
C22   H8    S    
C26   H20   S    
Cu1   Cu2   S    
C10   C12   A    
C24   H14   S    
C19   O10   S    
C16   H4    S    
C25   H18   S    
C26   H21   S    
C29   H29   S    
C13   C19   S    
C27   H25   S    
C14   C20   S    
C17   C23   S    
C21   C22   S    
C30   H33   S    
C12   O11   S    
O14   C30   S    
C9    H1    S    
C6    C8    S    
Cu1   O4    S    
C10   H2    S    
O10   C26   S    
Cu2   O7    S    
C23   H15   S    
C8    C18   A    
C30   H32   S    
C1    C3    S    
C27   H24   S    
C28   H28   S    
C2    C4    S    
C18   C21   S    
C4    O14   S    
N1    N2    D    
C24   H12   S    
C9    C11   A    
Cu2   O2    S    
C8    C10   A    
C22   H7    S    
C12   C14   A    
C13   C15   A    
C14   C16   A    
C3    C4    D    
C11   O12   S    
C5    C7    S    
C15   C17   A    
Cu2   O3    S    
C23   C24   S    
C26   H22   S    
C20   O9    S    
C30   H34   S    
C21   H10   S    
Cu1   O5    S    
Cu2   O6    S    
Cu1   N2    S    
C27   H23   S    
H6    N2    S    
C11   C13   A    
C5    O5    A    
C6    O6    A    
C28   H26   S    
C3    O13   S    
O11   C27   S    
C7    C9    A    
C16   C18   A    
C25   H19   S    
