data_mof_unit_20346.cif
_audit_creation_date              2012-10-26T17:11:10-0400
_audit_creation_method            fapswitch 2.2
_symmetry_space_group_name_H-M    P1
_symmetry_Int_Tables_number       1
_space_group_crystal_system       triclinic
_cell_length_a                    28.073281
_cell_length_b                    18.821082
_cell_length_c                    16.782297
_cell_angle_alpha                 89.987307
_cell_angle_beta                  62.342273
_cell_angle_gamma                 89.997851
_cell_volume                      7854.04918984

loop_
_atom_site_label
_atom_site_type_symbol
_atom_type_description
_atom_site_fract_x
_atom_site_fract_y
_atom_site_fract_z
_atom_type_partial_charge
C1    C     C_R   0.297466 0.733494 0.328201 0.785203
C2    C     C_R   0.708185 0.277637 0.668619 0.806600
C3    C     C_R   0.702503 0.733522 0.671780 0.773845
C4    C     C_R   0.291390 0.278737 0.332237 0.822631
C5    C     C_R   0.797466 0.233494 0.328201 0.785204
C6    C     C_R   0.208185 0.777637 0.668619 0.806602
C7    C     C_R   0.202503 0.233522 0.671780 0.773845
C8    C     C_R   0.791391 0.778737 0.332237 0.822630
C9    C     C_R   0.531666 0.877544 0.566758 0.246595
C10   C     C_R   0.442966 0.131741 0.512082 0.363733
C11   C     C_R   0.432446 0.876137 0.543687 0.253435
C12   C     C_R   0.542038 0.131817 0.541992 0.368877
C13   C     C_R   0.031668 0.377543 0.566750 0.246593
C14   C     C_R   0.942966 0.631741 0.512082 0.363734
C15   C     C_R   0.932447 0.376137 0.543682 0.253433
C16   C     C_R   0.042038 0.631816 0.541993 0.368878
C17   C     C_R   0.202705 0.743327 0.972895 -0.265979
C18   C     C_R   0.762271 0.205871 0.066810 -0.282922
C19   C     C_R   0.792393 0.748869 0.033011 -0.317486
C20   C     C_R   0.235173 0.208432 0.936560 -0.273663
C21   C     C_R   0.702705 0.243327 0.972894 -0.265979
C22   C     C_R   0.262271 0.705871 0.066811 -0.282923
C23   C     C_R   0.292393 0.248869 0.033011 -0.317485
C24   C     C_R   0.735173 0.708432 0.936560 -0.273663
C25   C     C_R   0.242009 0.688486 0.941644 0.432196
C26   C     C_R   0.711991 0.242067 0.110706 0.445821
C27   C     C_R   0.752302 0.694990 0.065736 0.372584
C28   C     C_R   0.285587 0.244101 0.893225 0.449978
C29   C     C_R   0.742010 0.188487 0.941643 0.432196
C30   C     C_R   0.211991 0.742067 0.110707 0.445822
C31   C     C_R   0.252302 0.194991 0.065736 0.372583
C32   C     C_R   0.785586 0.744101 0.893225 0.449978
C33   C     C_R   0.278400 0.683596 0.976709 0.359964
C34   C     C_R   0.690159 0.272821 0.058661 0.344394
C35   C     C_R   0.717339 0.688364 0.027972 0.347246
C36   C     C_R   0.306205 0.276499 0.945862 0.362073
C37   C     C_R   0.778401 0.183597 0.976708 0.359965
C38   C     C_R   0.190159 0.772821 0.058661 0.344394
C39   C     C_R   0.217339 0.188364 0.027972 0.347247
C40   C     C_R   0.806205 0.776498 0.945862 0.362074
C41   C     C_R   0.126833 0.802089 0.949737 0.248746
C42   C     C_R   0.834668 0.136429 0.089100 0.241529
C43   C     C_R   0.869882 0.805262 0.052958 0.287286
C44   C     C_R   0.164577 0.137438 0.912098 0.245451
C45   C     C_R   0.626834 0.302089 0.949737 0.248746
C46   C     C_R   0.334668 0.636429 0.089101 0.241529
C47   C     C_R   0.369882 0.305262 0.052958 0.287286
C48   C     C_R   0.664577 0.637438 0.912098 0.245451
C49   C     C_R   0.114839 0.848216 0.895137 -0.126047
C50   C     C_R   0.876565 0.139663 0.113365 -0.133951
C51   C     C_R   0.884310 0.849541 0.106102 -0.129455
C52   C     C_R   0.123157 0.139873 0.886790 -0.136863
C53   C     C_R   0.614839 0.348216 0.895137 -0.126046
C54   C     C_R   0.376565 0.639663 0.113365 -0.133950
C55   C     C_R   0.384310 0.349541 0.106102 -0.129455
C56   C     C_R   0.623157 0.639873 0.886790 -0.136863
C57   C     C_R   0.146298 0.846903 0.801720 0.271667
C58   C     C_R   0.870133 0.182643 0.185998 0.291559
C59   C     C_R   0.854448 0.847464 0.199688 0.238163
C60   C     C_R   0.129755 0.182528 0.813769 0.286208
C61   C     C_R   0.646298 0.346903 0.801720 0.271668
C62   C     C_R   0.370134 0.682643 0.185998 0.291561
C63   C     C_R   0.354448 0.347464 0.199688 0.238163
C64   C     C_R   0.629755 0.682528 0.813769 0.286208
C65   C     C_R   0.188223 0.798071 0.763872 -0.250239
C66   C     C_R   0.823150 0.223116 0.229275 -0.326190
C67   C     C_R   0.811043 0.801165 0.238304 -0.225221
C68   C     C_R   0.176656 0.223214 0.770708 -0.323937
C69   C     C_R   0.688223 0.298072 0.763872 -0.250241
C70   C     C_R   0.323150 0.723116 0.229275 -0.326190
C71   C     C_R   0.311043 0.301165 0.238304 -0.225221
C72   C     C_R   0.676656 0.723214 0.770708 -0.323936
C73   C     C_R   0.210676 0.772122 0.818574 0.320481
C74   C     C_R   0.795722 0.241518 0.179730 0.343941
C75   C     C_R   0.785683 0.780629 0.186764 0.323484
C76   C     C_R   0.203674 0.242195 0.820695 0.343526
C77   C     C_R   0.710676 0.272124 0.818574 0.320482
C78   C     C_R   0.295722 0.741518 0.179730 0.343941
C79   C     C_R   0.285683 0.280630 0.186764 0.323485
C80   C     C_R   0.703674 0.742195 0.820695 0.343526
C81   C     C_R   0.179154 0.771557 0.913709 -0.053254
C82   C     C_R   0.797249 0.193842 0.112937 -0.042858
C83   C     C_R   0.816409 0.777759 0.090990 -0.117920
C84   C     C_R   0.201529 0.195209 0.888576 -0.048819
C85   C     C_R   0.679155 0.271558 0.913709 -0.053252
C86   C     C_R   0.297249 0.693841 0.112937 -0.042858
C87   C     C_R   0.316409 0.277758 0.090990 -0.117920
C88   C     C_R   0.701529 0.695209 0.888576 -0.048819
C89   C     C_R   0.197169 0.631649 0.525794 0.814392
C90   C     C_R   0.799678 0.369212 0.485027 0.825116
C91   C     C_R   0.803284 0.631861 0.473192 0.800711
C92   C     C_R   0.198938 0.368843 0.518006 0.767285
C93   C     C_R   0.697169 0.131649 0.525794 0.814392
C94   C     C_R   0.299678 0.869212 0.485027 0.825118
C95   C     C_R   0.303284 0.131861 0.473192 0.800712
C96   C     C_R   0.698938 0.868843 0.518007 0.767284
C97   C     C_R   0.928051 0.901270 0.065732 0.872701
C98   C     C_R   0.075916 0.093214 0.930505 0.874874
C99   C     C_R   0.071844 0.901138 0.934415 0.877311
C100  C     C_R   0.923975 0.093115 0.069562 0.873121
C101  C     C_R   0.428051 0.401270 0.065732 0.872702
C102  C     C_R   0.575916 0.593214 0.930505 0.874875
C103  C     C_R   0.571844 0.401138 0.934415 0.877310
C104  C     C_R   0.423975 0.593115 0.069562 0.873122
C105  C     C_R   0.036040 0.503669 0.546146 -0.021308
C106  C     C_R   0.941739 0.503868 0.524572 -0.022782
C107  C     C_R   0.536039 0.003670 0.546149 -0.021309
C108  C     C_R   0.441739 0.003868 0.524574 -0.022782
C109  C     C_R   0.014073 0.569633 0.538192 -0.111121
C110  C     C_R   0.961213 0.438959 0.541126 -0.058029
C111  C     C_R   0.966463 0.569537 0.526406 -0.113552
C112  C     C_R   0.008313 0.439434 0.552895 -0.050011
C113  C     C_R   0.514072 0.069633 0.538193 -0.111121
C114  C     C_R   0.461212 0.938960 0.541130 -0.058029
C115  C     C_R   0.466463 0.069537 0.526407 -0.113552
C116  C     C_R   0.508311 0.939435 0.552900 -0.050010
C117  C     C_R   0.115641 0.436014 0.529639 -0.045327
C118  C     C_R   0.882168 0.565215 0.475377 -0.177520
C119  C     C_R   0.866338 0.440073 0.518741 -0.063155
C120  C     C_R   0.110898 0.564581 0.555881 -0.194023
C121  C     C_R   0.615640 0.936014 0.529643 -0.045326
C122  C     C_R   0.382168 0.065215 0.475377 -0.177519
C123  C     C_R   0.366338 0.940073 0.518742 -0.063155
C124  C     C_R   0.610897 0.064582 0.555882 -0.194023
C125  C     C_R   0.169363 0.435452 0.519870 -0.183618
C126  C     C_R   0.834203 0.565376 0.465193 -0.150190
C127  C     C_R   0.825419 0.437252 0.490415 -0.166138
C128  C     C_R   0.166154 0.564732 0.537427 -0.152105
C129  C     C_R   0.669362 0.935452 0.519872 -0.183617
C130  C     C_R   0.334203 0.065376 0.465193 -0.150190
C131  C     C_R   0.325419 0.937252 0.490415 -0.166137
C132  C     C_R   0.666153 0.064732 0.537428 -0.152105
C133  C     C_R   0.195209 0.500589 0.514656 0.333890
C134  C     C_R   0.809826 0.500648 0.464407 0.309728
C135  C     C_R   0.695208 0.000589 0.514657 0.333889
C136  C     C_R   0.309826 0.000648 0.464407 0.309727
C137  C     C_R   0.087550 0.501410 0.544976 -0.061695
C138  C     C_R   0.896766 0.502955 0.505729 -0.062752
C139  C     C_R   0.587549 0.001411 0.544978 -0.061695
C140  C     C_R   0.396765 0.002955 0.505731 -0.062752
C141  C     C_R   0.587507 0.874493 0.525987 0.436094
C142  C     C_R   0.414102 0.126461 0.463975 0.448809
C143  C     C_R   0.379825 0.881776 0.556865 0.428479
C144  C     C_R   0.578967 0.126642 0.575318 0.444707
C145  C     C_R   0.087509 0.374493 0.525980 0.436096
C146  C     C_R   0.914102 0.626461 0.463975 0.448809
C147  C     C_R   0.879826 0.381776 0.556862 0.428482
C148  C     C_R   0.078967 0.626641 0.575318 0.444706
Cu1   Cu    Cu3+1 0.209920 0.785290 0.495070 1.112945
Cu2   Cu    Cu3+1 0.790080 0.214710 0.504930 1.089722
Cu3   Cu    Cu3+1 0.790080 0.785290 0.504930 1.119667
Cu4   Cu    Cu3+1 0.209920 0.214710 0.495070 1.110410
Cu5   Cu    Cu3+1 0.709920 0.285290 0.495070 1.112945
Cu6   Cu    Cu3+1 0.290080 0.714710 0.504930 1.089722
Cu7   Cu    Cu3+1 0.290080 0.285290 0.504930 1.119667
Cu8   Cu    Cu3+1 0.709920 0.714710 0.495070 1.110410
Cu9   Cu    Cu3+1 0.495240 0.500000 0.924150 1.156233
Cu10  Cu    Cu3+1 0.504760 0.500000 0.075850 1.156922
Cu11  Cu    Cu3+1 0.995240 0.000000 0.924150 1.156233
Cu12  Cu    Cu3+1 0.004760 0.000000 0.075850 1.156922
O1    O     O_R   0.255040 0.869590 0.478480 -0.575651
O2    O     O_R   0.744960 0.130410 0.521520 -0.510089
O3    O     O_R   0.744960 0.869590 0.521520 -0.563976
O4    O     O_R   0.255040 0.130410 0.478480 -0.542721
O5    O     O_R   0.755040 0.369590 0.478480 -0.575650
O6    O     O_R   0.244960 0.630410 0.521520 -0.510089
O7    O     O_R   0.244960 0.369590 0.521520 -0.563977
O8    O     O_R   0.755040 0.630410 0.478480 -0.542721
O9    O     O_R   0.182050 0.796550 0.624440 -0.543333
O10   O     O_R   0.817950 0.203450 0.375560 -0.548613
O11   O     O_R   0.817950 0.796550 0.375560 -0.557529
O12   O     O_R   0.182050 0.203450 0.624440 -0.557792
O13   O     O_R   0.682050 0.296550 0.624440 -0.543332
O14   O     O_R   0.317950 0.703450 0.375560 -0.548614
O15   O     O_R   0.317950 0.296550 0.375560 -0.557529
O16   O     O_R   0.682050 0.703450 0.624440 -0.557792
O17   O     O_R   0.250530 0.763330 0.367210 -0.555346
O18   O     O_R   0.749470 0.236670 0.632790 -0.580151
O19   O     O_R   0.749470 0.763330 0.632790 -0.554310
O20   O     O_R   0.250530 0.236670 0.367210 -0.508345
O21   O     O_R   0.750530 0.263330 0.367210 -0.555346
O22   O     O_R   0.249470 0.736670 0.632790 -0.580149
O23   O     O_R   0.249470 0.263330 0.632790 -0.554310
O24   O     O_R   0.750530 0.736670 0.367210 -0.508346
O25   O     O_R   0.177260 0.690030 0.513710 -0.547415
O26   O     O_R   0.822740 0.309970 0.486290 -0.544475
O27   O     O_R   0.822740 0.690030 0.486290 -0.545589
O28   O     O_R   0.177260 0.309970 0.513710 -0.530985
O29   O     O_R   0.677260 0.190030 0.513710 -0.547415
O30   O     O_R   0.322740 0.809970 0.486290 -0.544475
O31   O     O_R   0.322740 0.190030 0.486290 -0.545589
O32   O     O_R   0.677260 0.809970 0.513710 -0.530984
O33   O     O_R   0.051640 0.926880 0.885090 -0.533695
O34   O     O_R   0.948360 0.073120 0.114910 -0.536511
O35   O     O_R   0.948360 0.926880 0.114910 -0.529698
O36   O     O_R   0.051640 0.073120 0.885090 -0.535721
O37   O     O_R   0.551640 0.426880 0.885090 -0.533695
O38   O     O_R   0.448360 0.573120 0.114910 -0.536511
O39   O     O_R   0.448360 0.426880 0.114910 -0.529698
O40   O     O_R   0.551640 0.573120 0.885090 -0.535721
O41   O     O_R   0.940620 0.926560 0.986760 -0.548411
O42   O     O_R   0.059380 0.073440 0.013240 -0.551998
O43   O     O_R   0.059380 0.926560 0.013240 -0.546944
O44   O     O_R   0.940620 0.073440 0.986760 -0.552072
O45   O     O_R   0.440620 0.426560 0.986760 -0.548411
O46   O     O_R   0.559380 0.573440 0.013240 -0.551998
O47   O     O_R   0.559380 0.426560 0.013240 -0.546944
O48   O     O_R   0.440620 0.573440 0.986760 -0.552072
O49   O     O_3   0.250244 0.502872 0.482215 -0.667657
H1    H     H_    0.266517 0.473410 0.426971 0.313964
O50   O     O_3   0.770399 0.500098 0.437513 -0.672715
H2    H     H_    0.735911 0.494903 0.493536 0.346969
O51   O     O_3   0.750244 0.002871 0.482215 -0.667658
H3    H     H_    0.766516 0.973410 0.426971 0.313963
O52   O     O_3   0.270400 0.000098 0.437513 -0.672715
H4    H     H_    0.235911 0.994903 0.493535 0.346969
O53   O     O_3   0.612998 0.822983 0.461260 -0.676083
H5    H     H_    0.586509 0.786379 0.465262 0.354690
O54   O     O_3   0.421281 0.179643 0.402789 -0.643706
H6    H     H_    0.411398 0.160346 0.357427 0.314858
O55   O     O_3   0.341205 0.833662 0.611078 -0.685355
H7    H     H_    0.357655 0.799003 0.635587 0.379216
O56   O     O_3   0.581638 0.182088 0.626832 -0.640845
H8    H     H_    0.598275 0.163848 0.663618 0.304406
O57   O     O_3   0.113002 0.322985 0.461251 -0.676082
H9    H     H_    0.086513 0.286381 0.465250 0.354690
O58   O     O_3   0.921281 0.679643 0.402790 -0.643706
H10   H     H_    0.911398 0.660347 0.357427 0.314857
O59   O     O_3   0.841207 0.333662 0.611076 -0.685355
H11   H     H_    0.857657 0.299002 0.635583 0.379212
O60   O     O_3   0.081638 0.682087 0.626832 -0.640845
H12   H     H_    0.098275 0.663847 0.663618 0.304405
O61   O     O_3   0.502924 0.820761 0.618665 -0.677610
H13   H     H_    0.466626 0.838270 0.661538 0.356668
O62   O     O_3   0.441641 0.196372 0.551446 -0.621610
H14   H     H_    0.442954 0.186868 0.608547 0.356604
O63   O     O_3   0.454983 0.809363 0.524114 -0.680365
H15   H     H_    0.492249 0.814796 0.475066 0.347290
O64   O     O_3   0.540069 0.196210 0.505011 -0.623234
H16   H     H_    0.539083 0.185945 0.447831 0.352129
O65   O     O_3   0.002927 0.320758 0.618655 -0.677609
H17   H     H_    0.966629 0.338266 0.661529 0.356668
O66   O     O_3   0.941640 0.696371 0.551447 -0.621610
H18   H     H_    0.942954 0.686867 0.608548 0.356603
O67   O     O_3   0.954985 0.309363 0.524106 -0.680365
H19   H     H_    0.992251 0.314797 0.475058 0.347290
O68   O     O_3   0.040069 0.696210 0.505013 -0.623235
H20   H     H_    0.039082 0.685946 0.447832 0.352130
O69   O     O_3   0.157362 0.831092 0.094284 -0.593206
H21   H     H_    0.164593 0.864361 0.044212 0.353325
O70   O     O_3   0.828922 0.157848 0.920161 -0.599790
H22   H     H_    0.855043 0.184184 0.933258 0.344883
O71   O     O_3   0.839041 0.834681 0.909541 -0.592481
H23   H     H_    0.831793 0.868476 0.959110 0.349165
O72   O     O_3   0.166377 0.163259 0.083256 -0.603656
H24   H     H_    0.141059 0.188775 0.067442 0.339851
O73   O     O_3   0.657362 0.331092 0.094284 -0.593205
H25   H     H_    0.664593 0.364360 0.044213 0.353326
O74   O     O_3   0.328921 0.657846 0.920162 -0.599789
H26   H     H_    0.355042 0.684182 0.933258 0.344884
O75   O     O_3   0.339041 0.334681 0.909541 -0.592481
H27   H     H_    0.331793 0.368476 0.959110 0.349165
O76   O     O_3   0.666377 0.663259 0.083256 -0.603656
H28   H     H_    0.641059 0.688775 0.067442 0.339851
O77   O     O_3   0.247810 0.641192 0.874955 -0.650093
H29   H     H_    0.213229 0.638905 0.872523 0.311419
O78   O     O_3   0.683776 0.250281 0.202785 -0.595821
H30   H     H_    0.693839 0.210817 0.231139 0.325457
O79   O     O_3   0.743222 0.652129 0.138128 -0.600121
H31   H     H_    0.777250 0.648463 0.142178 0.339067
O80   O     O_3   0.314901 0.250636 0.801038 -0.595968
H32   H     H_    0.305173 0.210567 0.773080 0.325969
O81   O     O_3   0.747812 0.141195 0.874953 -0.650092
H33   H     H_    0.713231 0.138907 0.872520 0.311419
O82   O     O_3   0.183776 0.750282 0.202786 -0.595821
H34   H     H_    0.193839 0.710818 0.231140 0.325456
O83   O     O_3   0.243222 0.152129 0.138129 -0.600122
H35   H     H_    0.277250 0.148463 0.142178 0.339068
O84   O     O_3   0.814901 0.750636 0.801038 -0.595968
H36   H     H_    0.805173 0.710566 0.773080 0.325970
O85   O     O_3   0.087664 0.789844 0.036822 -0.661253
H37   H     H_    0.096298 0.744845 0.057980 0.350935
O86   O     O_3   0.830736 0.076280 0.045426 -0.671275
H38   H     H_    0.792782 0.070991 0.057897 0.346168
O87   O     O_3   0.908172 0.791027 0.965853 -0.658333
H39   H     H_    0.898472 0.745833 0.946753 0.353286
O88   O     O_3   0.168213 0.078076 0.957367 -0.665620
H40   H     H_    0.205895 0.073570 0.946644 0.349224
O89   O     O_3   0.587664 0.289844 0.036822 -0.661254
H41   H     H_    0.596298 0.244844 0.057980 0.350935
O90   O     O_3   0.330736 0.576280 0.045427 -0.671275
H42   H     H_    0.292782 0.570990 0.057899 0.346168
O91   O     O_3   0.408172 0.291027 0.965853 -0.658333
H43   H     H_    0.398472 0.245833 0.946753 0.353286
O92   O     O_3   0.668213 0.578076 0.957367 -0.665619
H44   H     H_    0.705895 0.573570 0.946644 0.349223
O93   O     O_3   0.137085 0.895823 0.748886 -0.659947
H45   H     H_    0.172255 0.909707 0.698388 0.325342
O94   O     O_3   0.909113 0.183164 0.214444 -0.668457
H46   H     H_    0.905835 0.227925 0.247762 0.335954
O95   O     O_3   0.866674 0.893036 0.252170 -0.648848
H47   H     H_    0.832408 0.909814 0.302334 0.320013
O96   O     O_3   0.090989 0.182619 0.784842 -0.664983
H48   H     H_    0.094091 0.227439 0.751698 0.340481
O97   O     O_3   0.637085 0.395823 0.748885 -0.659948
H49   H     H_    0.672255 0.409707 0.698388 0.325343
O98   O     O_3   0.409113 0.683164 0.214443 -0.668459
H50   H     H_    0.405835 0.727925 0.247763 0.335954
O99   O     O_3   0.366675 0.393036 0.252170 -0.648848
H51   H     H_    0.332408 0.409814 0.302334 0.320013
O100  O     O_3   0.590989 0.682619 0.784842 -0.664982
H52   H     H_    0.594091 0.727438 0.751698 0.340481
O101  O     O_3   0.265162 0.760079 0.781794 -0.657576
H53   H     H_    0.273587 0.717924 0.742549 0.379491
O102  O     O_3   0.769562 0.305992 0.193321 -0.639127
H54   H     H_    0.781062 0.337352 0.228703 0.347100
O103  O     O_3   0.730904 0.769160 0.231467 -0.632428
H55   H     H_    0.715406 0.787335 0.193082 0.344895
O104  O     O_3   0.229986 0.306602 0.806551 -0.642855
H56   H     H_    0.218669 0.337713 0.770692 0.341356
O105  O     O_3   0.765163 0.260083 0.781794 -0.657575
H57   H     H_    0.773590 0.217928 0.742547 0.379492
O106  O     O_3   0.269562 0.805992 0.193320 -0.639127
H58   H     H_    0.281062 0.837352 0.228703 0.347100
O107  O     O_3   0.230904 0.269161 0.231467 -0.632427
H59   H     H_    0.215406 0.287335 0.193082 0.344895
O108  O     O_3   0.729986 0.806601 0.806551 -0.642855
H60   H     H_    0.718669 0.837713 0.770692 0.341356

loop_
_geom_bond_atom_site_label_1
_geom_bond_atom_site_label_2
_ccdc_geom_bond_type
C51   C97   S    
Cu9   Cu10  S    
O90   H42   S    
C79   C87   A    
C61   C69   A    
O95   H47   S    
C10   O62   S    
Cu10  O47   S    
C13   C112  A    
Cu11  O41   S    
C38   O69   S    
C39   O72   S    
C146  O58   S    
O80   H32   S    
Cu5   O13   S    
C30   C38   A    
C103  O37   A    
C107  C113  A    
C7    C68   S    
O56   H8    S    
Cu7   O7    S    
C63   O99   S    
C30   O82   S    
C7    O12   A    
C80   O108  S    
C14   C111  A    
C18   C82   S    
C41   C49   A    
C75   O103  S    
C16   C109  A    
C9    O61   S    
O106  H58   S    
O70   H22   S    
Cu9   O45   S    
C57   C65   A    
C20   C28   A    
C27   C35   A    
C37   O70   S    
C145  O57   S    
C34   O73   S    
C23   C31   A    
Cu4   O20   S    
O52   H4    S    
C24   C32   A    
O59   H11   S    
Cu3   O19   S    
O96   H48   S    
C148  O60   S    
C105  C112  A    
C63   C71   A    
C120  C148  A    
C78   O106  S    
C90   O5    A    
C62   O98   S    
C9    C116  A    
C104  O38   A    
C61   O97   S    
C99   O33   A    
C50   C100  S    
C1    C70   S    
C7    O23   A    
C17   C25   A    
C36   O75   S    
C97   O35   A    
C3    C72   S    
C80   C88   A    
C147  O59   S    
Cu2   O10   S    
C52   C98   S    
Cu10  O38   S    
C46   O90   S    
C3    O16   A    
C126  C134  A    
O105  H57   S    
C77   O105  S    
C118  C138  A    
C11   C143  A    
C4    C71   S    
C96   C129  S    
C113  C115  A    
C133  O49   S    
C124  C139  A    
C69   C77   A    
C127  C134  A    
C13   C145  A    
C75   C83   A    
C92   C125  S    
Cu12  O43   S    
C71   C79   A    
C42   O86   S    
Cu5   O29   S    
C62   C70   A    
O69   H21   S    
O55   H7    S    
C6    O22   A    
Cu1   O9    S    
C108  C115  A    
C103  O47   A    
C57   O93   S    
C109  C111  A    
Cu11  Cu12  S    
O71   H23   S    
Cu4   O12   S    
Cu7   O23   S    
Cu8   O8    S    
C108  C114  A    
C66   C74   A    
C49   C57   A    
C124  C132  A    
O73   H25   S    
C52   C60   A    
C59   C67   A    
C129  C135  A    
C53   C61   A    
C4    O15   A    
C55   C63   A    
C95   C130  S    
C5    O10   A    
C56   C64   A    
C2    C69   S    
O61   H13   S    
Cu9   O37   S    
C8    O11   A    
C44   C52   A    
C104  O48   A    
C45   C53   A    
O83   H35   S    
C19   C83   S    
O89   H41   S    
C106  C111  A    
C29   O81   S    
Cu6   O14   S    
C131  C136  A    
O53   H5    S    
O104  H56   S    
C47   C87   A    
O91   H43   S    
C49   C99   S    
C90   C127  S    
C33   O74   S    
O49   H1    S    
C98   O36   A    
C102  O46   A    
C94   O1    A    
C60   C68   A    
C32   O84   S    
C101  O45   A    
C42   C50   A    
C27   O79   S    
C23   C36   A    
C20   C84   S    
C67   C75   A    
Cu11  O33   S    
C44   O88   S    
C105  C109  A    
C45   O89   S    
C134  O50   S    
C22   C30   A    
Cu5   O5    S    
C119  C138  A    
C89   O25   A    
C97   O41   A    
C5    C66   S    
Cu2   O26   S    
C114  C116  A    
O78   H30   S    
C101  O39   A    
C93   O29   A    
C68   C76   A    
C45   C85   A    
Cu9   O40   S    
C121  C139  A    
C56   C102  S    
C72   C80   A    
Cu11  O44   S    
C17   C38   A    
C107  C139  A    
C47   O91   S    
C110  C112  A    
C89   O6    A    
C19   C40   A    
C105  C137  A    
C8    C67   S    
O86   H38   S    
C2    O18   A    
O67   H19   S    
C64   O100  S    
C117  C125  A    
O74   H26   S    
C25   C33   A    
C59   O95   S    
C119  C127  A    
Cu1   O25   S    
O64   H16   S    
C18   C26   A    
Cu4   O28   S    
C76   C84   A    
Cu8   O24   S    
O76   H28   S    
C76   O104  S    
O51   H3    S    
Cu3   O27   S    
C54   C104  S    
C4    O20   A    
C2    O13   A    
Cu12  O42   S    
C119  C147  A    
O66   H18   S    
C43   C83   A    
C117  C145  A    
C10   C142  A    
C35   O76   S    
C22   C33   A    
C144  O56   S    
C91   O27   A    
C141  O53   S    
C6    C65   S    
Cu2   Cu5   S    
O62   H14   S    
C48   C88   A    
C79   O107  S    
C136  O52   S    
C99   O43   A    
Cu6   O30   S    
O102  H54   S    
O79   H31   S    
C15   C110  A    
C74   C82   A    
C5    O21   A    
Cu2   O2    S    
C21   C85   S    
O98   H50   S    
Cu10  O46   S    
C121  C141  A    
C74   O102  S    
O54   H6    S    
C20   C39   A    
C21   C34   A    
C54   C62   A    
C50   C58   A    
Cu1   Cu6   S    
O87   H39   S    
C102  O40   A    
O50   H2    S    
Cu4   Cu7   S    
C41   C81   A    
C46   C54   A    
C92   O28   A    
Cu10  O39   S    
Cu3   Cu8   S    
C24   C88   S    
C73   C81   A    
Cu12  O35   S    
C40   O71   S    
Cu5   O21   S    
Cu1   O1    S    
O92   H44   S    
C26   O78   S    
C16   O68   S    
Cu7   O15   S    
C14   C146  A    
Cu8   O16   S    
C123  C131  A    
C121  C129  A    
C44   C84   A    
C120  C128  A    
C90   O26   A    
C94   C131  S    
O84   H36   S    
O108  H60   S    
C95   O4    A    
C15   C147  A    
C100  O44   A    
C92   O7    A    
C43   C51   A    
O101  H53   S    
O75   H27   S    
C21   C29   A    
C93   O2    A    
C53   C103  S    
C17   C81   S    
C22   C86   S    
O107  H59   S    
C142  O54   S    
C122  C140  A    
C14   O66   S    
C28   C36   A    
O97   H49   S    
C29   C37   A    
Cu6   O6    S    
C120  C137  A    
C89   C128  S    
O100  H52   S    
C91   C126  S    
C70   C78   A    
O93   H45   S    
C42   C82   A    
O94   H46   S    
C94   O30   A    
C58   O94   S    
Cu3   O11   S    
O99   H51   S    
C18   C37   A    
O65   H17   S    
C41   O85   S    
C106  C138  A    
C65   C73   A    
C11   C114  A    
C3    O19   A    
C1    O17   A    
C26   C34   A    
C12   O64   S    
C13   O65   S    
O58   H10   S    
C19   C27   A    
O77   H29   S    
C95   O31   A    
Cu2   O18   S    
C8    O24   A    
C32   C40   A    
C28   O80   S    
C23   C87   S    
O103  H55   S    
Cu9   O48   S    
C58   C66   A    
Cu11  O36   S    
C107  C116  A    
C1    O14   A    
C24   C35   A    
C15   O67   S    
C91   O8    A    
C118  C146  A    
C108  C140  A    
C9    C141  A    
O85   H37   S    
C117  C137  A    
C123  C140  A    
C12   C144  A    
C73   O101  S    
Cu1   O17   S    
O57   H9    S    
Cu4   O4    S    
C48   O92   S    
Cu7   O31   S    
Cu8   O32   S    
O82   H34   S    
Cu3   O3    S    
O88   H40   S    
C51   C59   A    
C122  C142  A    
O72   H24   S    
C93   C132  S    
C47   C55   A    
C12   C113  A    
C106  C110  A    
C125  C133  A    
C48   C56   A    
C60   O96   S    
C98   O42   A    
C130  C136  A    
C143  O55   S    
C25   O77   S    
O68   H20   S    
C100  O34   A    
C11   O63   S    
C55   C101  S    
C96   O3    A    
C16   C148  A    
C128  C133  A    
C78   C86   A    
C135  O51   S    
C132  C135  A    
Cu6   O22   S    
C31   C39   A    
C64   C72   A    
C96   O32   A    
C31   O83   S    
C77   C85   A    
Cu12  O34   S    
C123  C143  A    
O60   H12   S    
C124  C144  A    
C118  C126  A    
C43   O87   S    
O63   H15   S    
C122  C130  A    
C10   C115  A    
C46   C86   A    
C6    O9    A    
O81   H33   S    
