data_mof_unit_23974.cif
_audit_creation_date              2012-12-10T21:42:31-0500
_audit_creation_method            fapswitch 2.2
_symmetry_space_group_name_H-M    P1
_symmetry_Int_Tables_number       1
_space_group_crystal_system       triclinic
_cell_length_a                    10.894612
_cell_length_b                    16.357578
_cell_length_c                    16.709943
_cell_angle_alpha                 86.514615
_cell_angle_beta                  97.09327
_cell_angle_gamma                 91.125982
_cell_volume                      2949.39115248

loop_
_atom_site_label
_atom_site_type_symbol
_atom_type_description
_atom_site_fract_x
_atom_site_fract_y
_atom_site_fract_z
_atom_type_partial_charge
C1    C     C_R   0.494219 0.488767 0.653048 0.960387
C2    C     C_R   0.622964 0.494635 0.241930 -0.248640
C3    C     C_R   0.503343 0.558316 0.862399 0.365142
C4    C     C_R   0.635930 0.467537 0.166467 0.361058
C5    C     C_R   0.565738 0.492673 0.907090 0.079682
C6    C     C_R   0.530636 0.463838 0.108437 -0.007844
C7    C     C_R   0.583722 0.419291 0.869328 0.229954
C8    C     C_R   0.412968 0.485235 0.127632 0.352182
C9    C     C_R   0.533786 0.412543 0.788114 0.371095
C10   C     C_R   0.400871 0.509926 0.205025 0.411782
C11   C     C_R   0.459612 0.766851 0.444475 0.356345
C12   C     C_R   0.498345 0.511231 0.347334 0.894223
C13   C     C_R   0.543266 0.231454 0.552727 0.380797
C14   C     C_R   0.454989 0.853109 0.449103 0.244882
C15   C     C_R   0.533097 0.144861 0.550959 0.242188
C16   C     C_R   0.739273 0.500060 0.497177 0.957187
C17   C     C_R   0.260389 0.500451 0.500673 0.943665
C18   C     C_R   0.485093 0.889269 0.523032 -0.023819
C19   C     C_R   0.488148 0.108361 0.479514 -0.005580
C20   C     C_R   0.522179 0.837518 0.591412 0.193457
C21   C     C_R   0.449827 0.159976 0.411278 0.213056
C22   C     C_R   0.554989 0.754362 0.581546 0.322227
C23   C     C_R   0.127966 0.500926 0.501950 -0.200317
C24   C     C_R   0.431833 0.245785 0.420442 0.281536
C25   C     C_R   0.785970 0.712074 0.293718 0.333767
C26   C     C_R   0.213791 0.232428 0.624562 0.325782
C27   C     C_R   0.846863 0.644758 0.337804 0.276710
C28   C     C_R   0.182571 0.316199 0.610164 0.301929
C29   C     C_R   0.868864 0.643488 0.423731 -0.167624
C30   C     C_R   0.121881 0.344533 0.533205 -0.151960
C31   C     C_R   0.840088 0.713659 0.463344 0.402747
C32   C     C_R   0.097619 0.288784 0.471065 0.481630
C33   C     C_R   0.777560 0.778305 0.419195 -0.211901
C34   C     C_R   0.871993 0.500862 0.495382 -0.193490
C35   C     C_R   0.135499 0.207958 0.485412 -0.171189
C36   C     C_R   0.746926 0.777769 0.335852 0.304666
C37   C     C_R   0.193815 0.179025 0.560235 0.204586
C38   C     C_R   0.063801 0.574775 0.481469 0.412668
C39   C     C_R   0.937691 0.430039 0.523338 0.410766
C40   C     C_R   0.064168 0.427543 0.521131 -0.177244
C41   C     C_R   0.934623 0.572990 0.470578 -0.170778
C42   C     C_R   0.495501 0.483233 0.741289 -0.205196
C43   C     C_R   0.507601 0.515045 0.261921 -0.189621
C44   C     C_R   0.471068 0.553550 0.779740 -0.306926
H1    H     H_    0.752749 0.830574 0.450433 0.216415
H2    H     H_    0.223399 0.652811 0.324015 0.401683
H3    H     H_    0.642878 0.058434 0.597385 0.380437
H4    H     H_    0.343585 0.934206 0.395865 0.385325
H5    H     H_    0.448059 0.834542 0.799420 0.430383
H6    H     H_    0.420233 0.148500 0.188419 0.407531
H7    H     H_    0.783232 0.604585 0.689500 0.369093
H8    H     H_    0.372514 0.333936 0.216558 0.402672
H9    H     H_    0.603906 0.713330 0.096587 0.427449
H10   H     H_    0.219153 0.083735 0.795775 0.410220
H11   H     H_    0.933832 0.541510 0.330909 0.361637
H12   H     H_    0.118056 0.166200 0.437252 0.252044
H13   H     H_    0.190910 0.424989 0.654200 0.328147
H14   H     H_    0.923101 0.675866 0.569528 0.367156
H15   H     H_    0.027280 0.369938 0.387769 0.371640
H16   H     H_    0.078284 0.695020 0.470552 0.358814
H17   H     H_    0.927992 0.334990 0.596132 0.367829
H18   H     H_    0.716811 0.302852 0.160937 0.375186
H19   H     H_    0.272680 0.649552 0.860066 0.380262
H20   H     H_    0.786902 0.241501 0.883420 0.419487
H21   H     H_    0.101057 0.411284 0.065546 0.427927
H22   H     H_    0.700914 0.491814 0.288811 0.200089
H23   H     H_    0.427915 0.605509 0.744756 0.249036
H24   H     H_    0.638543 0.828705 0.246006 0.419302
H25   H     H_    0.288469 0.087445 0.614958 0.413959
H26   H     H_    0.507947 0.295818 0.798218 0.419563
H27   H     H_    0.284135 0.524403 0.282964 0.354296
H28   H     H_    0.756522 0.360480 0.690094 0.384588
N1    N     N_2   0.591429 0.498915 0.991249 -0.021192
N2    N     N_2   0.539912 0.443182 0.029132 -0.021864
N3    N     N_R   0.515300 0.716920 0.509720 -0.243087
N4    N     N_R   0.484700 0.283080 0.490280 -0.256536
N5    N     N_2   0.473581 0.976108 0.531134 -0.030498
N6    N     N_2   0.496768 0.021423 0.471519 -0.032996
O1    O     O_R   0.494530 0.422540 0.612660 -0.523650
O2    O     O_3   0.225744 0.097389 0.567668 -0.669314
O3    O     O_3   0.516671 0.338208 0.754298 -0.613470
O4    O     O_3   0.282836 0.522303 0.224020 -0.627539
O5    O     O_2   0.641276 0.220213 0.707230 -0.127566
O6    O     O_2   0.780070 0.220984 0.605905 -0.257838
O7    O     O_3   0.697287 0.359350 0.640157 -0.487607
O8    O     O_2   0.301253 0.792402 0.304643 -0.185724
O9    O     O_2   0.482197 0.710755 0.298337 -0.251655
O10   O     O_3   0.296991 0.646474 0.365012 -0.513378
O11   O     O_3   0.585568 0.096996 0.616828 -0.580481
O12   O     O_R   0.505470 0.577460 0.387340 -0.551916
O13   O     O_3   0.411885 0.900991 0.381323 -0.573505
O14   O     O_2   0.649128 0.891369 0.728491 -0.155759
O15   O     O_2   0.449811 0.955326 0.684547 -0.218066
O16   O     O_3   0.447494 0.808598 0.747329 -0.445652
O17   O     O_2   0.520866 0.046529 0.315216 -0.180511
O18   O     O_2   0.300364 0.076761 0.303849 -0.217784
O19   O     O_3   0.447528 0.179161 0.236931 -0.464299
O20   O     O_2   0.772076 0.770055 0.672702 -0.180689
O21   O     O_2   0.611611 0.696950 0.736548 -0.225814
O22   O     O_3   0.727393 0.620930 0.639987 -0.527864
O23   O     O_R   0.504350 0.561840 0.618900 -0.587633
O24   O     O_2   0.239125 0.243717 0.302378 -0.190192
O25   O     O_2   0.275458 0.372866 0.363423 -0.281996
O26   O     O_3   0.428691 0.330987 0.267946 -0.522226
O27   O     O_2   0.796628 0.800800 0.154076 -0.222541
O28   O     O_2   0.844121 0.655717 0.152579 -0.128773
O29   O     O_3   0.615399 0.695278 0.154629 -0.513166
O30   O     O_2   0.397280 0.166989 0.728994 -0.237442
O31   O     O_2   0.253310 0.252982 0.786867 -0.176945
O32   O     O_3   0.177884 0.109027 0.744318 -0.474207
O33   O     O_3   0.887924 0.583395 0.294700 -0.657120
O34   O     O_R   0.495650 0.438160 0.381100 -0.551731
O35   O     O_3   0.207893 0.367479 0.673135 -0.669937
O36   O     O_3   0.876147 0.723749 0.544234 -0.664041
O37   O     O_3   0.034957 0.309791 0.395723 -0.628388
O38   O     O_3   0.129231 0.646464 0.467011 -0.699645
O39   O     O_3   0.876104 0.361238 0.549009 -0.656652
O40   O     O_2   0.835814 0.482465 0.088425 -0.142583
O41   O     O_2   0.868943 0.425005 0.227582 -0.244635
O42   O     O_3   0.760648 0.332934 0.119471 -0.416817
O43   O     O_2   0.442548 0.630972 0.993642 -0.257027
O44   O     O_2   0.572654 0.708144 0.906238 -0.169194
O45   O     O_R   0.678330 0.430350 0.496870 -0.519367
O46   O     O_3   0.339306 0.690997 0.855253 -0.476395
O47   O     O_2   0.792642 0.381288 0.964233 -0.182643
O48   O     O_2   0.613690 0.288761 0.974451 -0.217323
O49   O     O_3   0.734924 0.283260 0.850595 -0.493149
O50   O     O_2   0.211859 0.556336 0.046617 -0.160916
O51   O     O_2   0.300102 0.447340 0.978160 -0.275953
O52   O     O_3   0.181532 0.406273 0.100138 -0.451464
O53   O     O_R   0.321670 0.569650 0.503130 -0.528437
O54   O     O_R   0.688150 0.569660 0.503110 -0.582419
O55   O     O_R   0.311850 0.430340 0.496890 -0.613655
O56   O     O_3   0.682160 0.844122 0.298403 -0.622392
S1    S     S_3+6 0.665858 0.260139 0.627436 0.179012
S2    S     S_3+6 0.466242 0.648486 0.907609 0.129894
S3    S     S_3+6 0.682731 0.341823 0.918017 0.110150
S4    S     S_3+6 0.275613 0.475055 0.058762 0.153551
S5    S     S_3+6 0.385548 0.729566 0.350995 0.147094
S6    S     S_3+6 0.519665 0.876503 0.689233 0.163063
S7    S     S_3+6 0.428415 0.113484 0.315671 0.157457
S8    S     S_3+6 0.666800 0.709797 0.659032 0.138211
S9    S     S_3+6 0.338692 0.299857 0.339000 0.128922
S10   S     S_3+6 0.764666 0.716126 0.186015 0.134129
S11   S     S_3+6 0.264672 0.192207 0.724316 0.123791
S12   S     S_3+6 0.780679 0.428393 0.150918 0.166793
Zn1   Zn    Zn3+2 0.493440 0.406980 0.495830 1.111009
Zn2   Zn    Zn3+2 0.506560 0.593020 0.504170 1.094045

loop_
_geom_bond_atom_site_label_1
_geom_bond_atom_site_label_2
_ccdc_geom_bond_type
O48   S3    D    
O42   S12   S    
C17   O53   A    
C33   H1    S    
N1    N2    D    
C14   C18   A    
O21   S8    D    
O27   S10   D    
H28   O7    S    
O6    S1    D    
N5    N6    D    
O41   S12   D    
C15   C19   A    
C9    C42   A    
C17   C23   S    
C6    C8    A    
O23   Zn2   S    
C12   O12   A    
C35   C37   A    
C16   O45   A    
C12   C43   S    
C11   C14   A    
C27   C29   A    
C24   S9    S    
C23   C40   A    
C33   C36   A    
O16   S6    S    
H10   O32   S    
C8    S4    S    
C3    S2    S    
H26   O3    S    
C11   S5    S    
O12   Zn2   S    
C16   C34   S    
O18   S7    D    
O51   S4    D    
N4    Zn1   S    
H4    O13   S    
C31   C33   A    
C6    N2    S    
O55   Zn1   S    
H5    O16   S    
O32   S11   S    
C31   O36   S    
H18   O42   S    
C3    C5    A    
H27   O4    S    
C29   C41   S    
C35   H12   S    
C27   O33   S    
C32   O37   S    
O20   S8    D    
O50   S4    D    
H3    O11   S    
C34   C41   A    
C42   C44   A    
C22   N3    A    
H19   O46   S    
H2    O10   S    
C37   O2    S    
C3    C44   A    
O46   S2    S    
H17   O39   S    
C34   C39   A    
O54   Zn2   S    
C32   C35   A    
O40   S12   D    
C38   C41   A    
C4    C6    A    
C13   S1    S    
C39   C40   A    
C5    C7    A    
C24   N4    A    
O1    Zn1   S    
O47   S3    D    
C39   O39   S    
C10   O4    S    
C36   O56   S    
C19   N6    S    
C2    C4    A    
O10   S5    S    
C15   O11   S    
C38   O38   S    
H9    O29   S    
C13   N4    A    
C2    C43   A    
H20   O49   S    
C4    S12   S    
C22   S8    S    
O26   S9    S    
C30   C40   S    
O53   Zn2   S    
O19   S7    S    
O8    S5    D    
O7    S1    S    
C8    C10   A    
C20   C22   A    
O17   S7    D    
C13   C15   A    
C17   O55   A    
C1    O1    A    
H16   O38   S    
C25   S10   S    
O24   S9    D    
O44   S2    D    
O52   S4    S    
C1    O23   A    
C12   O34   A    
C7    S3    S    
O30   S11   D    
H7    O22   S    
C7    C9    A    
H8    O26   S    
H6    O19   S    
H11   O33   S    
C10   C43   A    
O5    S1    D    
O31   S11   D    
C26   S11   S    
O9    S5    D    
C2    H22   S    
O25   S9    D    
H13   O35   S    
C26   C37   A    
O28   S10   D    
N3    Zn2   S    
C25   C27   A    
C23   C38   A    
C26   C28   A    
O34   Zn1   S    
H21   O52   S    
C20   S6    S    
H24   O56   S    
O45   Zn1   S    
C21   S7    S    
C29   C31   A    
O15   S6    D    
O22   S8    S    
C30   C32   A    
H25   O2    S    
C18   N5    S    
C28   C30   A    
C18   C20   A    
O43   S2    D    
C5    N1    S    
C16   O54   A    
C14   O13   S    
C28   O35   S    
C25   C36   A    
C1    C42   S    
H15   O37   S    
C21   C24   A    
H14   O36   S    
C44   H23   S    
C11   N3    A    
O49   S3    S    
O29   S10   S    
C9    O3    S    
C19   C21   A    
O14   S6    D    
