data_mof_unit_46463.cif
_audit_creation_date              2012-12-10T18:25:12-0500
_audit_creation_method            fapswitch 2.2
_symmetry_space_group_name_H-M    P1
_symmetry_Int_Tables_number       1
_space_group_crystal_system       triclinic
_cell_length_a                    19.285175
_cell_length_b                    15.883323
_cell_length_c                    14.646156
_cell_angle_alpha                 89.998992
_cell_angle_beta                  89.65254
_cell_angle_gamma                 89.884832
_cell_volume                      4486.21149953

loop_
_atom_site_label
_atom_site_type_symbol
_atom_type_description
_atom_site_fract_x
_atom_site_fract_y
_atom_site_fract_z
_atom_type_partial_charge
C1    C     C_R   0.499572 0.339518 0.500043 0.807583
C2    C     C_R   0.500105 0.660251 0.500011 0.781668
C3    C     C_3   0.569545 0.974992 0.529519 0.325740
C4    C     C_3   0.442794 0.023196 0.475561 0.303700
C5    C     C_3   0.553411 0.030903 0.446020 0.348608
C6    C     C_3   0.458719 0.968254 0.559690 0.312631
C7    C     C_1   0.499347 0.250007 0.500530 -0.155962
C8    C     C_1   0.502919 0.749228 0.500036 -0.115287
C9    C     C_3   0.518280 0.027543 0.587794 -0.179175
C10   C     C_3   0.493934 0.971614 0.416816 -0.213822
C11   C     C_3   0.502061 0.083117 0.503707 -0.048221
C12   C     C_3   0.509729 0.915388 0.501174 -0.118964
C13   C     C_1   0.499811 0.174612 0.501826 0.126174
C14   C     C_1   0.506160 0.824262 0.500440 0.096232
C15   C     C_3   0.456219 0.559214 0.970024 -0.086806
C16   C     C_3   0.543087 0.440099 0.030114 -0.049097
C17   C     C_3   0.435799 0.484086 0.032119 -0.080974
C18   C     C_3   0.563439 0.515158 0.968017 -0.074286
C19   C     C_3   0.520606 0.574958 0.030218 -0.100673
C20   C     C_3   0.478697 0.424259 0.969807 -0.042210
C21   C     C_3   0.500196 0.499903 0.092403 -0.037819
C22   C     C_3   0.499109 0.499459 0.907638 -0.005502
C23   C     C_R   0.366996 0.503503 0.500344 0.841644
C24   C     C_R   0.632591 0.503792 0.499731 0.835818
C25   C     C_1   0.500034 0.499932 0.194514 0.300527
C26   C     C_1   0.499628 0.499783 0.805498 0.338353
C27   C     C_R   0.255632 0.561696 0.567828 -0.185451
C28   C     C_R   0.740831 0.576501 0.445162 -0.179686
C29   C     C_R   0.183941 0.576616 0.559765 0.385663
C30   C     C_R   0.813549 0.585488 0.449297 0.414144
C31   C     C_R   0.146042 0.538010 0.489213 -0.235911
C32   C     C_R   0.853116 0.531501 0.505034 -0.234693
C33   C     C_R   0.181220 0.494950 0.418885 0.314870
C34   C     C_R   0.819817 0.473580 0.563202 0.297708
C35   C     C_R   0.252847 0.480851 0.425410 0.343116
C36   C     C_R   0.747829 0.462485 0.557441 0.352023
C37   C     C_R   0.290627 0.513426 0.499974 -0.329178
C38   C     C_R   0.708203 0.514239 0.499766 -0.316822
C39   C     C_R   0.929370 0.535496 0.501230 0.496404
C40   C     C_R   0.069661 0.538832 0.492833 0.482272
Cu1   Cu    Cu3+1 0.500010 0.500000 0.590220 1.031044
Cu2   Cu    Cu3+1 0.499990 0.500000 0.409780 1.027283
N1    N     N_R   0.031504 0.546745 0.415840 -0.231234
N2    N     N_R   0.967526 0.528101 0.578219 -0.233102
N3    N     N_R   0.962605 0.545192 0.419973 -0.189792
N4    N     N_R   0.036367 0.529740 0.574097 -0.195376
N5    N     N_1   0.499980 0.500000 0.274190 -0.144854
N6    N     N_1   0.500020 0.500000 0.725810 -0.145896
O1    O     O_R   0.500010 0.379080 0.576170 -0.544238
O2    O     O_R   0.499990 0.620920 0.423830 -0.559704
O3    O     O_R   0.500000 0.379080 0.423800 -0.574395
O4    O     O_R   0.500000 0.620920 0.576200 -0.573064
O5    O     O_R   0.400150 0.499990 0.576210 -0.606155
O6    O     O_R   0.599850 0.500010 0.423790 -0.578082
O7    O     O_R   0.400140 0.499990 0.423840 -0.533945
O8    O     O_R   0.599860 0.500010 0.576160 -0.532167
C41   C     C_2   0.292624 0.598093 0.647308 0.511452
H1    H     H_    0.326201 0.559241 0.688821 0.118255
O9    O     O_2   0.285044 0.671959 0.668173 -0.526907
C42   C     C_2   0.699121 0.634613 0.387208 0.458471
H2    H     H_    0.644993 0.646486 0.402773 0.057559
O10   O     O_2   0.724561 0.669828 0.320941 -0.483925
C43   C     C_2   0.455920 0.338620 0.939360 0.434573
H3    H     H_    0.443962 0.290826 0.989904 0.086066
O11   O     O_2   0.450859 0.322158 0.858321 -0.516955
C44   C     C_2   0.544224 0.660377 0.060239 0.355027
H4    H     H_    0.556706 0.707747 0.009445 0.066504
O12   O     O_2   0.549519 0.677078 0.141196 -0.492645
O13   O     O_3   0.150351 0.625876 0.624508 -0.562636
C45   C     C_3   0.138640 0.706747 0.587001 0.108802
H5    H     H_    0.100326 0.703517 0.530555 0.117082
H6    H     H_    0.187768 0.734591 0.560162 0.158844
C46   C     C_3   0.109712 0.764561 0.661427 -0.288976
H7    H     H_    0.059538 0.738974 0.686726 0.221453
H8    H     H_    0.146578 0.766796 0.719439 0.248046
C47   C     C_3   0.098306 0.853757 0.625665 -0.955304
H9    H     H_    0.148400 0.881924 0.603970 0.265956
H10   H     H_    0.075551 0.893469 0.680611 0.264472
H11   H     H_    0.062225 0.853153 0.566844 0.260597
O14   O     O_3   0.846404 0.648361 0.399929 -0.539977
C48   C     C_3   0.851859 0.720507 0.455968 0.078832
H12   H     H_    0.876735 0.705208 0.522547 0.114859
H13   H     H_    0.799522 0.747891 0.468996 0.134277
C49   C     C_3   0.896375 0.786232 0.407311 -0.290592
H14   H     H_    0.948639 0.759364 0.393226 0.224655
H15   H     H_    0.872078 0.803149 0.341157 0.240892
C50   C     C_3   0.904095 0.865496 0.465263 -0.962467
H16   H     H_    0.852480 0.893898 0.479598 0.261084
H17   H     H_    0.936325 0.912209 0.427980 0.262848
H18   H     H_    0.929782 0.850203 0.530899 0.261905
O15   O     O_3   0.144674 0.459183 0.347763 -0.582590
C51   C     C_3   0.151124 0.511340 0.269973 0.102393
H19   H     H_    0.205959 0.514147 0.245991 0.175884
H20   H     H_    0.132683 0.576483 0.285169 0.133159
C52   C     C_3   0.107029 0.474979 0.193251 -0.309514
H21   H     H_    0.124395 0.409631 0.178159 0.233201
H22   H     H_    0.051844 0.472947 0.215525 0.243235
C53   C     C_3   0.112966 0.527787 0.106510 -0.891782
H23   H     H_    0.094949 0.593169 0.119664 0.256180
H24   H     H_    0.080216 0.499842 0.052319 0.265823
H25   H     H_    0.167583 0.529166 0.081969 0.265654
O16   O     O_3   0.858439 0.421823 0.619518 -0.588173
C54   C     C_3   0.852432 0.451334 0.710297 0.112952
H26   H     H_    0.798700 0.442356 0.736652 0.202101
H27   H     H_    0.866173 0.519419 0.714839 0.134708
C55   C     C_3   0.902051 0.401418 0.770648 -0.325737
H28   H     H_    0.888889 0.333390 0.767030 0.226398
H29   H     H_    0.956044 0.409803 0.745262 0.246412
C56   C     C_3   0.897739 0.430405 0.869878 -0.884592
H30   H     H_    0.911897 0.497975 0.875291 0.259894
H31   H     H_    0.934353 0.392978 0.911820 0.259588
H32   H     H_    0.844416 0.421210 0.897189 0.275406
O17   O     O_3   0.286472 0.439799 0.354494 -0.592673
C57   C     C_3   0.291845 0.353336 0.375158 0.091079
H33   H     H_    0.239491 0.323820 0.375681 0.166764
H34   H     H_    0.316932 0.343200 0.442710 0.118716
C58   C     C_3   0.336456 0.311280 0.301521 -0.334605
H35   H     H_    0.311230 0.318932 0.233971 0.248665
H36   H     H_    0.388019 0.342386 0.298618 0.243544
C59   C     C_3   0.346654 0.217823 0.320886 -0.856343
H37   H     H_    0.371776 0.209164 0.388194 0.282532
H38   H     H_    0.380427 0.189541 0.267378 0.261847
H39   H     H_    0.295930 0.184947 0.320726 0.251067
O18   O     O_3   0.715870 0.401379 0.610180 -0.578527
C60   C     C_3   0.717330 0.324548 0.561753 0.064591
H40   H     H_    0.771623 0.306103 0.544190 0.172413
H41   H     H_    0.686473 0.329735 0.497865 0.132584
C61   C     C_3   0.685703 0.255741 0.621602 -0.314117
H42   H     H_    0.714684 0.251775 0.686852 0.235965
H43   H     H_    0.630789 0.271796 0.637433 0.258902
C62   C     C_3   0.688559 0.170394 0.574038 -0.836832
H44   H     H_    0.658524 0.172529 0.509721 0.284489
H45   H     H_    0.665924 0.121700 0.619460 0.297126
H46   H     H_    0.743074 0.152643 0.558316 0.241343
O19   O     O_3   0.602474 0.069318 0.387533 -0.610250
C63   C     C_3   0.642778 0.008190 0.341017 0.118114
H47   H     H_    0.632893 0.014802 0.266703 0.159454
H48   H     H_    0.630466 0.941753 0.359467 0.141869
C64   C     C_3   0.719585 0.024554 0.358904 -0.348380
H49   H     H_    0.733618 0.088131 0.333103 0.230790
H50   H     H_    0.729398 0.022936 0.433535 0.245969
C65   C     C_3   0.765331 0.958758 0.312142 -0.909343
H51   H     H_    0.754004 0.895100 0.339891 0.266703
H52   H     H_    0.820708 0.973482 0.324687 0.262269
H53   H     H_    0.756326 0.958907 0.237310 0.269085
O20   O     O_3   0.410267 0.927657 0.617338 -0.601074
C66   C     C_3   0.369662 0.987119 0.665282 0.072574
H54   H     H_    0.355133 0.042173 0.622377 0.178244
H55   H     H_    0.398640 0.009880 0.725766 0.156536
C67   C     C_3   0.303258 0.943874 0.697915 -0.314750
H56   H     H_    0.276133 0.916019 0.638408 0.227535
H57   H     H_    0.316693 0.892070 0.745730 0.252784
C68   C     C_3   0.254519 0.005546 0.745973 -0.914843
H58   H     H_    0.280257 0.033425 0.806475 0.269216
H59   H     H_    0.207153 0.971833 0.769014 0.264702
H60   H     H_    0.238954 0.056652 0.698495 0.256621
O21   O     O_3   0.638301 0.961881 0.560126 -0.617587
C69   C     C_3   0.660990 0.878159 0.547662 0.052008
H61   H     H_    0.717902 0.880048 0.535699 0.158509
H62   H     H_    0.639168 0.847621 0.485959 0.132210
C70   C     C_3   0.647511 0.826680 0.634472 -0.342367
H63   H     H_    0.675422 0.856041 0.692472 0.224443
H64   H     H_    0.591316 0.827026 0.651337 0.226478
C71   C     C_3   0.672125 0.735806 0.623600 -0.900824
H65   H     H_    0.645127 0.705073 0.565877 0.232452
H66   H     H_    0.660446 0.700012 0.686950 0.269332
H67   H     H_    0.728948 0.733794 0.611134 0.234915
O22   O     O_3   0.376437 0.052706 0.450585 -0.628790
C72   C     C_3   0.334200 0.984879 0.422684 0.084735
H68   H     H_    0.345681 0.925166 0.459737 0.182034
H69   H     H_    0.341895 0.974039 0.348354 0.154619
C73   C     C_3   0.258185 0.007482 0.440037 -0.341047
H70   H     H_    0.250487 0.022900 0.513386 0.222978
H71   H     H_    0.244107 0.063805 0.399164 0.222187
C74   C     C_3   0.210306 0.934877 0.414565 -0.932427
H72   H     H_    0.215971 0.919562 0.340894 0.263391
H73   H     H_    0.155617 0.953094 0.428340 0.262615
H74   H     H_    0.222718 0.878124 0.455742 0.251927
C75   C     C_2   0.482042 0.943902 0.320392 0.354037
H75   H     H_    0.472070 0.990624 0.268084 0.086408
O23   O     O_2   0.483584 0.869407 0.300220 -0.517538
C76   C     C_2   0.532334 0.056230 0.683284 0.394595
H76   H     H_    0.544534 0.010157 0.735441 0.080394
O24   O     O_2   0.530059 0.130832 0.702902 -0.528742
C77   C     C_2   0.364083 0.469607 0.068975 0.340840
H77   H     H_    0.339965 0.516863 0.112246 0.068312
O25   O     O_2   0.332654 0.405223 0.050892 -0.545545
C78   C     C_2   0.635172 0.532406 0.933035 0.341012
H78   H     H_    0.661767 0.589628 0.952699 0.077889
O26   O     O_2   0.664038 0.481987 0.882666 -0.545685
C79   C     C_2   0.406835 0.626630 0.940119 0.349611
H79   H     H_    0.379880 0.664238 0.990979 0.073433
O27   O     O_2   0.396702 0.639557 0.859183 -0.526839
C80   C     C_2   0.592419 0.372663 0.060087 0.369697
H80   H     H_    0.619315 0.334935 0.009277 0.103571
O28   O     O_2   0.602532 0.359803 0.141038 -0.532984

loop_
_geom_bond_atom_site_label_1
_geom_bond_atom_site_label_2
_ccdc_geom_bond_type
C80   O28   D    
C50   H16   S    
C43   O11   D    
C16   C21   S    
C27   C29   A    
C72   H69   S    
C46   H7    S    
C44   O12   D    
C52   H21   S    
C47   H11   S    
C62   H46   S    
C61   H42   S    
C48   C49   S    
C6    C9    S    
C57   H33   S    
C41   H1    S    
C52   C53   S    
O19   C63   S    
C74   H73   S    
C73   H70   S    
C40   N4    A    
C80   H80   S    
C34   O16   S    
C10   C75   S    
C78   O26   D    
C71   H65   S    
C66   H55   S    
C47   H10   S    
C5    C11   S    
C58   H36   S    
C6    C12   S    
C6    O20   S    
C64   C65   S    
C77   O25   D    
C55   H28   S    
C24   O6    A    
C11   C13   S    
C17   C20   S    
C31   C40   S    
C19   C44   S    
C42   O10   D    
C18   C19   S    
Cu1   Cu2   S    
C32   C39   S    
C18   C78   S    
C76   H76   S    
C21   C25   S    
C3    C12   S    
C2    O2    A    
C69   C70   S    
C48   H13   S    
C15   C22   S    
C66   H54   S    
C73   H71   S    
C67   C68   S    
C60   C61   S    
C24   C38   S    
C31   C33   A    
C45   H5    S    
C9    C76   S    
C68   H59   S    
C25   N5    T    
Cu1   O4    S    
C73   C74   S    
C26   N6    T    
Cu2   O3    S    
C39   N3    A    
C30   O14   S    
C44   H4    S    
C1    C7    S    
C69   H62   S    
C46   H8    S    
C65   H53   S    
O13   C45   S    
C63   C64   S    
Cu1   O1    S    
C70   H64   S    
C59   H38   S    
C23   O5    A    
C74   H74   S    
C29   O13   S    
C28   C42   S    
C65   H51   S    
O20   C66   S    
C43   H3    S    
C79   H79   S    
C72   H68   S    
C66   C67   S    
C16   C80   S    
C47   H9    S    
C4    C6    S    
C27   C41   S    
C56   H32   S    
C17   C77   S    
O15   C51   S    
C63   H47   S    
N2    N4    A    
C3    C5    S    
C23   C37   S    
C51   C52   S    
C48   H12   S    
C4    O22   S    
O21   C69   S    
C42   H2    S    
C68   H60   S    
C32   C34   A    
C15   C19   S    
C79   O27   D    
Cu1   O8    S    
C3    C9    S    
C67   H57   S    
Cu2   O7    S    
N1    N3    A    
C74   H72   S    
C28   C38   A    
C16   C20   S    
C40   N1    A    
C45   C46   S    
C51   H20   S    
C54   H27   S    
C49   H14   S    
C4    C11   S    
C23   O7    A    
C9    C11   S    
Cu1   O5    S    
C10   C12   S    
Cu2   O2    S    
C63   H48   S    
O22   C72   S    
C20   C22   S    
C53   H24   S    
C50   H17   S    
C69   H61   S    
C72   C73   S    
C65   H52   S    
C58   C59   S    
C36   O18   S    
C4    C10   S    
C62   H44   S    
C61   C62   S    
C70   C71   S    
C59   H37   S    
C35   C37   A    
C60   H41   S    
O17   C57   S    
C5    O19   S    
C15   C79   S    
C52   H22   S    
C8    C14   T    
C76   O24   D    
C19   C21   S    
C18   C22   S    
C71   H67   S    
C2    C8    S    
C49   H15   S    
O14   C48   S    
C62   H45   S    
C61   H43   S    
C57   H34   S    
C64   H49   S    
C59   H39   S    
C15   C17   S    
C39   N2    A    
C49   C50   S    
C24   O8    A    
C53   H25   S    
C1    O3    A    
C2    O4    A    
C20   C43   S    
C71   H66   S    
C12   C14   S    
C5    C10   S    
C29   C31   A    
C70   H63   S    
C58   H35   S    
Cu2   O6    S    
C36   C38   A    
C30   C32   A    
C64   H50   S    
C77   H77   S    
C60   H40   S    
C55   H29   S    
C27   C37   A    
C56   H31   S    
C28   C30   A    
C51   H19   S    
C33   C35   A    
Cu1   N6    S    
C35   O17   S    
C54   C55   S    
C34   C36   A    
Cu2   N5    S    
O16   C54   S    
C17   C21   S    
C57   C58   S    
C41   O9    D    
C75   H75   S    
C7    C13   T    
C46   C47   S    
C16   C18   S    
C53   H23   S    
C22   C26   S    
C50   H18   S    
C54   H26   S    
C3    O21   S    
C67   H56   S    
C78   H78   S    
C45   H6    S    
C68   H58   S    
C56   H30   S    
C1    O1    A    
C55   C56   S    
O18   C60   S    
C75   O23   D    
C33   O15   S    
