data_mof_unit_31443.cif
_audit_creation_date              2013-03-05T16:04:11-0500
_audit_creation_method            fapswitch 2.2
_symmetry_space_group_name_H-M    P1
_symmetry_Int_Tables_number       1
_space_group_crystal_system       triclinic
_cell_length_a                    19.373722
_cell_length_b                    6.948856
_cell_length_c                    17.837823
_cell_angle_alpha                 89.963331
_cell_angle_beta                  108.856647
_cell_angle_gamma                 89.872859
_cell_volume                      2272.52882724

loop_
_atom_site_label
_atom_site_type_symbol
_atom_site_description
_atom_site_fract_x
_atom_site_fract_y
_atom_site_fract_z
_atom_type_partial_charge
O1    O     O_R   0.561710 0.369960 0.440200 -0.602874
O2    O     O_R   0.061710 0.630040 0.940200 -0.607328
O3    O     O_R   0.412630 0.033330 0.406330 -0.568742
O4    O     O_R   0.912630 0.966670 0.906330 -0.567370
O5    O     O_R   0.438290 0.869790 0.559800 -0.554001
O6    O     O_R   0.938290 0.130210 0.059800 -0.545046
C1    C     C_R   0.384738 0.203417 0.383277 1.003268
C2    C     C_R   0.884114 0.797031 0.884094 0.981437
O7    O     O_R   0.559570 0.039810 0.430640 -0.610555
O8    O     O_R   0.059570 0.960190 0.930640 -0.614146
O9    O     O_R   0.586280 0.876320 0.584290 -0.602285
O10   O     O_R   0.086280 0.123680 0.084290 -0.584264
C3    C     C_R   0.581350 0.208580 0.415821 0.931002
C4    C     C_R   0.081751 0.791247 0.916370 0.935787
O11   O     O_R   0.413720 0.363440 0.415710 -0.597413
O12   O     O_R   0.913720 0.636560 0.915710 -0.613685
O13   O     O_3   0.508590 0.205630 0.550380 -0.279422
O14   O     O_3   0.008590 0.794370 0.050380 -0.241706
V1    V     V_3+5 0.498410 0.928130 0.490650 1.202791
V2    V     V_3+5 0.998410 0.071870 0.990650 1.225709
O15   O     O_R   0.587370 0.546990 0.593670 -0.618766
O16   O     O_R   0.087370 0.453010 0.093670 -0.592384
C5    C     C_R   0.615901 0.716680 0.615868 0.946730
C6    C     C_R   0.115933 0.282858 0.115722 0.956327
O17   O     O_R   0.440430 0.540520 0.569360 -0.586760
O18   O     O_R   0.940430 0.459480 0.069360 -0.606464
C7    C     C_R   0.419572 0.709587 0.584968 1.104793
C8    C     C_R   0.920507 0.290919 0.085883 1.124294
V3    V     V_3+5 0.501590 0.428960 0.509350 1.192462
V4    V     V_3+5 0.001590 0.571040 0.009350 1.213281
O19   O     O_3   0.491410 0.701330 0.449620 -0.292027
O20   O     O_3   0.991410 0.298670 0.949620 -0.294561
C9    C     C_R   0.256689 0.829551 0.652231 0.449874
C10   C     C_R   0.852082 0.181781 0.259656 0.475168
C11   C     C_R   0.306872 0.835606 0.609129 0.419265
C12   C     C_R   0.897404 0.183080 0.210349 0.340140
C13   C     C_R   0.370334 0.720949 0.633587 -0.257472
C14   C     C_R   0.874150 0.282145 0.137538 -0.268716
C15   C     C_R   0.387255 0.620165 0.705395 -0.214847
C16   C     C_R   0.805885 0.372421 0.113308 -0.131859
H1    H     H_    0.436465 0.533899 0.725800 0.169902
H2    H     H_    0.788428 0.453769 0.058765 0.198705
C17   C     C_R   0.343411 0.639281 0.753875 -0.138244
C18   C     C_R   0.758285 0.352294 0.157177 -0.149412
H3    H     H_    0.360731 0.569908 0.811334 0.153564
H4    H     H_    0.704200 0.414294 0.133919 0.160150
C19   C     C_R   0.278061 0.746043 0.728602 0.040768
C20   C     C_R   0.779838 0.253908 0.229991 0.036985
C21   C     C_R   0.219149 0.604329 0.822558 -0.124785
C22   C     C_R   0.686117 0.395997 0.283809 -0.122846
H5    H     H_    0.246928 0.470471 0.821210 0.191530
H6    H     H_    0.690554 0.530176 0.255248 0.190241
C23   C     C_R   0.170137 0.611492 0.865333 -0.146824
C24   C     C_R   0.639467 0.388281 0.329400 -0.148656
H7    H     H_    0.161879 0.482738 0.895591 0.134626
H8    H     H_    0.609629 0.516806 0.334639 0.139390
C25   C     C_R   0.132814 0.782397 0.869494 -0.161852
C26   C     C_R   0.630893 0.216966 0.367032 -0.161915
C27   C     C_R   0.147071 0.947085 0.831194 -0.309397
C28   C     C_R   0.670009 0.053126 0.357508 -0.310578
H9    H     H_    0.120642 0.082177 0.835615 0.173029
H10   H     H_    0.663336 0.918566 0.385074 0.169826
C29   C     C_R   0.196513 0.941682 0.788266 0.441567
C30   C     C_R   0.717377 0.059293 0.311924 0.439401
C31   C     C_R   0.231348 0.765754 0.781011 0.010851
C32   C     C_R   0.727207 0.234696 0.275717 0.013774
C33   C     C_R   0.764734 0.629767 0.812937 0.019725
C34   C     C_R   0.266236 0.371958 0.310937 0.089638
C35   C     C_R   0.813453 0.783523 0.818449 -0.219095
C36   C     C_R   0.314828 0.217781 0.316634 -0.203962
C37   C     C_R   0.791571 0.925953 0.759158 -0.073732
C38   C     C_R   0.293288 0.075518 0.257419 -0.097771
H11   H     H_    0.825819 0.049835 0.761185 0.110714
H12   H     H_    0.327949 0.952129 0.259417 0.099926
C39   C     C_R   0.727514 0.903419 0.693516 -0.094921
C40   C     C_R   0.228602 0.096733 0.192398 -0.066463
H13   H     H_    0.714050 0.012811 0.647814 0.122264
H14   H     H_    0.215227 0.987480 0.146772 0.109847
C41   C     C_R   0.683638 0.736890 0.684580 -0.260398
C42   C     C_R   0.183880 0.261922 0.184069 -0.214880
C43   C     C_R   0.702571 0.605913 0.747104 0.103943
C44   C     C_R   0.202884 0.393353 0.246173 -0.017553
C45   C     C_3   0.710564 0.392717 0.747097 0.229301
C46   C     C_3   0.210629 0.606764 0.244351 0.245490
C47   C     C_3   0.776340 0.416640 0.822262 0.156967
C48   C     C_3   0.279287 0.584773 0.316768 0.059791
H15   H     H_    0.724934 0.338039 0.695350 0.007485
H16   H     H_    0.221773 0.657662 0.190353 0.056326
H17   H     H_    0.828943 0.367070 0.816358 0.032618
H18   H     H_    0.330598 0.628306 0.306337 0.031249
O21   O     O_3   0.186284 0.898638 0.620359 -0.706355
H19   H     H_    0.172738 0.900033 0.561846 0.347670
O22   O     O_3   0.877381 0.117930 0.337147 -0.711652
H20   H     H_    0.931153 0.130195 0.357260 0.338663
O23   O     O_3   0.651309 0.298923 0.759944 -0.654666
H21   H     H_    0.616099 0.271999 0.706747 0.334809
O24   O     O_3   0.152589 0.707323 0.258172 -0.650051
H22   H     H_    0.135866 0.634080 0.296935 0.355873
N1    N     N_R   0.762889 0.344205 0.893414 0.271443
O25   O     O_R   0.710884 0.416656 0.916214 -0.355964
O26   O     O_R   0.795971 0.189133 0.927619 -0.408523
N2    N     N_R   0.271425 0.668084 0.388799 0.275788
O27   O     O_R   0.271702 0.560296 0.448618 -0.390560
O28   O     O_R   0.263685 0.853116 0.392912 -0.316472
O29   O     O_3   0.295512 0.953177 0.543922 -0.678725
H23   H     H_    0.263462 0.061548 0.547648 0.347049
O30   O     O_3   0.964349 0.091625 0.231892 -0.736449
H24   H     H_    0.963802 0.983814 0.268030 0.347537
N3    N     N_R   0.211935 0.117244 0.754411 0.231499
O31   O     O_R   0.159432 0.237334 0.720605 -0.368952
O32   O     O_R   0.278583 0.161006 0.759462 -0.453663
N4    N     N_R   0.753225 0.885127 0.301519 0.234564
O33   O     O_R   0.778049 0.765484 0.360317 -0.379106
O34   O     O_R   0.757332 0.839516 0.232323 -0.439704

loop_
_geom_bond_atom_site_label_1
_geom_bond_atom_site_label_2
_geom_bond_distance
_ccdc_geom_bond_type
C45   H15   1.113553 S    
C29   C31   1.421161 A    
O22   H20   0.990004 S    
C34   C48   1.498837 S    
O23   H21   0.991543 S    
C10   O22   1.381327 S    
O4    C2    1.309177 A    
V1    O19   1.725135 S    
C1    C36   1.488657 S    
N4    O34   1.301607 A    
O24   H22   0.993574 S    
C15   H1    1.083344 S    
O9    V1    1.994026 S    
C2    C35   1.489485 S    
C22   C24   1.398690 A    
C21   C31   1.405949 A    
C47   N1    1.464820 S    
C46   O24   1.410453 S    
C11   C13   1.408996 A    
C46   C48   1.532801 S    
O3    C1    1.308015 A    
C9    O21   1.381914 S    
C24   C26   1.402606 A    
C30   N4    1.435762 S    
O12   V4    2.013177 S    
O13   V3    1.701722 S    
C28   H10   1.083446 S    
O7    V1    1.993737 S    
C35   C37   1.408830 A    
O7    C3    1.302758 A    
C1    O11   1.296174 A    
O5    C7    1.295651 A    
C6    C42   1.483891 S    
O6    C8    1.298017 A    
O8    V2    1.992223 S    
C21   H5    1.077769 S    
C22   H6    1.079043 S    
O30   H24   0.990316 S    
O3    V1    1.983923 S    
O14   V4    1.703126 S    
V4    O20   2.150500 S    
C17   C19   1.408195 A    
C10   C12   1.429646 A    
C38   C40   1.413117 A    
C16   H2    1.079923 S    
C2    O12   1.295274 A    
C37   C39   1.413329 A    
C12   O30   1.381151 S    
N4    O33   1.301379 A    
C43   C45   1.489201 S    
C18   H4    1.082806 S    
O11   V3    2.015368 S    
C23   H7    1.083154 S    
O17   V3    1.991897 S    
C24   H8    1.083180 S    
C33   C47   1.498528 S    
C27   H9    1.083371 S    
C40   C42   1.415113 A    
C38   H12   1.081334 S    
C48   H18   1.111374 S    
O21   H19   0.990590 S    
C37   H11   1.081509 S    
C47   H17   1.111856 S    
O13   V1    2.181959 S    
C15   C17   1.400513 A    
C3    C26   1.490703 S    
O15   V3    2.022046 S    
C33   C35   1.409502 A    
C30   C32   1.420740 A    
C29   N3    1.435109 S    
C11   O29   1.378877 S    
C39   H13   1.082273 S    
N1    O25   1.302643 A    
C8    C14   1.481360 S    
C45   O23   1.402973 S    
O10   V2    1.995775 S    
O1    V3    1.993347 S    
N2    O28   1.299012 A    
C17   H3    1.082520 S    
C22   C32   1.407616 A    
C42   C44   1.391405 A    
C45   C47   1.531677 S    
C33   C43   1.394228 A    
C44   C46   1.492255 S    
O15   C5    1.309477 A    
O8    C4    1.302494 A    
C9    C19   1.413267 A    
O16   C6    1.309475 A    
O1    C3    1.302742 A    
C12   C14   1.408172 A    
C48   N2    1.461618 S    
C41   C43   1.392677 A    
V2    O20   1.723729 S    
C4    C25   1.488670 S    
C23   C25   1.403471 A    
O16   V4    2.018270 S    
N1    O26   1.299042 A    
O18   C8    1.297264 A    
C46   H16   1.110754 S    
C40   H14   1.082232 S    
O18   V4    1.993413 S    
O5    V1    1.993142 S    
O17   C7    1.300786 A    
O6    V2    1.992413 S    
O29   H23   0.990826 S    
O10   C6    1.289677 A    
C27   C29   1.406890 A    
O2    V4    1.994084 S    
C28   C30   1.409827 A    
C34   C44   1.394839 A    
N3    O32   1.301695 A    
V3    O19   2.148529 S    
N3    O31   1.301441 A    
C14   C16   1.398548 A    
C39   C41   1.415651 A    
C7    C13   1.484208 S    
C21   C23   1.398017 A    
O9    C5    1.290207 A    
C9    C11   1.421786 A    
O14   V2    2.179979 S    
N2    O27   1.301877 A    
O2    C4    1.301657 A    
C25   C27   1.405362 A    
O4    V2    1.987348 S    
C16   C18   1.396154 A    
C10   C20   1.417038 A    
C13   C15   1.401797 A    
C34   C36   1.406384 A    
C36   C38   1.409019 A    
C20   C32   1.503630 S    
C5    C41   1.485082 S    
C26   C28   1.406770 A    
C19   C31   1.502751 S    
C18   C20   1.405610 A    
