data_mof_unit_21633.cif
_audit_creation_date              2012-10-26T21:33:00-0400
_audit_creation_method            fapswitch 2.2
_symmetry_space_group_name_H-M    P1
_symmetry_Int_Tables_number       1
_space_group_crystal_system       triclinic
_cell_length_a                    28.28879
_cell_length_b                    18.441333
_cell_length_c                    17.037306
_cell_angle_alpha                 89.959127
_cell_angle_beta                  60.907789
_cell_angle_gamma                 89.893667
_cell_volume                      7766.72516984

loop_
_atom_site_label
_atom_site_type_symbol
_atom_type_description
_atom_site_fract_x
_atom_site_fract_y
_atom_site_fract_z
_atom_type_partial_charge
C1    C     C_R   0.702025 0.269012 0.675745 0.883470
C2    C     C_R   0.941226 0.618806 0.536748 -0.257994
C3    C     C_R   0.073968 0.900256 0.933984 0.914955
C4    C     C_R   0.574164 0.599438 0.933769 0.907393
C5    C     C_R   0.425827 0.400545 0.066277 0.915208
C6    C     C_R   0.425886 0.599537 0.066156 0.909516
C7    C     C_R   0.574113 0.400466 0.933868 0.910649
C8    C     C_R   0.554527 0.007621 0.478667 0.044850
C9    C     C_R   0.455907 0.010276 0.474375 0.047250
C10   C     C_R   0.060590 0.498600 0.463058 0.044708
C11   C     C_R   0.959669 0.500002 0.467055 0.046699
C12   C     C_R   0.538532 0.071363 0.451412 0.016480
C13   C     C_R   0.978237 0.383228 0.393363 -0.249153
C14   C     C_R   0.469345 0.949960 0.510562 0.016947
C15   C     C_R   0.491123 0.070632 0.442039 0.016951
C16   C     C_R   0.521411 0.945543 0.502573 0.022468
C17   C     C_R   0.030737 0.563418 0.480642 0.019218
C18   C     C_R   0.993144 0.437993 0.434887 0.014345
C19   C     C_R   0.977638 0.561768 0.493655 0.014930
C20   C     C_R   0.041488 0.435077 0.441527 0.014671
C21   C     C_R   0.626139 0.937358 0.487332 -0.060112
C22   C     C_R   0.394982 0.067275 0.428364 -0.048224
C23   C     C_R   0.372114 0.949041 0.500899 -0.064799
C24   C     C_R   0.057308 0.628973 0.473558 -0.263566
C25   C     C_R   0.636139 0.067836 0.462710 -0.053469
C26   C     C_R   0.138655 0.433147 0.455428 -0.053355
C27   C     C_R   0.874283 0.562083 0.506417 -0.062568
C28   C     C_R   0.890743 0.440864 0.440970 -0.066857
C29   C     C_R   0.133865 0.565023 0.469173 -0.061769
C30   C     C_R   0.675592 0.936834 0.492678 -0.222024
C31   C     C_R   0.344833 0.066096 0.429309 -0.129048
C32   C     C_R   0.332145 0.941596 0.472695 -0.212089
C33   C     C_R   0.682044 0.065760 0.476720 -0.225895
C34   C     C_R   0.184087 0.434050 0.471579 -0.230186
C35   C     C_R   0.544512 0.878599 0.503941 -0.266427
C36   C     C_R   0.825568 0.563029 0.501699 -0.222237
C37   C     C_R   0.834981 0.438237 0.463747 -0.202272
C38   C     C_R   0.180821 0.564024 0.480662 -0.225300
C39   C     C_R   0.705425 0.000140 0.476944 0.363239
C40   C     C_R   0.322079 0.999396 0.429147 0.374061
C41   C     C_R   0.208596 0.499482 0.470488 0.364502
C42   C     C_R   0.801975 0.498797 0.500343 0.359671
C43   C     C_R   0.605000 0.004602 0.478533 -0.021665
C44   C     C_R   0.407891 0.008752 0.467573 -0.035351
C45   C     C_R   0.110629 0.498626 0.464239 -0.023332
C46   C     C_R   0.478994 0.126199 0.397389 -0.254074
C47   C     C_R   0.908356 0.500937 0.471412 -0.031123
C48   C     C_R   0.121627 0.371785 0.424995 0.419097
C49   C     C_R   0.889130 0.617212 0.548015 0.425904
C50   C     C_R   0.929043 0.385938 0.392599 0.419152
C51   C     C_R   0.110780 0.629027 0.455462 0.434241
C52   C     C_R   0.598806 0.874346 0.481915 0.428815
C53   C     C_R   0.432430 0.124179 0.388985 0.423041
C54   C     C_R   0.380191 0.898880 0.556324 0.420011
C55   C     C_R   0.622001 0.128535 0.427382 0.419003
C56   C     C_3   0.793591 0.997591 0.368823 0.134057
C57   C     C_R   0.429678 0.896846 0.555927 -0.252199
C58   C     C_3   0.851663 0.995339 0.351130 -0.780184
C59   C     C_3   0.259770 0.997398 0.376586 0.165555
C60   C     C_3   0.259617 0.054088 0.311565 -0.793970
C61   C     C_3   0.297788 0.500428 0.367675 0.129183
C62   C     C_3   0.354876 0.501495 0.354661 -0.776031
C63   C     C_3   0.720349 0.495610 0.628328 0.124380
C64   C     C_3   0.659440 0.493771 0.665497 -0.767769
C65   C     C_R   0.573034 0.131475 0.427096 -0.243480
C66   C     C_R   0.721799 0.268127 0.953067 0.112691
C67   C     C_R   0.278990 0.733502 0.046410 0.121007
C68   C     C_R   0.280339 0.264124 0.045301 0.124671
C69   C     C_R   0.298086 0.731231 0.324217 0.886767
C70   C     C_R   0.720607 0.733934 0.954034 0.121943
C71   C     C_R   0.220492 0.765659 0.954112 0.122166
C72   C     C_R   0.780587 0.236433 0.045080 0.124949
C73   C     C_R   0.779012 0.766785 0.046285 0.117279
C74   C     C_R   0.221371 0.232322 0.953593 0.113061
C75   C     C_R   0.744949 0.199334 0.946072 -0.170038
C76   C     C_R   0.255662 0.802258 0.053893 -0.162578
C77   C     C_R   0.256968 0.195457 0.052913 -0.158664
C78   C     C_R   0.743967 0.802654 0.945968 -0.160113
C79   C     C_R   0.243813 0.696901 0.946647 -0.168202
C80   C     C_R   0.298409 0.268113 0.324062 0.888416
C81   C     C_R   0.757395 0.305246 0.052126 -0.157582
C82   C     C_R   0.755655 0.698069 0.054349 -0.160961
C83   C     C_R   0.244685 0.300974 0.946073 -0.171246
C84   C     C_R   0.773751 0.183630 0.991637 -0.161631
C85   C     C_R   0.226950 0.818177 0.008223 -0.153007
C86   C     C_R   0.227994 0.179743 0.007604 -0.165603
C87   C     C_R   0.772649 0.818901 0.991567 -0.159596
C88   C     C_R   0.272531 0.680984 0.992307 -0.159509
C89   C     C_R   0.728498 0.320915 0.006651 -0.168150
C90   C     C_R   0.726990 0.681816 0.008733 -0.156313
C91   C     C_R   0.701968 0.731101 0.675733 0.880700
C92   C     C_R   0.273577 0.316720 0.991450 -0.163479
C93   C     C_R   0.644195 0.328177 0.945571 -0.187308
C94   C     C_R   0.356267 0.672714 0.054164 -0.202085
C95   C     C_R   0.356968 0.326181 0.053734 -0.204496
C96   C     C_R   0.643643 0.672630 0.945929 -0.200865
C97   C     C_R   0.143297 0.826578 0.946241 -0.201246
C98   C     C_R   0.857209 0.174324 0.053536 -0.206346
C99   C     C_R   0.856152 0.827728 0.054212 -0.200156
C100  C     C_R   0.143925 0.172087 0.945857 -0.187717
C101  C     C_R   0.616931 0.347921 0.897992 -0.066779
C102  C     C_R   0.201783 0.768506 0.675871 0.923256
C103  C     C_R   0.383219 0.652317 0.102006 -0.064438
C104  C     C_R   0.383510 0.347288 0.101943 -0.076935
C105  C     C_R   0.616847 0.652093 0.897909 -0.064670
C106  C     C_R   0.116403 0.847070 0.898348 -0.063510
C107  C     C_R   0.883681 0.153008 0.101792 -0.074435
C108  C     C_R   0.883076 0.848019 0.102122 -0.063765
C109  C     C_R   0.116754 0.152303 0.898157 -0.066366
C110  C     C_R   0.633608 0.322702 0.812837 -0.270576
C111  C     C_R   0.366395 0.677195 0.187350 -0.278277
C112  C     C_R   0.366698 0.322420 0.187340 -0.234525
C113  C     C_R   0.798498 0.232069 0.323994 0.908727
C114  C     C_R   0.633772 0.676838 0.812471 -0.277171
C115  C     C_R   0.133134 0.821963 0.813090 -0.264494
C116  C     C_R   0.866862 0.177798 0.187213 -0.240331
C117  C     C_R   0.866176 0.823202 0.187520 -0.277295
C118  C     C_R   0.133425 0.177643 0.813014 -0.256523
C119  C     C_R   0.679982 0.282190 0.770700 -0.048019
C120  C     C_R   0.320281 0.718260 0.229231 -0.046103
C121  C     C_R   0.321177 0.280289 0.228687 -0.037049
C122  C     C_R   0.679748 0.718016 0.770737 -0.047193
C123  C     C_R   0.179338 0.781036 0.771098 -0.047135
C124  C     C_R   0.797945 0.769074 0.324317 0.878842
C125  C     C_R   0.821343 0.220082 0.228554 -0.034316
C126  C     C_R   0.820047 0.782336 0.229394 -0.053499
C127  C     C_R   0.179766 0.218109 0.770904 -0.052376
C128  C     C_R   0.708358 0.261527 0.816719 -0.198449
C129  C     C_R   0.292251 0.739626 0.182919 -0.151436
C130  C     C_R   0.294049 0.257464 0.181514 -0.152313
C131  C     C_R   0.707577 0.739515 0.817241 -0.144880
C132  C     C_R   0.207281 0.759557 0.817526 -0.134991
C133  C     C_R   0.794279 0.243198 0.181284 -0.138167
C134  C     C_R   0.791991 0.761264 0.183110 -0.163206
C135  C     C_R   0.201971 0.231109 0.675777 0.902294
C136  C     C_R   0.207992 0.238795 0.817094 -0.193418
C137  C     C_R   0.690640 0.284874 0.905119 0.070799
C138  C     C_R   0.310004 0.716392 0.094484 0.063138
C139  C     C_R   0.311382 0.281337 0.093396 0.066396
C140  C     C_R   0.689774 0.716423 0.905756 0.063440
C141  C     C_R   0.189496 0.782770 0.905998 0.068561
C142  C     C_R   0.811623 0.219283 0.093189 0.063190
C143  C     C_R   0.809870 0.784229 0.094530 0.064419
C144  C     C_R   0.190261 0.215479 0.905548 0.072954
C145  C     C_R   0.703555 0.130398 0.498428 0.967438
C146  C     C_R   0.073044 0.372241 0.422534 -0.245607
C147  C     C_R   0.304604 0.873044 0.478121 0.991896
C148  C     C_R   0.309304 0.130144 0.460274 0.901012
C149  C     C_R   0.697412 0.872058 0.513869 0.940083
C150  C     C_R   0.200793 0.628806 0.505354 0.958271
C151  C     C_R   0.807273 0.371350 0.468540 0.977438
C152  C     C_R   0.800591 0.628505 0.491178 0.966343
C153  C     C_R   0.204222 0.369212 0.496731 0.969785
C154  C     C_R   0.074063 0.099595 0.933893 0.917522
C155  C     C_R   0.925840 0.900553 0.066220 0.905447
C156  C     C_R   0.925894 0.099549 0.066191 0.913420
Cl1   Cl    Cl    0.165210 0.301898 0.361134 -0.657305
Cl2   Cl    Cl    0.841370 0.674294 0.632577 -0.653693
Cl3   Cl    Cl    0.922179 0.326701 0.317292 -0.635985
Cl4   Cl    Cl    0.150731 0.698045 0.380832 -0.636029
Cl5   Cl    Cl    0.633705 0.803507 0.405000 -0.611711
Cl6   Cl    Cl    0.427326 0.188105 0.316126 -0.626377
Cl7   Cl    Cl    0.326814 0.849602 0.642326 -0.645561
Cl8   Cl    Cl    0.669721 0.190758 0.354423 -0.660759
H1    H     H_    0.061678 0.322679 0.402455 0.177265
H2    H     H_    0.288977 0.626950 0.986301 0.131726
H3    H     H_    0.289878 0.370756 0.985450 0.131949
H4    H     H_    0.710554 0.627809 0.015220 0.131437
H5    H     H_    0.210518 0.872218 0.014221 0.132629
H6    H     H_    0.789940 0.129490 0.986093 0.132614
H7    H     H_    0.789121 0.872889 0.985051 0.131772
H8    H     H_    0.211501 0.125807 0.013771 0.132072
H9    H     H_    0.739972 0.157117 0.906557 0.135787
H10   H     H_    0.260400 0.844263 0.093896 0.131086
H11   H     H_    0.261823 0.153362 0.092784 0.130103
H12   H     H_    0.951534 0.662102 0.568623 0.179904
H13   H     H_    0.739300 0.844398 0.905518 0.131577
H14   H     H_    0.239074 0.654897 0.906647 0.130586
H15   H     H_    0.762336 0.347462 0.091670 0.132815
H16   H     H_    0.760326 0.656328 0.094800 0.134063
H17   H     H_    0.239791 0.343072 0.906250 0.134790
H18   H     H_    0.629904 0.347750 0.013348 0.155488
H19   H     H_    0.370664 0.653351 0.986277 0.151204
H20   H     H_    0.371203 0.345816 0.986005 0.150583
H21   H     H_    0.629182 0.653377 0.013877 0.153120
H22   H     H_    0.128934 0.846024 0.014085 0.151439
H23   H     H_    0.005671 0.339874 0.356068 0.180893
H24   H     H_    0.871462 0.154705 0.985795 0.150568
H25   H     H_    0.870621 0.846963 0.986254 0.151306
H26   H     H_    0.129641 0.152476 0.013616 0.153582
H27   H     H_    0.612368 0.338799 0.777023 0.178001
H28   H     H_    0.387301 0.660436 0.223482 0.180929
H29   H     H_    0.387085 0.340009 0.223936 0.196847
H30   H     H_    0.612997 0.659996 0.776225 0.180070
H31   H     H_    0.112183 0.838623 0.777007 0.178444
H32   H     H_    0.887212 0.160000 0.223852 0.193787
H33   H     H_    0.887089 0.839780 0.223644 0.180594
H34   H     H_    0.039862 0.679570 0.467429 0.179347
H35   H     H_    0.112256 0.161575 0.777134 0.177910
H36   H     H_    0.745527 0.230593 0.782545 0.154142
H37   H     H_    0.255293 0.771002 0.216909 0.181683
H38   H     H_    0.257908 0.224625 0.214785 0.188044
H39   H     H_    0.744434 0.770936 0.783328 0.180865
H40   H     H_    0.244286 0.728271 0.783510 0.172463
H41   H     H_    0.758143 0.276209 0.214482 0.188143
H42   H     H_    0.754951 0.730221 0.217198 0.177594
H43   H     H_    0.245098 0.269696 0.782965 0.153508
H44   H     H_    0.788513 0.047410 0.336527 0.128257
H45   H     H_    0.524224 0.828858 0.503891 0.180896
H46   H     H_    0.786584 0.948819 0.337222 0.134990
H47   H     H_    0.879801 0.994884 0.277629 0.217647
H48   H     H_    0.860151 0.043870 0.380804 0.251232
H49   H     H_    0.858439 0.945644 0.381215 0.252748
H50   H     H_    0.231738 0.012947 0.447528 0.140564
H51   H     H_    0.243071 0.946683 0.364709 0.167055
H52   H     H_    0.283364 0.102267 0.310140 0.273509
H53   H     H_    0.278226 0.031132 0.242651 0.236677
H54   H     H_    0.217458 0.070877 0.332201 0.205952
H55   H     H_    0.292404 0.549457 0.334466 0.133476
H56   H     H_    0.506418 0.170202 0.363570 0.180451
H57   H     H_    0.293443 0.450832 0.334343 0.127415
H58   H     H_    0.360855 0.550919 0.386008 0.249519
H59   H     H_    0.361825 0.452658 0.385914 0.252400
H60   H     H_    0.384621 0.501685 0.281817 0.217082
H61   H     H_    0.730118 0.545240 0.654905 0.136990
H62   H     H_    0.732346 0.446682 0.652972 0.125826
H63   H     H_    0.646154 0.542629 0.643243 0.250722
H64   H     H_    0.647890 0.444435 0.641514 0.255834
H65   H     H_    0.638807 0.493036 0.740024 0.213096
H66   H     H_    0.435547 0.856165 0.596280 0.178092
H67   H     H_    0.564411 0.181100 0.403095 0.176596
H68   H     H_    0.712095 0.374946 0.012377 0.131465
O1    O     O_R   0.746490 0.236330 0.638080 -0.639719
O2    O     O_R   0.325830 0.813840 0.483730 -0.588123
O3    O     O_R   0.325830 0.186160 0.483730 -0.587555
O4    O     O_R   0.674170 0.813840 0.516270 -0.595695
O5    O     O_R   0.174170 0.686160 0.516270 -0.601169
O6    O     O_R   0.825830 0.313840 0.483730 -0.608826
O7    O     O_R   0.825830 0.686160 0.483730 -0.600575
O8    O     O_R   0.174170 0.313840 0.516270 -0.595354
O9    O     O_R   0.739960 0.127620 0.525000 -0.580233
O10   O     O_R   0.260040 0.872380 0.475000 -0.651595
O11   O     O_R   0.260040 0.127620 0.475000 -0.653005
O12   O     O_R   0.253510 0.763670 0.361920 -0.598290
O13   O     O_R   0.739960 0.872380 0.525000 -0.575989
O14   O     O_R   0.239960 0.627620 0.525000 -0.580945
O15   O     O_R   0.760040 0.372380 0.475000 -0.575388
O16   O     O_R   0.760040 0.627620 0.475000 -0.581720
O17   O     O_R   0.239960 0.372380 0.525000 -0.578382
O18   O     O_R   0.680700 0.294870 0.629350 -0.634836
O19   O     O_R   0.319300 0.705130 0.370650 -0.650796
O20   O     O_R   0.319300 0.294870 0.370650 -0.620111
O21   O     O_R   0.680700 0.705130 0.629350 -0.645850
O22   O     O_R   0.180700 0.794870 0.629350 -0.638472
O23   O     O_R   0.253510 0.236330 0.361920 -0.607214
O24   O     O_R   0.819300 0.205130 0.370650 -0.626258
O25   O     O_R   0.819300 0.794870 0.370650 -0.645279
O26   O     O_R   0.180700 0.205130 0.629350 -0.625244
O27   O     O_R   0.062020 0.072840 0.007170 -0.623475
O28   O     O_R   0.937980 0.927160 0.992830 -0.627373
O29   O     O_R   0.937980 0.072840 0.992830 -0.628103
O30   O     O_R   0.062020 0.927160 0.007170 -0.627011
O31   O     O_R   0.562020 0.572840 0.007170 -0.625409
O32   O     O_R   0.437980 0.427160 0.992830 -0.626641
O33   O     O_R   0.437980 0.572840 0.992830 -0.626318
O34   O     O_R   0.746490 0.763670 0.638080 -0.597822
O35   O     O_R   0.562020 0.427160 0.007170 -0.621126
O36   O     O_R   0.947860 0.073950 0.109290 -0.626213
O37   O     O_R   0.052140 0.926050 0.890710 -0.622442
O38   O     O_R   0.052140 0.073950 0.890710 -0.623056
O39   O     O_R   0.947860 0.926050 0.109290 -0.632433
O40   O     O_R   0.447860 0.573950 0.109290 -0.631314
O41   O     O_R   0.552140 0.426050 0.890710 -0.630215
O42   O     O_R   0.552140 0.573950 0.890710 -0.628518
O43   O     O_R   0.447860 0.426050 0.109290 -0.624655
O44   O     O_3   0.758063 0.998215 0.462543 -0.572375
O45   O     O_R   0.246490 0.736330 0.638080 -0.598142
O46   O     O_3   0.313596 0.983662 0.357083 -0.602347
O47   O     O_3   0.260215 0.500239 0.460565 -0.572958
O48   O     O_3   0.746383 0.496183 0.533353 -0.568279
O49   O     O_R   0.753510 0.263670 0.361920 -0.598570
O50   O     O_R   0.753510 0.736330 0.361920 -0.597372
O51   O     O_R   0.246490 0.263670 0.638080 -0.634731
O52   O     O_R   0.674170 0.186160 0.516270 -0.604097
Zn1   Zn    Zn3+2 0.792340 0.208750 0.507670 1.008169
Zn2   Zn    Zn3+2 0.494040 0.500000 0.919480 0.936978
Zn3   Zn    Zn3+2 0.005960 1.000000 0.080520 0.945230
Zn4   Zn    Zn3+2 0.994040 0.000000 0.919480 0.945760
Zn5   Zn    Zn3+2 0.207660 0.791250 0.492330 0.998933
Zn6   Zn    Zn3+2 0.207660 0.208750 0.492330 0.994413
Zn7   Zn    Zn3+2 0.792340 0.791250 0.507670 1.026433
Zn8   Zn    Zn3+2 0.292340 0.708750 0.507670 1.021548
Zn9   Zn    Zn3+2 0.707660 0.291250 0.492330 1.033467
Zn10  Zn    Zn3+2 0.707660 0.708750 0.492330 1.045543
Zn11  Zn    Zn3+2 0.292340 0.291250 0.507670 1.017380
Zn12  Zn    Zn3+2 0.505960 0.500000 0.080520 0.948689

loop_
_geom_bond_atom_site_label_1
_geom_bond_atom_site_label_2
_ccdc_geom_bond_type
C39   O44   S    
C28   C47   A    
C70   C140  S    
C36   C42   A    
C74   C83   A    
O45   Zn8   S    
C72   C142  S    
C13   C18   A    
C99   C143  A    
O23   Zn6   S    
C16   C35   A    
C64   H65   S    
C59   H51   S    
C63   O48   S    
C37   C42   A    
C67   C138  S    
O4    Zn10  S    
C115  H31   S    
C131  C140  A    
C134  C143  A    
C1    O1    A    
C91   C122  S    
C148  O11   A    
O31   Zn12  S    
C63   H62   S    
C117  C126  A    
C130  H38   S    
C52   Cl5   S    
C119  C128  A    
C24   C51   A    
C24   H34   S    
C59   C60   S    
C8    C16   A    
C55   C65   A    
C109  C118  A    
C66   C89   A    
C80   C121  S    
C149  O4    A    
C115  C123  A    
C61   H55   S    
C127  C136  A    
C100  C144  A    
C93   C101  A    
O10   Zn5   S    
C101  C110  A    
C85   H5    S    
C29   C45   A    
C48   Cl1   S    
C87   H7    S    
C109  C154  S    
C72   C84   A    
C124  O25   A    
C27   C36   A    
C20   C146  A    
C94   H19   S    
C102  C123  S    
C12   C65   A    
C34   C153  S    
C68   C77   A    
C14   C57   A    
C135  O26   A    
C114  H30   S    
C2    C19   A    
C96   H21   S    
C100  H26   S    
C25   C55   A    
C136  H43   S    
C69   O12   A    
C124  O50   A    
C95   C139  A    
C106  C115  A    
O32   Zn2   S    
O21   Zn10  S    
C9    C15   A    
O5    Zn5   S    
C57   H66   S    
C108  C155  S    
C46   C53   A    
C68   C92   A    
C69   O19   A    
O12   Zn5   S    
C126  C134  A    
C59   O46   S    
O9    Zn1   S    
C154  O38   A    
C76   C85   A    
C78   C87   A    
C11   C18   A    
C13   H23   S    
C123  C132  A    
C78   H13   S    
C110  H27   S    
C121  C130  A    
C25   C43   A    
C71   C79   A    
C63   H61   S    
C32   C147  S    
C58   H47   S    
O13   Zn7   S    
C99   C108  A    
O14   Zn8   S    
C133  C142  A    
C86   H8    S    
C84   H6    S    
C75   C84   A    
C83   H17   S    
C26   C45   A    
O49   Zn9   S    
O51   Zn11  S    
C29   C38   A    
C56   O44   S    
C5    O43   A    
C62   H60   S    
C54   Cl7   S    
C71   C141  S    
C129  H37   S    
C113  O24   A    
C98   C142  A    
C46   H56   S    
C120  C129  A    
C38   C41   A    
C10   C20   A    
C104  C112  A    
C36   C152  S    
C91   O21   A    
C60   H54   S    
C42   O48   S    
C156  O36   A    
C8    C12   A    
C150  O5    A    
C10   C45   A    
C7    O35   A    
O28   Zn4   S    
O6    Zn1   S    
C146  H1    S    
C116  C125  A    
C118  C127  A    
C102  O45   A    
C122  C131  A    
O25   Zn7   S    
C124  C126  S    
C29   C51   A    
C27   C47   A    
C132  C141  A    
C150  O14   A    
C151  O6    A    
C90   H4    S    
C108  C117  A    
C110  C119  A    
C96   C140  A    
C3    O37   A    
C148  O3    A    
C76   H10   S    
C60   H52   S    
C112  C121  A    
C152  O7    A    
C28   C37   A    
C56   C58   S    
C30   C39   A    
C62   H58   S    
C61   C62   S    
C107  C116  A    
C63   C64   S    
C116  H32   S    
C147  O2    A    
C100  C109  A    
O7    Zn7   S    
C80   O20   A    
C15   C46   A    
C64   H63   S    
C27   C49   A    
C25   C33   A    
C54   C57   A    
C96   C105  A    
O41   Zn2   S    
O20   Zn11  S    
O37   Zn4   S    
C11   C47   A    
C8    C43   A    
C11   C19   A    
C67   C88   A    
C127  C135  S    
C151  O15   A    
C53   Cl6   S    
C134  H42   S    
C70   C78   A    
C51   Cl4   S    
C31   C40   A    
C103  C111  A    
C1    C119  S    
C73   C87   A    
C98   H24   S    
O1    Zn1   S    
O2    Zn8   S    
C131  H39   S    
C72   C81   A    
C26   C48   A    
C81   C89   A    
O26   Zn6   S    
C40   O46   S    
C111  H28   S    
O19   Zn8   S    
C61   O47   S    
C34   C41   A    
C130  C139  A    
C79   C88   A    
C3    C106  S    
C97   H22   S    
O17   Zn11  S    
C132  H40   S    
C65   H67   S    
C135  O51   A    
C81   H15   S    
O50   Zn10  S    
C23   C44   A    
C102  O22   A    
C9    C14   A    
C128  H36   S    
C56   H46   S    
C41   O47   S    
C93   H18   S    
C56   H44   S    
C12   C15   A    
C3    O30   A    
O16   Zn10  S    
C6    C103  S    
O27   Zn3   S    
C97   C141  A    
O40   Zn12  S    
C97   C106  A    
C94   C103  A    
O36   Zn3   S    
C94   C138  A    
C73   C82   A    
C73   C143  S    
C74   C144  S    
C149  O13   A    
C153  O8    A    
C30   C149  S    
C155  O39   A    
O39   Zn3   S    
C58   H48   S    
C50   Cl3   S    
C21   C30   A    
C69   C120  S    
C82   C90   A    
C4    O42   A    
C23   C32   A    
C136  C144  A    
C92   H3    S    
C66   C75   A    
C89   H68   S    
C61   H57   S    
C152  O16   A    
C98   C107  A    
C156  O29   A    
C58   H49   S    
C35   C52   A    
C68   C139  S    
C154  O27   A    
C113  O49   A    
C80   O23   A    
C75   H9    S    
C59   H50   S    
C83   C92   A    
C33   C39   A    
C55   Cl8   S    
C95   H20   S    
C113  C125  S    
C10   C17   A    
C133  H41   S    
C2    H12   S    
C21   C43   A    
C28   C50   A    
C26   C34   A    
C22   C44   A    
C129  C138  A    
C48   C146  A    
C5    O32   A    
O34   Zn7   S    
C91   O34   A    
C107  C156  S    
O29   Zn4   S    
O11   Zn6   S    
O30   Zn3   S    
C5    C104  S    
C77   H11   S    
C71   C85   A    
C70   C90   A    
C37   C151  S    
C118  H35   S    
C22   C53   A    
C17   C24   A    
C22   C31   A    
C6    O40   A    
C105  C114  A    
C99   H25   S    
C1    O18   A    
C147  O10   A    
C153  O17   A    
C13   C50   A    
C111  C120  A    
C128  C137  A    
C2    C49   A    
C6    O33   A    
C79   H14   S    
C145  O9    A    
C62   H59   S    
C74   C86   A    
C33   C145  S    
O33   Zn2   S    
O42   Zn2   S    
C77   C86   A    
C88   H2    S    
C7    C101  S    
C14   C16   A    
C49   Cl2   S    
C31   C148  S    
O22   Zn5   S    
C64   H64   S    
C117  H33   S    
C95   C104  A    
C23   C54   A    
C125  C133  A    
C9    C44   A    
O38   Zn4   S    
C7    O41   A    
O8    Zn6   S    
C4    C105  S    
O15   Zn9   S    
C35   H45   S    
C60   H53   S    
C155  O28   A    
C66   C137  S    
O52   Zn9   S    
C4    O31   A    
C17   C19   A    
O24   Zn1   S    
C18   C20   A    
C32   C40   A    
O35   Zn12  S    
O3    Zn11  S    
C112  H29   S    
C93   C137  A    
O43   Zn12  S    
C114  C122  A    
C82   H16   S    
O18   Zn9   S    
C67   C76   A    
C145  O52   A    
C38   C150  S    
C21   C52   A    
