data_mof_unit_16552.cif
_audit_creation_date              2012-10-26T18:51:14-0400
_audit_creation_method            fapswitch 2.2
_symmetry_space_group_name_H-M    P1
_symmetry_Int_Tables_number       1
_space_group_crystal_system       triclinic
_cell_length_a                    15.042115
_cell_length_b                    13.691932
_cell_length_c                    23.514082
_cell_angle_alpha                 89.907343
_cell_angle_beta                  89.144769
_cell_angle_gamma                 90.725583
_cell_volume                      4841.92156186

loop_
_atom_site_label
_atom_site_type_symbol
_atom_type_description
_atom_site_fract_x
_atom_site_fract_y
_atom_site_fract_z
_atom_type_partial_charge
C1    C     C_R   0.328701 0.499436 0.500393 0.562614
C2    C     C_R   0.531809 0.584314 0.702532 0.213101
C3    C     C_R   0.467361 0.579939 0.238564 -0.077044
C4    C     C_R   0.534434 0.580607 0.761809 -0.087709
C5    C     C_R   0.497686 0.497958 0.209004 0.208733
C6    C     C_R   0.521770 0.492256 0.790928 0.204513
C7    C     C_R   0.814100 0.448945 0.454179 0.242132
C8    C     C_R   0.185392 0.558087 0.539838 0.239079
C9    C     C_R   0.767862 0.502531 0.495914 0.004124
C10   C     C_R   0.232114 0.498289 0.501410 -0.015620
C11   C     C_R   0.813380 0.560709 0.534744 -0.184306
C12   C     C_R   0.671279 0.500635 0.498447 0.570415
C13   C     C_R   0.186805 0.437908 0.463395 -0.201454
C14   C     C_R   0.905775 0.562674 0.534762 0.002384
C15   C     C_R   0.094272 0.439111 0.461555 0.002022
C16   C     C_R   0.498187 0.500053 0.390925 0.553308
C17   C     C_R   0.502790 0.499943 0.609163 0.557247
C18   C     C_R   0.953291 0.502518 0.496659 0.022403
C19   C     C_R   0.046648 0.500974 0.498632 0.021201
C20   C     C_R   0.907557 0.443668 0.456869 0.018275
C21   C     C_R   0.092198 0.561150 0.537756 0.019861
C22   C     C_R   0.951217 0.622530 0.573096 -0.141420
C23   C     C_R   0.526213 0.414837 0.239185 0.036009
C24   C     C_R   0.048652 0.379678 0.423074 -0.146085
C25   C     C_R   0.043682 0.622522 0.574246 -0.123028
C26   C     C_R   0.956162 0.380752 0.421328 -0.141220
C27   C     C_R   0.439037 0.792198 0.532651 0.044786
C28   C     C_R   0.561703 0.207739 0.468126 0.050709
C29   C     C_R   0.560697 0.794069 0.467405 0.049492
C30   C     C_R   0.438079 0.206034 0.531723 0.048764
C31   C     C_R   0.562237 0.897300 0.466460 -0.036595
C32   C     C_R   0.435750 0.102775 0.532228 -0.031848
C33   C     C_R   0.437042 0.895506 0.533567 -0.041150
C34   C     C_R   0.507140 0.404973 0.760235 0.042504
C35   C     C_R   0.563944 0.104535 0.467707 -0.036643
C36   C     C_R   0.499778 0.948253 0.500099 -0.072840
C37   C     C_R   0.499873 0.051745 0.500062 -0.067028
C38   C     C_R   0.624101 0.950084 0.432290 0.254754
C39   C     C_R   0.370121 0.050228 0.563450 0.252078
C40   C     C_R   0.374250 0.946617 0.567168 0.257560
C41   C     C_R   0.628905 0.053575 0.436060 0.252429
C42   C     C_R   0.595024 0.508066 0.881360 0.429711
C43   C     C_R   0.424213 0.488041 0.118612 0.434893
C44   C     C_R   0.437595 0.483921 0.879128 0.449899
C45   C     C_R   0.525604 0.417325 0.298672 -0.234971
C46   C     C_R   0.580911 0.517670 0.120980 0.446598
C47   C     C_R   0.431692 0.486461 0.938988 0.048083
C48   C     C_R   0.587181 0.514609 0.061094 0.051118
C49   C     C_R   0.510870 0.499326 0.969978 -0.083063
C50   C     C_R   0.508070 0.501080 0.030061 -0.083078
C51   C     C_R   0.592902 0.510856 0.940954 -0.007750
C52   C     C_R   0.426018 0.488749 0.059051 -0.007311
C53   C     C_R   0.349473 0.477112 0.968714 0.256734
C54   C     C_R   0.669636 0.522873 0.031483 0.265658
C55   C     C_R   0.347720 0.476408 0.028162 -0.105502
C56   C     C_R   0.500687 0.409699 0.700989 -0.236490
C57   C     C_R   0.671071 0.524195 0.971842 -0.112550
C58   C     C_3   0.226874 0.553130 0.936229 0.027662
C59   C     C_3   0.146090 0.540591 0.898178 -0.237328
C60   C     C_3   0.097195 0.636657 0.890868 -0.490272
C61   C     C_3   0.803159 0.453157 0.054381 0.014853
C62   C     C_3   0.777886 0.374263 0.098325 -0.243775
C63   C     C_3   0.839010 0.286511 0.093508 -0.484048
C64   C     C_3   0.661248 0.911085 0.339934 -0.003139
C65   C     C_3   0.581849 0.845725 0.323821 -0.269870
C66   C     C_3   0.566418 0.848021 0.259856 -0.458861
C67   C     C_R   0.496185 0.499959 0.328373 -0.010623
C68   C     C_3   0.221669 0.088436 0.565779 0.009072
C69   C     C_3   0.214142 0.155026 0.513601 -0.281968
C70   C     C_3   0.120980 0.149393 0.489213 -0.485793
C71   C     C_3   0.326834 0.910281 0.658874 -0.000622
C72   C     C_3   0.413898 0.865403 0.678869 -0.278626
C73   C     C_3   0.417460 0.859125 0.743557 -0.463686
C74   C     C_3   0.777130 0.096146 0.433048 0.017566
C75   C     C_3   0.784638 0.164652 0.484416 -0.281346
C76   C     C_3   0.878623 0.166040 0.507727 -0.486804
C77   C     C_2   0.556919 0.324211 0.210823 0.247563
C78   C     C_R   0.511058 0.498801 0.671681 -0.011420
C79   C     C_2   0.498131 0.307766 0.787945 0.278548
C80   C     C_3   0.344929 0.653686 0.338876 0.023311
C81   C     C_3   0.317293 0.737367 0.378001 -0.247268
C82   C     C_3   0.219568 0.728410 0.395848 -0.468817
C83   C     C_3   0.633143 0.692168 0.665198 0.021796
C84   C     C_3   0.644027 0.795006 0.640384 -0.254680
C85   C     C_3   0.740173 0.817713 0.622951 -0.484245
C86   C     C_3   0.777641 0.448928 0.358953 -0.005667
C87   C     C_3   0.737706 0.551766 0.357965 -0.283137
C88   C     C_3   0.734336 0.591650 0.297393 -0.453483
C89   C     C_R   0.464892 0.581131 0.297883 0.217500
C90   C     C_3   0.239662 0.558962 0.629363 0.000124
C91   C     C_3   0.287137 0.621261 0.673539 -0.268403
C92   C     C_3   0.290895 0.569391 0.730890 -0.452495
Cu1   Cu    Cu3+1 0.500000 0.597420 0.500000 0.948833
Cu2   Cu    Cu3+1 0.500000 0.402580 0.500000 0.930636
H1    H     H_    0.076901 0.670111 0.604166 0.153461
H2    H     H_    0.487156 0.343101 0.677619 0.128418
H3    H     H_    0.445540 0.643232 0.215156 0.123917
H4    H     H_    0.545162 0.647384 0.785528 0.125645
H5    H     H_    0.776447 0.603259 0.565569 0.105247
H6    H     H_    0.223936 0.391474 0.434485 0.123488
H7    H     H_    0.915179 0.669341 0.602284 0.107628
H8    H     H_    0.084553 0.332243 0.394216 0.108099
H9    H     H_    0.271651 0.610342 0.917086 0.135901
H10   H     H_    0.203881 0.577476 0.979117 0.116493
H11   H     H_    0.168092 0.513945 0.855673 0.197518
H12   H     H_    0.922974 0.331604 0.392266 0.137281
H13   H     H_    0.099740 0.485349 0.917260 0.173806
H14   H     H_    0.073542 0.664162 0.932786 0.155873
H15   H     H_    0.038804 0.624860 0.863258 0.155709
H16   H     H_    0.141805 0.692274 0.870573 0.146763
H17   H     H_    0.872763 0.477227 0.062018 0.155453
H18   H     H_    0.802765 0.421767 0.010687 0.115210
H19   H     H_    0.782788 0.405146 0.141856 0.205344
H20   H     H_    0.708288 0.349204 0.091669 0.203587
H21   H     H_    0.819060 0.230942 0.125857 0.159533
H22   H     H_    0.909032 0.309125 0.101023 0.151440
H23   H     H_    0.391837 0.749792 0.557919 0.199273
H24   H     H_    0.834071 0.253092 0.050636 0.161519
H25   H     H_    0.720007 0.888826 0.314110 0.155531
H26   H     H_    0.648119 0.988400 0.328338 0.172002
H27   H     H_    0.594214 0.769356 0.337193 0.199448
H28   H     H_    0.520711 0.871212 0.346037 0.169448
H29   H     H_    0.555812 0.924165 0.245319 0.148469
H30   H     H_    0.506409 0.803833 0.249757 0.182951
H31   H     H_    0.624391 0.817118 0.236618 0.156725
H32   H     H_    0.169177 0.108631 0.597191 0.154483
H33   H     H_    0.207785 0.011144 0.553777 0.171632
H34   H     H_    0.609013 0.250028 0.442884 0.187517
H35   H     H_    0.229237 0.231857 0.525689 0.177858
H36   H     H_    0.262654 0.132334 0.480223 0.157421
H37   H     H_    0.101917 0.072459 0.479956 0.145147
H38   H     H_    0.119316 0.191503 0.448997 0.149715
H39   H     H_    0.072492 0.180859 0.519919 0.155159
H40   H     H_    0.270440 0.874752 0.682262 0.146744
H41   H     H_    0.324928 0.988803 0.670463 0.181632
H42   H     H_    0.419866 0.791271 0.660825 0.217412
H43   H     H_    0.470996 0.910554 0.663106 0.145891
H44   H     H_    0.411056 0.932973 0.762545 0.152139
H45   H     H_    0.608085 0.753125 0.442281 0.168258
H46   H     H_    0.482074 0.828096 0.756255 0.172472
H47   H     H_    0.363098 0.810892 0.760207 0.142126
H48   H     H_    0.829473 0.116951 0.401302 0.156074
H49   H     H_    0.791146 0.019631 0.446006 0.164914
H50   H     H_    0.767058 0.239847 0.471625 0.220875
H51   H     H_    0.737738 0.140325 0.518690 0.151199
H52   H     H_    0.896956 0.092010 0.522559 0.143977
H53   H     H_    0.882398 0.217484 0.544095 0.158769
H54   H     H_    0.926637 0.190675 0.474244 0.154202
H55   H     H_    0.586745 0.266984 0.235922 0.090785
H56   H     H_    0.390499 0.247072 0.556643 0.164889
H57   H     H_    0.476555 0.245134 0.763224 0.087956
H58   H     H_    0.330277 0.583320 0.361366 0.133787
H59   H     H_    0.305386 0.656741 0.299251 0.136459
H60   H     H_    0.358789 0.736754 0.416687 0.207474
H61   H     H_    0.328718 0.808185 0.355717 0.157335
H62   H     H_    0.176526 0.731347 0.357933 0.145494
H63   H     H_    0.202091 0.789681 0.424626 0.157538
H64   H     H_    0.206946 0.658588 0.418820 0.164909
H65   H     H_    0.659708 0.638308 0.634085 0.146066
H66   H     H_    0.671867 0.688265 0.705205 0.133974
H67   H     H_    0.284258 0.466311 0.049919 0.167784
H68   H     H_    0.601256 0.802492 0.602549 0.188297
H69   H     H_    0.622388 0.849056 0.672779 0.157296
H70   H     H_    0.785066 0.807072 0.659461 0.145345
H71   H     H_    0.745917 0.894838 0.608539 0.149719
H72   H     H_    0.761129 0.770022 0.587254 0.149937
H73   H     H_    0.743127 0.403238 0.326876 0.158616
H74   H     H_    0.848486 0.453275 0.345109 0.126541
H75   H     H_    0.669683 0.549521 0.376385 0.185876
H76   H     H_    0.778717 0.602349 0.383935 0.158269
H77   H     H_    0.801989 0.593456 0.277808 0.160229
H78   H     H_    0.734231 0.535090 0.949851 0.160978
H79   H     H_    0.708273 0.667035 0.298017 0.154766
H80   H     H_    0.689903 0.545416 0.271100 0.188339
H81   H     H_    0.279629 0.492246 0.621251 0.131512
H82   H     H_    0.173102 0.536896 0.646893 0.126888
H83   H     H_    0.355782 0.637111 0.658076 0.198517
H84   H     H_    0.251803 0.691451 0.679075 0.174454
H85   H     H_    0.222704 0.557082 0.748433 0.150058
H86   H     H_    0.328782 0.615277 0.761226 0.170450
H87   H     H_    0.324475 0.498042 0.726322 0.180043
H88   H     H_    0.549049 0.354565 0.322012 0.132842
N1    N     N_R   0.518290 0.493894 0.851944 -0.369569
N2    N     N_R   0.500975 0.501355 0.148065 -0.368036
N3    N     N_R   0.500000 0.743810 0.500000 -0.273559
N4    N     N_R   0.500000 0.256190 0.500000 -0.262489
O1    O     O_R   0.370260 0.582280 0.500010 -0.476763
O2    O     O_2   0.346508 0.473664 0.147029 -0.505542
O3    O     O_2   0.363775 0.471188 0.848011 -0.478302
O4    O     O_2   0.653544 0.536626 0.152224 -0.481602
O5    O     O_3   0.270674 0.462784 0.940202 -0.516952
O6    O     O_3   0.748355 0.536094 0.060650 -0.523501
O7    O     O_3   0.683406 0.899596 0.397901 -0.596614
O8    O     O_3   0.304711 0.101364 0.592487 -0.604163
O9    O     O_3   0.313058 0.893915 0.600109 -0.586734
O10   O     O_3   0.693998 0.105714 0.406187 -0.590942
O11   O     O_2   0.548075 0.310885 0.159908 -0.498153
O12   O     O_R   0.629740 0.417720 0.499990 -0.478542
O13   O     O_2   0.516441 0.295379 0.837812 -0.470549
O14   O     O_3   0.436380 0.664269 0.325550 -0.580001
O15   O     O_3   0.541886 0.673650 0.675768 -0.589862
O16   O     O_3   0.766196 0.401135 0.412302 -0.586626
O17   O     O_3   0.231211 0.614148 0.578919 -0.561870
O18   O     O_R   0.629740 0.582280 0.499990 -0.528689
O19   O     O_R   0.370260 0.417720 0.500010 -0.525580
O20   O     O_R   0.499980 0.582290 0.417880 -0.474000
O21   O     O_R   0.500020 0.417710 0.582120 -0.516175
O22   O     O_R   0.500020 0.582290 0.582120 -0.461303
O23   O     O_R   0.499980 0.417710 0.417880 -0.504887
O24   O     O_2   0.673183 0.518448 0.852921 -0.508791

loop_
_geom_bond_atom_site_label_1
_geom_bond_atom_site_label_2
_ccdc_geom_bond_type
C87   C88   S    
C34   C56   A    
Cu1   Cu2   S    
C23   C45   A    
C4    H4    S    
C14   C18   A    
C16   O23   A    
C2    C4    A    
C83   O15   S    
C26   H12   S    
C71   H40   S    
C81   C82   S    
C56   C78   A    
C80   H59   S    
C47   C49   A    
C73   H47   S    
C27   C33   A    
C15   C19   A    
Cu2   O19   S    
C59   H11   S    
C22   H7    S    
C54   O6    S    
C85   H72   S    
C30   N4    A    
C36   C37   A    
C35   C37   A    
C52   C55   A    
C24   C26   A    
C62   H20   S    
C41   O10   S    
C16   O20   A    
C92   H87   S    
C71   H41   S    
C82   H64   S    
C11   C14   A    
C43   C52   A    
C30   H56   S    
C73   H44   S    
C87   H75   S    
C91   H84   S    
C90   H82   S    
C43   N2    A    
C67   C89   A    
C33   C36   A    
C88   H80   S    
C11   H5    S    
C18   C19   A    
C27   N3    A    
C32   C39   A    
C46   N2    A    
C49   C50   A    
Cu1   O18   S    
C17   C78   S    
C60   H15   S    
C92   H86   S    
C83   H66   S    
C28   C35   A    
C68   C69   S    
C49   C51   A    
C22   C25   A    
C45   C67   A    
C70   H39   S    
C50   C52   A    
C51   C57   A    
C65   H27   S    
C1    O19   A    
C86   O16   S    
C5    N2    S    
C24   H8    S    
C60   H14   S    
C44   C47   A    
C42   C51   A    
C47   C53   A    
C57   H78   S    
C63   H21   S    
C53   C55   A    
C74   H48   S    
C76   H52   S    
C59   C60   S    
C88   H77   S    
C8    O17   S    
C61   C62   S    
C2    O15   S    
C46   O4    S    
Cu1   O20   S    
C45   H88   S    
C74   O10   S    
C1    O1    A    
C29   H45   S    
C39   O8    S    
C46   C48   A    
C33   C40   A    
C79   O13   D    
C74   C75   S    
Cu2   O21   S    
C80   H58   S    
C17   O21   A    
C72   H42   S    
C86   H74   S    
C84   C85   S    
C76   H53   S    
C38   C41   A    
C4    C6    A    
C77   H55   S    
C39   C40   A    
C63   H24   S    
C86   C87   S    
C69   H36   S    
C58   C59   S    
C65   H28   S    
C87   H76   S    
C90   H81   S    
C75   H51   S    
C88   H79   S    
C6    C34   A    
Cu2   O12   S    
C48   C54   A    
C75   C76   S    
C62   C63   S    
C2    C78   A    
C92   H85   S    
C28   N4    A    
C34   C79   S    
C61   O6    S    
C9    C11   A    
C3    H3    S    
C71   O9    S    
C83   C84   S    
C5    C23   A    
C64   O7    S    
C70   H38   S    
C8    C21   A    
C16   C67   S    
C32   C37   A    
C23   C77   S    
C53   O5    S    
C44   N1    A    
C55   H67   S    
C84   H69   S    
C62   H19   S    
C63   H22   S    
Cu1   O1    S    
C8    C10   A    
C15   C24   A    
C25   H1    S    
C13   C15   A    
C66   H30   S    
C74   H49   S    
C58   H10   S    
C65   C66   S    
C86   H73   S    
C64   H25   S    
C61   H17   S    
C44   O3    S    
C68   H32   S    
C91   C92   S    
C84   H68   S    
C79   H57   S    
C90   O17   S    
C27   H23   S    
C56   H2    S    
C89   O14   S    
C21   C25   A    
C72   H43   S    
C80   O14   S    
C19   C21   A    
C31   C36   A    
C17   O22   A    
C1    C10   S    
Cu2   N4    S    
C80   C81   S    
C3    C5    A    
C10   C13   A    
C81   H61   S    
C66   H31   S    
C73   H46   S    
C42   N1    A    
C7    O16   S    
C64   H26   S    
C31   C38   A    
C6    N1    S    
C3    C89   A    
C85   H71   S    
C64   C65   S    
C14   C22   A    
C13   H6    S    
C42   O24   S    
C82   H62   S    
C71   C72   S    
C29   C31   A    
C30   C32   A    
C61   H18   S    
C90   C91   S    
C82   H63   S    
C20   C26   A    
C43   O2    S    
C72   C73   S    
C91   H83   S    
C48   C50   A    
C70   H37   S    
C29   N3    A    
C18   C20   A    
C12   O18   A    
C69   C70   S    
C35   C41   A    
C9    C12   S    
C59   H13   S    
C60   H16   S    
C75   H50   S    
C81   H60   S    
C68   H33   S    
C7    C9    A    
C83   H65   S    
C76   H54   S    
Cu2   O23   S    
C69   H35   S    
C7    C20   A    
C58   O5    S    
C85   H70   S    
C12   O12   A    
C66   H29   S    
C68   O8    S    
C58   H9    S    
C38   O7    S    
Cu1   O22   S    
C77   O11   D    
C54   C57   A    
C28   H34   S    
C40   O9    S    
Cu1   N3    S    
