data_mof_unit_16733.cif
_audit_creation_date              2012-12-11T14:15:21-0500
_audit_creation_method            fapswitch 2.2
_symmetry_space_group_name_H-M    P1
_symmetry_Int_Tables_number       1
_space_group_crystal_system       triclinic
_cell_length_a                    11.194895
_cell_length_b                    12.63995
_cell_length_c                    23.489794
_cell_angle_alpha                 90.304052
_cell_angle_beta                  96.708906
_cell_angle_gamma                 68.671095
_cell_volume                      3072.5286751

loop_
_atom_site_label
_atom_site_type_symbol
_atom_type_description
_atom_site_fract_x
_atom_site_fract_y
_atom_site_fract_z
_atom_type_partial_charge
C1    C     C_R   0.149121 0.617583 0.428996 0.550724
C2    C     C_R   0.578325 0.600376 0.329487 0.354935
C3    C     C_R   0.646495 0.762423 0.327668 0.021927
C4    C     C_R   0.601232 0.780537 0.268497 0.015278
C5    C     C_R   0.554989 0.701360 0.239857 -0.039305
C6    C     C_R   0.536048 0.702639 0.179719 0.074752
C7    C     C_R   0.580404 0.878220 0.177295 -0.158262
C8    C     C_R   0.607518 0.871546 0.236584 -0.105269
C9    C     C_1   0.239248 0.159875 0.123669 0.011905
C10   C     C_2   0.199079 0.225935 0.229157 0.107863
C11   C     C_2   0.150346 0.169083 0.262312 -0.095922
C12   C     C_R   0.740902 0.609129 0.406949 0.576117
C13   C     C_1   0.130482 0.199313 0.320745 0.011425
C14   C     C_1   0.219582 0.192640 0.171224 -0.007291
C15   C     C_1   0.115646 0.231396 0.368777 0.047367
C16   C     C_1   0.166404 0.747856 0.123022 0.028172
C17   C     C_2   0.147104 0.679202 0.226761 -0.092885
C18   C     C_2   0.216984 0.701180 0.272373 -0.109951
C19   C     C_1   0.208398 0.665391 0.329499 0.023074
C20   C     C_1   0.155005 0.716296 0.169794 -0.015970
C21   C     C_1   0.191066 0.639629 0.376383 0.063239
C22   C     C_1   0.626654 0.756823 0.864547 0.045372
C23   C     C_R   0.101187 0.281812 0.423635 0.552082
C24   C     C_2   0.696880 0.712381 0.760617 -0.093853
C25   C     C_2   0.611684 0.700851 0.718302 -0.090755
C26   C     C_1   0.650255 0.668844 0.662330 -0.019074
C27   C     C_1   0.661243 0.737475 0.817582 0.006022
C28   C     C_1   0.689574 0.639852 0.616912 0.026038
C29   C     C_R   0.192749 0.192189 0.857729 0.009417
C30   C     C_R   0.102327 0.242648 0.644566 0.001415
C31   C     C_R   0.000876 0.184984 0.718185 0.126435
C32   C     C_R   0.008711 0.202507 0.660288 0.403175
C33   C     C_R   0.182803 0.271302 0.686687 -0.183446
C34   C     C_R   0.150893 0.618021 0.590487 0.549721
C35   C     C_R   0.174743 0.256114 0.743968 -0.029865
C36   C     C_R   0.088813 0.206502 0.760344 -0.022028
C37   C     C_R   0.098919 0.174504 0.817913 -0.123172
C38   C     C_R   0.259081 0.261450 0.842379 0.101684
C39   C     C_R   0.252095 0.290392 0.785080 -0.083483
C40   C     C_R   0.126679 0.745888 0.851983 -0.005763
C41   C     C_R   0.195150 0.642672 0.648491 -0.048340
C42   C     C_R   0.310599 0.566765 0.741987 0.348588
C43   C     C_R   0.296018 0.558537 0.682543 -0.128559
C44   C     C_R   0.114879 0.739386 0.674461 0.074830
C45   C     C_R   0.749417 0.602519 0.565906 0.539243
C46   C     C_R   0.112436 0.734553 0.733456 -0.035113
C47   C     C_R   0.215047 0.651520 0.767867 0.016346
C48   C     C_R   0.222434 0.658760 0.827277 -0.110935
C49   C     C_R   0.011485 0.811519 0.817731 0.080046
C50   C     C_R   0.007328 0.808501 0.758563 -0.100027
C51   C     C_R   0.266332 0.109665 0.069478 0.536459
C52   C     C_R   0.532386 0.798232 0.085100 0.562550
C53   C     C_R   0.189375 0.787190 0.069581 0.542483
C54   C     C_R   0.239688 0.118916 0.909322 0.557167
C55   C     C_R   0.573674 0.776492 0.918060 0.563368
C56   C     C_R   0.098831 0.281476 0.586161 0.574492
C57   C     C_R   0.163283 0.785613 0.907448 0.559096
C58   C     C_R   0.551203 0.792156 0.148087 0.006091
C59   C     C_R   0.650972 0.661325 0.355459 0.015475
C60   C     C_R   0.532004 0.619797 0.272348 -0.096465
Cr1   Cr    Cr6+3 0.189770 0.415650 0.511620 1.079900
Cr2   Cr    Cr6+3 0.930400 0.667320 0.496770 1.104065
Cr3   Cr    Cr6+3 0.879870 0.417010 0.491650 1.150727
Cr4   Cr    Cr6+3 0.149500 0.973980 0.985330 1.069759
Cr5   Cr    Cr6+3 0.457000 0.976510 0.994660 1.084694
Cr6   Cr    Cr6+3 0.411170 0.724270 0.995270 1.088208
H1    H     H_    0.084166 0.632647 0.231930 0.165196
H2    H     H_    0.513993 0.712078 0.725957 0.153375
H3    H     H_    0.794900 0.700040 0.753042 0.142003
H4    H     H_    0.044833 0.124876 0.830682 0.175168
H5    H     H_    0.310828 0.335779 0.772492 0.195989
H6    H     H_    0.249236 0.309894 0.675069 0.157563
H7    H     H_    0.307755 0.602841 0.853811 0.209588
H8    H     H_    0.587815 0.948989 0.154106 0.156797
H9    H     H_    0.920646 0.862967 0.732539 0.183376
H10   H     H_    0.360957 0.485151 0.663374 0.167173
H11   H     H_    0.481450 0.566972 0.254285 0.194576
H12   H     H_    0.637076 0.936821 0.256338 0.169811
H13   H     H_    0.124241 0.099211 0.245363 0.114139
H14   H     H_    0.276678 0.750725 0.267198 0.128783
O1    O     O_R   0.196340 0.303200 0.448500 -0.482669
O2    O     O_R   0.811960 0.658090 0.547150 -0.490741
O3    O     O_R   0.757930 0.506140 0.547110 -0.481556
O4    O     O_R   0.988670 0.321620 0.556040 -0.436846
O5    O     O_3   0.000020 0.499990 0.500010 -0.293903
O6    O     O_R   0.113660 0.883270 0.047820 -0.500098
O7    O     O_R   0.186930 0.068530 0.043990 -0.497933
O8    O     O_R   0.377770 0.089040 0.054220 -0.503854
O9    O     O_R   0.562800 0.872960 0.056970 -0.498760
O10   O     O_R   0.555390 0.700940 0.062700 -0.462600
O11   O     O_R   0.295020 0.731920 0.049950 -0.492140
O12   O     O_R   0.199310 0.519670 0.454880 -0.475707
O13   O     O_R   0.094290 0.884230 0.921550 -0.468644
O14   O     O_R   0.168980 0.069410 0.926940 -0.499972
O15   O     O_R   0.358400 0.089990 0.927950 -0.470558
O16   O     O_R   0.544850 0.873850 0.939920 -0.472721
O17   O     O_R   0.536020 0.701900 0.936430 -0.489663
O18   O     O_R   0.277070 0.732810 0.932890 -0.505483
O19   O     O_3   0.339220 0.891590 0.991750 -0.300459
O20   O     O_R   0.045660 0.691380 0.441680 -0.486957
O21   O     O_R   0.811930 0.659460 0.430950 -0.487569
O22   O     O_R   0.757900 0.507620 0.421760 -0.430574
O23   O     O_R   0.988630 0.322990 0.439840 -0.485894
O24   O     O_R   0.196380 0.301720 0.573850 -0.523309
O25   O     O_R   0.199350 0.518300 0.571080 -0.511552
O26   O     O_R   0.045700 0.689900 0.567030 -0.469301
I1    I     I_    0.505506 0.555500 0.141176 -0.272289
I2    I     I_    0.375489 0.321931 0.901993 -0.229635
I3    I     I_    0.844302 0.141307 0.738635 -0.190058
F1    F     F_    0.922216 0.184611 0.619555 -0.569758
I4    I     I_    0.841239 0.918771 0.851158 -0.288731
F2    F     F_    0.412512 0.487965 0.774118 -0.627296
I5    I     I_    0.010734 0.898824 0.627740 -0.201782
F3    F     F_    0.558993 0.515996 0.358165 -0.589486
I6    I     I_    0.704307 0.887493 0.373504 -0.285717
I7    I     I_    0.257166 0.360493 0.259532 -0.305317

loop_
_geom_bond_atom_site_label_1
_geom_bond_atom_site_label_2
_ccdc_geom_bond_type
C1    C21   S    
C2    F3    S    
C6    C58   A    
C52   O10   A    
C45   O2    A    
C9    C51   S    
C24   C27   S    
C4    C8    A    
C7    C8    A    
Cr6   O10   S    
Cr5   O9    S    
C34   C41   S    
C32   F1    S    
Cr6   O17   S    
C36   C37   A    
C19   C21   T    
Cr4   O13   S    
C38   C39   A    
C2    C60   A    
C29   C54   S    
C40   C49   A    
C17   C20   S    
C18   C19   S    
C42   F2    S    
C16   C53   S    
C33   H6    S    
C12   C59   S    
Cr4   O19   S    
C23   O23   A    
C31   C32   A    
C29   C38   A    
C53   O11   A    
C6    I1    S    
C53   O6    A    
C11   H13   S    
Cr1   O25   S    
C7    C58   A    
C5    C60   A    
Cr1   O12   S    
C49   I4    S    
Cr2   O21   S    
C15   C23   S    
Cr2   O2    S    
C57   O13   A    
C37   H4    S    
Cr3   O5    S    
C8    H12   S    
C41   C43   A    
C52   O9    A    
C45   O3    A    
C25   H2    S    
Cr3   O22   S    
C1    O20   A    
Cr4   O6    S    
C44   C46   A    
C24   H3    S    
C56   O4    A    
C7    H8    S    
Cr5   O16   S    
C52   C58   S    
Cr2   O5    S    
C60   H11   S    
C17   H1    S    
C34   O26   A    
Cr1   O24   S    
C24   C25   D    
Cr5   O19   S    
Cr3   O23   S    
C10   C14   S    
C51   O7    A    
C28   C45   S    
C2    C59   A    
C4    C5    A    
C25   C26   S    
C30   C56   S    
Cr3   O3    S    
C35   C36   A    
Cr6   O19   S    
C35   C39   A    
C9    C14   T    
C12   O22   A    
C47   C48   A    
C16   C20   T    
C55   O17   A    
C17   C18   D    
C31   I3    S    
C56   O24   A    
C54   O15   A    
Cr6   O11   S    
Cr1   O5    S    
Cr2   O20   S    
C44   I5    S    
C1    O12   A    
C22   C27   T    
C13   C15   T    
C41   C44   A    
C42   C43   A    
C3    C4    A    
C10   I7    S    
Cr5   O8    S    
C43   H10   S    
C40   C48   A    
C46   C47   A    
C40   C57   S    
Cr4   O7    S    
C30   C33   A    
C34   O25   A    
C48   H7    S    
C23   O1    A    
C55   O16   A    
C51   O8    A    
C22   C55   S    
Cr2   O26   S    
C46   C50   A    
C26   C28   T    
Cr3   O4    S    
Cr6   O18   S    
Cr4   O14   S    
C12   O21   A    
Cr1   O1    S    
C50   H9    S    
C30   C32   A    
C11   C13   S    
C5    C6    A    
C57   O18   A    
C33   C35   A    
C42   C47   A    
C38   I2    S    
C54   O14   A    
C10   C11   D    
Cr5   O15   S    
C18   H14   S    
C49   C50   A    
C29   C37   A    
C39   H5    S    
C31   C36   A    
C3    I6    S    
C3    C59   A    
