data_mof_unit_18122.cif
_audit_creation_date              2012-12-11T15:55:38-0500
_audit_creation_method            fapswitch 2.2
_symmetry_space_group_name_H-M    P1
_symmetry_Int_Tables_number       1
_space_group_crystal_system       triclinic
_cell_length_a                    6.940051
_cell_length_b                    14.539735
_cell_length_c                    16.090447
_cell_angle_alpha                 89.979569
_cell_angle_beta                  90.050051
_cell_angle_gamma                 89.966406
_cell_volume                      1623.62972715

loop_
_atom_site_label
_atom_site_type_symbol
_atom_type_description
_atom_site_fract_x
_atom_site_fract_y
_atom_site_fract_z
_atom_type_partial_charge
O1    O     O_R   0.505680 0.583900 0.413320 -0.534261
O2    O     O_R   0.176010 0.594950 0.586080 -0.539285
O3    O     O_R   0.005680 0.416100 0.586680 -0.542533
C1    C     C_R   0.345069 0.617208 0.614985 0.690425
O4    O     O_R   0.175960 0.594930 0.413930 -0.513509
O5    O     O_R   0.005640 0.416080 0.413300 -0.543321
C2    C     C_R   0.344536 0.618790 0.386224 0.740485
O6    O     O_R   0.505720 0.583920 0.586700 -0.542131
O7    O     O_3   0.339190 0.441320 0.500000 -0.380640
V1    V     V_3+5 0.064350 0.510890 0.500000 1.470200
O8    O     O_R   0.675920 0.405050 0.413920 -0.547277
C3    C     C_R   0.844958 0.382785 0.385009 0.681576
O9    O     O_R   0.675960 0.405070 0.586070 -0.546214
C4    C     C_R   0.844780 0.383021 0.614891 0.683106
V2    V     V_3+5 0.564340 0.489110 0.500000 1.427222
O10   O     O_3   0.839370 0.558680 0.500000 -0.344502
C5    C     C_R   0.008717 0.251939 0.689175 0.110907
C6    C     C_R   0.852775 0.312546 0.681464 -0.108890
C7    C     C_R   0.700589 0.302666 0.738642 -0.175965
H1    H     H_    0.577798 0.348185 0.735410 0.128511
C8    C     C_R   0.712096 0.238730 0.804387 -0.178202
H2    H     H_    0.596831 0.236103 0.849463 0.128883
C9    C     C_R   0.876754 0.183268 0.815238 -0.111154
C10   C     C_R   0.020528 0.188985 0.754442 0.108828
C11   C     C_3   0.231223 0.204627 0.764702 -0.414271
C12   C     C_3   0.218433 0.272787 0.693330 -0.399311
H3    H     H_    0.317246 0.142356 0.749515 0.178584
H4    H     H_    0.265452 0.237475 0.825286 0.169043
H5    H     H_    0.296353 0.249763 0.636700 0.179364
H6    H     H_    0.246073 0.345090 0.712330 0.163638
C13   C     C_R   0.046766 0.224460 0.217763 -0.152418
H7    H     H_    0.187417 0.205855 0.194023 0.116042
C14   C     C_R   0.035610 0.288019 0.282981 -0.148354
H8    H     H_    0.168244 0.316562 0.307283 0.116304
C15   C     C_R   0.856145 0.314408 0.316189 -0.046447
C16   C     C_R   0.688157 0.275430 0.282281 -0.154206
H9    H     H_    0.547507 0.294030 0.306026 0.115654
C17   C     C_R   0.699314 0.211869 0.217064 -0.144899
H10   H     H_    0.566680 0.183322 0.192766 0.119101
C18   C     C_R   0.878776 0.185503 0.183837 -0.045603
C19   C     C_R   0.188234 0.724896 0.717325 -0.144895
H11   H     H_    0.047635 0.706584 0.693282 0.121428
C20   C     C_R   0.199312 0.788447 0.782544 -0.151051
H12   H     H_    0.066695 0.817285 0.806550 0.119595
C21   C     C_R   0.378701 0.814449 0.816128 -0.048293
C22   C     C_R   0.546705 0.775175 0.782545 -0.155175
H13   H     H_    0.687307 0.793502 0.806571 0.116709
C23   C     C_R   0.535626 0.711623 0.717327 -0.143434
H14   H     H_    0.668247 0.682802 0.693307 0.120677
C24   C     C_R   0.356231 0.685577 0.683782 -0.044343
C25   C     C_R   0.201547 0.751471 0.302100 0.261567
C26   C     C_R   0.214834 0.813053 0.235371 -0.169787
H15   H     H_    0.096910 0.860387 0.224330 0.152647
C27   C     C_R   0.379302 0.816076 0.184692 -0.102474
C28   C     C_R   0.532223 0.755854 0.202051 -0.131598
H16   H     H_    0.661346 0.756626 0.164295 0.132822
C29   C     C_R   0.518863 0.692585 0.267437 -0.146943
H17   H     H_    0.638145 0.645861 0.277684 0.153951
C30   C     C_R   0.353769 0.688666 0.318291 -0.108013
O11   O     O_R   0.229200 0.915950 0.913350 -0.540679
O12   O     O_R   0.559090 0.905000 0.086080 -0.540088
O13   O     O_R   0.729280 0.083880 0.086680 -0.540394
C31   C     C_R   0.390311 0.883065 0.115105 0.707763
O14   O     O_R   0.558920 0.904980 0.913920 -0.544250
O15   O     O_R   0.729110 0.083860 0.913300 -0.539639
C32   C     C_R   0.389859 0.882744 0.884994 0.685975
O16   O     O_R   0.229360 0.915970 0.086730 -0.540437
O17   O     O_3   0.395680 0.058580 0.000030 -0.372057
V3    V     V_3+5 0.670570 0.989070 0.999990 1.407369
O18   O     O_R   0.058820 0.094950 0.913870 -0.540520
C33   C     C_R   0.889667 0.117165 0.885247 0.696750
O19   O     O_R   0.058990 0.094970 0.086020 -0.544656
C34   C     C_R   0.889959 0.117174 0.114978 0.688531
V4    V     V_3+5 0.170560 0.010930 0.999930 1.402308
O20   O     O_3   0.895590 0.941310 0.999960 -0.369461
Br1   Br    Br    0.975825 0.762756 0.370627 -0.564385

loop_
_geom_bond_atom_site_label_1
_geom_bond_atom_site_label_2
_ccdc_geom_bond_type
C28   H16   S    
C19   H11   S    
C4    C6    S    
C15   C16   A    
C1    O6    A    
C21   C22   A    
C18   C34   S    
C11   H4    S    
C5    C12   S    
C16   H9    S    
C7    C8    A    
O5    C3    A    
C17   H10   S    
C29   C30   A    
C27   C31   S    
O17   V4    S    
V2    O10   S    
C13   C18   A    
C6    C7    A    
O12   C31   A    
C27   C28   A    
O8    V2    S    
C7    H1    S    
O17   V3    S    
O18   V4    S    
C9    C10   A    
C13   C14   A    
O13   C34   A    
O18   C33   A    
O1    V2    S    
O7    V1    S    
C23   C24   A    
O11   C32   A    
C8    H2    S    
C19   C20   A    
C2    C30   S    
C26   C27   A    
C5    C6    A    
C22   C23   A    
C8    C9    A    
C31   O16   A    
C5    C10   A    
V4    O20   S    
C25   C26   A    
C9    C33   S    
C10   C11   S    
O19   V4    S    
O4    C2    A    
C11   C12   S    
O15   C33   A    
O13   V3    S    
C1    C24   S    
O14   C32   A    
O2    C1    A    
C20   H12   S    
C13   H7    S    
C14   H8    S    
O16   V4    S    
O14   V3    S    
C25   Br1   S    
C3    C15   S    
C20   C21   A    
O3    C4    A    
C23   H14   S    
C12   H6    S    
O6    V2    S    
C28   C29   A    
C25   C30   A    
C16   C17   A    
O2    V1    S    
C19   C24   A    
C26   H15   S    
O12   V3    S    
C22   H13   S    
O1    C2    A    
O19   C34   A    
O5    V1    S    
O8    C3    A    
C11   H3    S    
O9    V2    S    
O7    V2    S    
O4    V1    S    
O3    V1    S    
V1    O10   S    
C17   C18   A    
C29   H17   S    
O15   V3    S    
O11   V4    S    
C14   C15   A    
V3    O20   S    
C12   H5    S    
C21   C32   S    
O9    C4    A    
