data_mof_unit_57444.cif
_audit_creation_date              2012-12-10T17:57:24-0500
_audit_creation_method            fapswitch 2.2
_symmetry_space_group_name_H-M    P1
_symmetry_Int_Tables_number       1
_space_group_crystal_system       triclinic
_cell_length_a                    9.528857
_cell_length_b                    10.811569
_cell_length_c                    13.378113
_cell_angle_alpha                 90.365992
_cell_angle_beta                  73.388784
_cell_angle_gamma                 90.12262
_cell_volume                      1320.69299795

loop_
_atom_site_label
_atom_site_type_symbol
_atom_type_description
_atom_site_fract_x
_atom_site_fract_y
_atom_site_fract_z
_atom_type_partial_charge
C1    C     C_R   0.500513 0.737717 0.499289 0.850536
C2    C     C_R   0.449022 0.416965 0.973533 -0.037891
C3    C     C_R   0.493548 0.425473 0.863241 0.047457
C4    C     C_R   0.555019 0.442098 0.027507 0.067741
C5    C     C_R   0.705246 0.449714 0.970868 0.179292
C6    C     C_R   0.748915 0.425975 0.864325 -0.242983
C7    C     C_R   0.644603 0.411298 0.811430 -0.133332
C8    C     C_R   0.515481 0.470034 0.134416 -0.260555
C9    C     C_R   0.770006 0.497601 0.128748 -0.192769
C10   C     C_R   0.385259 0.445350 0.809908 -0.106382
C11   C     C_R   0.629490 0.937648 0.451501 0.459982
C12   C     C_R   0.424011 0.483919 0.698912 0.803673
C13   C     C_R   0.626957 0.065801 0.456402 -0.298458
C14   C     C_R   0.497313 0.128419 0.506937 -0.195701
C15   C     C_R   0.368742 0.061683 0.556924 0.423099
C16   C     C_R   0.371046 0.933781 0.549528 -0.227545
C17   C     C_R   0.500732 0.871516 0.499189 -0.221412
C18   C     C_R   0.898476 0.575561 0.567034 0.544618
C19   C     C_R   0.048330 0.574677 0.566793 -0.130175
C20   C     C_R   0.100925 0.425459 0.433096 0.007348
C21   C     C_R   0.952238 0.425399 0.433179 -0.111133
C22   C     C_R   0.498537 0.262306 0.503200 0.790276
C23   C     C_R   0.577662 0.500338 0.299887 0.785435
C24   C     C_R   0.810392 0.480661 0.021291 -0.200907
C25   C     C_R   0.622211 0.490999 0.185995 -0.056681
C26   C     C_R   0.237521 0.426884 0.864317 -0.300532
C27   C     C_R   0.197893 0.389463 0.968032 -0.133896
C28   C     C_R   0.300988 0.383458 0.023510 0.398804
Cu1   Cu    Cu3+1 0.359340 0.499980 0.500000 0.953268
Cu2   Cu    Cu3+1 0.640660 0.500020 0.500000 0.995962
H1    H     H_    0.854054 0.516769 0.166693 0.161633
H2    H     H_    0.726225 0.116267 0.418690 0.180967
H3    H     H_    0.272527 0.882631 0.587788 0.185514
H4    H     H_    0.084922 0.634070 0.619780 0.125717
H5    H     H_    0.178202 0.365584 0.379444 0.157252
H6    H     H_    0.917582 0.365508 0.379614 0.154484
H7    H     H_    0.864023 0.421422 0.821225 0.139452
H8    H     H_    0.923399 0.493069 0.976969 0.130636
H9    H     H_    0.401632 0.477896 0.178340 0.199265
H10   H     H_    0.152960 0.435145 0.825208 0.168395
H11   H     H_    0.086532 0.361434 0.005731 0.162556
H12   H     H_    0.685929 0.384307 0.730725 0.182140
N1    N     N_R   0.147940 0.499970 0.499970 -0.176853
N2    N     N_R   0.852060 0.500060 0.499990 -0.182227
O1    O     O_R   0.381250 0.680340 0.500010 -0.594590
O2    O     O_R   0.618820 0.680370 0.500010 -0.482063
O3    O     O_R   0.323240 0.499950 0.650980 -0.591105
O4    O     O_R   0.560810 0.499980 0.650980 -0.548124
O5    O     O_R   0.381180 0.319630 0.499990 -0.569671
O6    O     O_R   0.618750 0.319660 0.499990 -0.593805
O7    O     O_R   0.439190 0.500020 0.349020 -0.585334
O8    O     O_R   0.676760 0.500050 0.349020 -0.593576
O9    O     O_3   0.241063 0.116700 0.615862 -0.714975
H13   H     H_    0.266430 0.193537 0.647455 0.324553
O10   O     O_3   0.798170 0.651903 0.633858 -0.685533
H14   H     H_    0.848247 0.699350 0.677344 0.295009
O11   O     O_3   0.255503 0.331864 0.121478 -0.766610
H15   H     H_    0.339116 0.285397 0.132913 0.320522
O12   O     O_3   0.759831 0.877903 0.403844 -0.548871
C29   C     C_3   0.768030 0.856524 0.298131 0.072754
H16   H     H_    0.773801 0.945726 0.255908 0.138914
H17   H     H_    0.672113 0.802166 0.290317 0.118821
C30   C     C_3   0.905795 0.782586 0.247132 -0.739760
H18   H     H_    0.903133 0.693196 0.288129 0.255526
H19   H     H_    0.912810 0.763754 0.164143 0.193165
H20   H     H_    0.004207 0.835539 0.250829 0.248681

loop_
_geom_bond_atom_site_label_1
_geom_bond_atom_site_label_2
_ccdc_geom_bond_type
C2    C4    A    
O10   H14   S    
C30   H19   S    
C9    C24   A    
C6    C7    A    
C8    H9    S    
C18   N2    A    
C16   H3    S    
C21   N2    A    
C4    C8    A    
C27   H11   S    
C13   H2    S    
C24   H8    S    
C22   O6    A    
C12   O4    A    
Cu2   N2    S    
C10   C26   A    
C2    C3    A    
C23   O8    A    
C6    H7    S    
C9    C25   A    
O12   C29   S    
C3    C10   A    
Cu1   O5    S    
C13   C14   A    
Cu1   N1    S    
C8    C25   A    
C11   C13   A    
C1    O1    A    
C26   C27   A    
C5    C6    A    
C5    C24   A    
C10   C12   S    
C18   O10   S    
Cu1   O3    S    
C12   O3    A    
C11   O12   S    
C4    C5    A    
C15   O9    S    
Cu2   O4    S    
C19   N1    A    
C3    C7    A    
C23   C25   S    
Cu2   O6    S    
C14   C22   S    
C29   C30   S    
C1    O2    A    
C30   H20   S    
C9    H1    S    
Cu1   Cu2   S    
C30   H18   S    
C26   H10   S    
C20   N1    A    
C20   C21   A    
C28   O11   S    
C29   H17   S    
C18   C19   A    
Cu1   O7    S    
C7    H12   S    
C22   O5    A    
C27   C28   A    
C21   H6    S    
Cu2   O8    S    
C14   C15   A    
C29   H16   S    
C2    C28   A    
O11   H15   S    
O9    H13   S    
C20   H5    S    
C1    C17   S    
Cu2   O2    S    
C11   C17   A    
C23   O7    A    
C15   C16   A    
Cu1   O1    S    
C16   C17   A    
C19   H4    S    
