data_mof_unit_33789.cif
_audit_creation_date              2012-12-10T16:37:26-0500
_audit_creation_method            fapswitch 2.2
_symmetry_space_group_name_H-M    P1
_symmetry_Int_Tables_number       1
_space_group_crystal_system       triclinic
_cell_length_a                    16.926265
_cell_length_b                    16.641842
_cell_length_c                    16.713033
_cell_angle_alpha                 65.992558
_cell_angle_beta                  65.693975
_cell_angle_gamma                 65.765223
_cell_volume                      3748.64989183

loop_
_atom_site_label
_atom_site_type_symbol
_atom_type_description
_atom_site_fract_x
_atom_site_fract_y
_atom_site_fract_z
_atom_type_partial_charge
C1    C     C_R   0.399052 0.062916 0.658233 0.117765
C2    C     C_R   0.406586 0.657629 0.046470 0.127078
C3    C     C_R   0.101119 0.516679 0.298237 0.128048
C4    C     C_R   0.068133 0.391041 0.664875 0.124261
C5    C     C_R   0.958724 0.179941 0.439772 0.894729
C6    C     C_R   0.041227 0.819868 0.560744 0.950947
C7    C     C_R   0.179230 0.438322 0.960000 0.924816
C8    C     C_R   0.823500 0.569362 0.020508 0.996571
C9    C     C_R   0.439049 0.960056 0.179440 0.925036
C10   C     C_R   0.561505 0.039803 0.820252 0.922083
C11   C     C_R   0.561876 0.820368 0.037462 0.924365
C12   C     C_R   0.596476 0.945150 0.343091 0.128115
C13   C     C_R   0.438700 0.179444 0.959037 0.923667
C14   C     C_R   0.042039 0.560530 0.820222 0.922890
C15   C     C_R   0.977345 0.430925 0.177351 0.992916
C16   C     C_R   0.820282 0.039336 0.562009 0.935318
C17   C     C_R   0.176868 0.978642 0.430442 0.969357
C18   C     C_R   0.445043 0.073911 0.704330 -0.200135
C19   C     C_R   0.552390 0.925846 0.300795 -0.212302
C20   C     C_R   0.078686 0.701909 0.441777 -0.227622
C21   C     C_R   0.934878 0.298133 0.553812 -0.208847
C22   C     C_R   0.739377 0.495723 0.949193 -0.225356
C23   C     C_R   0.071750 0.653243 0.394619 0.114673
C24   C     C_R   0.290411 0.556468 0.929860 -0.205599
C25   C     C_R   0.261504 0.068528 0.483076 -0.221263
C26   C     C_R   0.709324 0.068452 0.443293 -0.201779
C27   C     C_R   0.554424 0.303740 0.899676 -0.197148
C28   C     C_R   0.450680 0.700236 0.064884 -0.213243
C29   C     C_R   0.076644 0.475058 0.257561 -0.222947
C30   C     C_R   0.082674 0.438970 0.707006 -0.198551
C31   C     C_R   0.536475 0.047580 0.530794 -0.064066
C32   C     C_R   0.450203 0.011806 0.440654 -0.065760
C33   C     C_R   0.060553 0.524951 0.532954 -0.062470
C34   C     C_R   0.960062 0.336998 0.596825 0.115210
C35   C     C_R   0.024498 0.433346 0.447933 -0.067945
C36   C     C_R   0.552279 0.555891 0.983607 -0.063006
C37   C     C_R   0.463289 0.467008 0.949711 -0.063847
C38   C     C_R   0.584976 0.029095 0.444941 0.057972
C39   C     C_R   0.397539 0.051878 0.513681 0.060324
C40   C     C_R   0.044866 0.437944 0.582107 0.057395
C41   C     C_R   0.063800 0.506245 0.393704 0.059748
C42   C     C_R   0.457444 0.591287 0.996848 0.058539
C43   C     C_R   0.558348 0.431299 0.934254 0.053517
C44   C     C_R   0.545301 0.996402 0.407918 0.057410
C45   C     C_R   0.697067 0.441771 0.945513 0.126976
C46   C     C_R   0.442590 0.055384 0.567783 0.059256
C47   C     C_R   0.416151 0.553262 0.967706 0.056202
C48   C     C_R   0.603622 0.476002 0.951982 0.052720
C49   C     C_R   0.011523 0.400500 0.543585 0.050006
C50   C     C_R   0.067096 0.561594 0.438417 0.060193
C51   C     C_R   0.538530 0.066059 0.669026 0.002780
C52   C     C_R   0.457487 0.951059 0.325303 -0.000090
C53   C     C_R   0.071785 0.666731 0.536030 0.000086
C54   C     C_R   0.956902 0.322849 0.458010 0.002128
C55   C     C_R   0.689694 0.567494 0.990681 -0.020321
C56   C     C_R   0.333943 0.602269 0.944802 0.116023
C57   C     C_R   0.325491 0.461313 0.938697 -0.008891
C58   C     C_R   0.312132 0.009443 0.426869 -0.021268
C59   C     C_R   0.672981 0.061105 0.537875 0.000785
C60   C     C_R   0.459640 0.331364 0.928496 -0.005677
C61   C     C_R   0.545306 0.675025 0.040517 -0.000452
C62   C     C_R   0.017135 0.420632 0.310329 -0.027908
C63   C     C_R   0.071593 0.534331 0.670614 -0.006225
C64   C     C_R   0.589239 0.067254 0.719521 -0.201663
C65   C     C_R   0.410539 0.938686 0.279153 -0.258924
C66   C     C_R   0.069983 0.718636 0.588116 -0.222164
C67   C     C_R   0.303139 0.091506 0.524626 0.124077
C68   C     C_R   0.937692 0.279926 0.412172 -0.183533
C69   C     C_R   0.729388 0.605456 0.023267 -0.235442
C70   C     C_R   0.277732 0.409576 0.934932 -0.200966
C71   C     C_R   0.271846 0.973865 0.393095 -0.229313
C72   C     C_R   0.720715 0.064890 0.589849 -0.211800
C73   C     C_R   0.408871 0.279907 0.931029 -0.208602
C74   C     C_R   0.591564 0.720968 0.054431 -0.253557
C75   C     C_R   0.975869 0.391539 0.271766 -0.235537
C76   C     C_R   0.070694 0.587878 0.719796 -0.197872
C77   C     C_R   0.674148 0.081773 0.674710 0.418538
C78   C     C_R   0.667415 0.051670 0.397219 0.123770
C79   C     C_R   0.323991 0.930924 0.324349 0.432497
C80   C     C_R   0.084378 0.674168 0.673926 0.415712
C81   C     C_R   0.929729 0.326026 0.325063 0.418279
C82   C     C_R   0.677124 0.675998 0.063430 0.421338
C83   C     C_R   0.322996 0.323748 0.919325 0.422551
C84   C     C_R   0.582525 0.058471 0.579265 0.061088
C85   C     C_R   0.406942 0.989206 0.398846 0.073827
C86   C     C_R   0.068625 0.575297 0.579517 0.065521
C87   C     C_R   0.998637 0.393048 0.405738 0.065913
C88   C     C_R   0.595525 0.598729 0.005774 0.074157
C89   C     C_R   0.603078 0.358177 0.892738 0.132704
C90   C     C_R   0.415761 0.419571 0.940007 0.059447
C91   C     C_3   0.751494 0.098612 0.752784 -0.211650
C92   C     C_3   0.325851 0.801062 0.307271 -0.302749
C93   C     C_3   0.096932 0.754127 0.753589 -0.187534
C94   C     C_3   0.879865 0.260221 0.262692 -0.208450
C95   C     C_3   0.673521 0.689926 0.195011 -0.276328
C96   C     C_3   0.245176 0.242465 0.907324 -0.192572
H1    H     H_    0.403821 0.091128 0.767501 0.173801
H2    H     H_    0.409652 0.749015 0.104397 0.159250
H3    H     H_    0.107324 0.483661 0.184757 0.170101
H4    H     H_    0.106815 0.399068 0.766359 0.171302
H5    H     H_    0.269922 0.102873 0.736673 0.169399
H6    H     H_    0.320083 0.988363 0.763909 0.179101
H7    H     H_    0.723796 0.920544 0.256998 0.184865
H8    H     H_    0.704099 0.831602 0.350587 0.178212
H9    H     H_    0.111898 0.730443 0.264016 0.175193
H10   H     H_    0.998651 0.757211 0.313356 0.181374
H11   H     H_    0.936968 0.249876 0.724907 0.169268
H12   H     H_    0.593187 0.886499 0.251874 0.156616
H13   H     H_    0.852247 0.348389 0.708251 0.190845
H14   H     H_    0.764058 0.316297 0.011906 0.173636
H15   H     H_    0.808320 0.345225 0.896916 0.185092
H16   H     H_    0.233067 0.719863 0.957835 0.171349
H17   H     H_    0.307172 0.726449 0.852086 0.182038
H18   H     H_    0.192175 0.149554 0.614217 0.198075
H19   H     H_    0.231805 0.224712 0.515603 0.189542
H20   H     H_    0.770776 0.034297 0.282667 0.176296
H21   H     H_    0.697986 0.141242 0.271871 0.173417
H22   H     H_    0.683094 0.370085 0.762306 0.189816
H23   H     H_    0.091787 0.767032 0.400991 0.181961
H24   H     H_    0.729762 0.282042 0.840940 0.170803
H25   H     H_    0.279469 0.744390 0.070192 0.181940
H26   H     H_    0.299510 0.652812 0.160160 0.182330
H27   H     H_    0.156543 0.606388 0.185174 0.199413
H28   H     H_    0.231565 0.507248 0.223380 0.187030
H29   H     H_    0.052065 0.276496 0.769339 0.172509
H30   H     H_    0.157790 0.266729 0.697184 0.181397
H31   H     H_    0.813155 0.122144 0.717790 0.160323
H32   H     H_    0.772205 0.021996 0.772593 0.165979
H33   H     H_    0.717042 0.120934 0.816029 0.157361
H34   H     H_    0.893869 0.251601 0.596301 0.161730
H35   H     H_    0.398299 0.784637 0.265811 0.134324
H36   H     H_    0.290252 0.773414 0.286266 0.179007
H37   H     H_    0.319240 0.765863 0.381431 0.163724
H38   H     H_    0.021529 0.773638 0.773404 0.156972
H39   H     H_    0.118206 0.817837 0.719860 0.172812
H40   H     H_    0.118830 0.719078 0.816607 0.155182
H41   H     H_    0.954070 0.231275 0.232588 0.157613
H42   H     H_    0.848361 0.290523 0.206357 0.171701
H43   H     H_    0.850173 0.204281 0.313256 0.159864
H44   H     H_    0.600384 0.729221 0.212239 0.124407
H45   H     H_    0.812101 0.474399 0.923772 0.186114
H46   H     H_    0.707257 0.711567 0.224054 0.183337
H47   H     H_    0.682431 0.614860 0.227987 0.166453
H48   H     H_    0.182523 0.275458 0.885812 0.153184
H49   H     H_    0.225816 0.223564 0.983536 0.159677
H50   H     H_    0.280288 0.178735 0.885438 0.156242
H51   H     H_    0.232606 0.598763 0.904540 0.172805
H52   H     H_    0.189804 0.101767 0.491753 0.172894
H53   H     H_    0.767677 0.092998 0.401562 0.158631
H54   H     H_    0.590851 0.247138 0.869711 0.167295
N1    N     N_3   0.311972 0.047916 0.709083 -0.455421
N2    N     N_3   0.310903 0.673526 0.089291 -0.466279
N3    N     N_3   0.172916 0.558306 0.244335 -0.456647
N4    N     N_3   0.089274 0.292888 0.700111 -0.465726
N5    N     N_3   0.692186 0.902927 0.327672 -0.451443
N6    N     N_3   0.058094 0.702492 0.306083 -0.453093
N7    N     N_3   0.922475 0.320918 0.693980 -0.458330
N8    N     N_3   0.747496 0.347426 0.950221 -0.453199
N9    N     N_3   0.301910 0.700745 0.921951 -0.453321
N10   N     N_3   0.251419 0.164839 0.566293 -0.448528
N11   N     N_3   0.702095 0.071359 0.299419 -0.452396
N12   N     N_3   0.690945 0.351121 0.827042 -0.457298
O1    O     O_R   0.982940 0.138950 0.510160 -0.643400
O2    O     O_R   0.982940 0.510160 0.138950 -0.628482
O3    O     O_R   0.861050 0.017060 0.489840 -0.641743
O4    O     O_R   0.138950 0.982940 0.510160 -0.647823
O5    O     O_R   0.867700 0.025880 0.612340 -0.633673
O6    O     O_R   0.132300 0.974120 0.387660 -0.571652
O7    O     O_R   0.025880 0.612340 0.867700 -0.641736
O8    O     O_R   0.974120 0.387660 0.132300 -0.626175
O9    O     O_R   0.612340 0.867700 0.025880 -0.572609
O10   O     O_R   0.387660 0.132300 0.974120 -0.634181
O11   O     O_R   0.387660 0.974120 0.132300 -0.574019
O12   O     O_R   0.017060 0.861050 0.489840 -0.634116
O13   O     O_R   0.612340 0.025880 0.867700 -0.632731
O14   O     O_R   0.132300 0.387660 0.974120 -0.641787
O15   O     O_R   0.867700 0.612340 0.025880 -0.559301
O16   O     O_R   0.974120 0.132300 0.387660 -0.649727
O17   O     O_R   0.025880 0.867700 0.612340 -0.626943
O18   O     O_3   0.694060 0.142998 0.695715 -0.606934
O19   O     O_3   0.285128 0.896856 0.291054 -0.572774
O20   O     O_3   0.142832 0.697011 0.694730 -0.602875
O21   O     O_3   0.856929 0.328920 0.304085 -0.602426
O22   O     O_3   0.714295 0.709227 0.099369 -0.570958
O23   O     O_R   0.138950 0.510160 0.982940 -0.661932
O24   O     O_3   0.300865 0.301746 0.860564 -0.600194
O25   O     O_R   0.861050 0.489840 0.017060 -0.658434
O26   O     O_R   0.510160 0.982940 0.138950 -0.630764
O27   O     O_R   0.489840 0.017060 0.861050 -0.643044
O28   O     O_R   0.489840 0.861050 0.017060 -0.636943
O29   O     O_R   0.510160 0.138950 0.982940 -0.629696
O30   O     O_R   0.017060 0.489840 0.861050 -0.654523
Zn1   Zn    Zn3+2 0.004880 0.004880 0.583590 0.893451
Zn2   Zn    Zn3+2 0.995120 0.995120 0.416410 0.925180
Zn3   Zn    Zn3+2 0.004880 0.583590 0.004880 0.933654
Zn4   Zn    Zn3+2 0.995120 0.416410 0.995120 0.880185
Zn5   Zn    Zn3+2 0.583590 0.004880 0.004880 0.942131
Zn6   Zn    Zn3+2 0.416410 0.995120 0.995120 0.927127

loop_
_geom_bond_atom_site_label_1
_geom_bond_atom_site_label_2
_ccdc_geom_bond_type
O27   Zn6   S    
C15   C75   S    
C95   H47   S    
C65   C79   A    
H16   N9    S    
C82   O22   S    
C6    O17   A    
C64   C77   A    
C41   C50   A    
C36   C42   A    
C92   H37   S    
C16   C72   S    
O4    Zn1   S    
C9    O26   A    
H13   N7    S    
O3    Zn2   S    
C7    C70   S    
C71   C79   A    
O2    Zn3   S    
C66   C80   A    
O7    Zn3   S    
C36   C88   A    
C11   O9    A    
C96   H49   S    
O16   Zn2   S    
C1    C18   A    
C26   C78   A    
C91   H31   S    
C37   C90   A    
C68   C81   A    
C5    O1    A    
C52   C85   A    
C92   H36   S    
H15   N8    S    
O23   Zn3   S    
C4    N4    S    
C56   N9    S    
C27   C60   A    
C5    C68   S    
O17   Zn1   S    
C54   C87   A    
O25   Zn4   S    
C58   C71   A    
C54   C68   A    
C63   C76   A    
O1    Zn1   S    
C16   O5    A    
C40   C49   A    
C30   H4    S    
C60   C73   A    
C3    N3    S    
C12   C19   A    
C32   C39   A    
C55   C88   A    
C3    C29   A    
O13   Zn5   S    
C69   C82   A    
C35   C87   A    
C19   C52   A    
C13   O10   A    
C3    C41   A    
C4    C40   A    
C24   C57   A    
C31   C46   A    
C25   C67   A    
C35   C49   A    
C83   O24   S    
O10   Zn6   S    
C53   C86   A    
C18   H1    S    
C80   O20   S    
C57   C70   A    
C37   C47   A    
C43   C48   A    
C1    N1    S    
H14   N8    S    
H24   N12   S    
C59   C72   A    
C14   O30   A    
C28   C61   A    
C93   H40   S    
O6    Zn2   S    
C23   N6    S    
C91   O18   S    
C94   H43   S    
O5    Zn1   S    
C74   C82   A    
C14   O7    A    
C35   C41   A    
C8    O15   A    
H11   N7    S    
C18   C51   A    
C8    O25   A    
C2    N2    S    
C21   H34   S    
C27   C89   A    
C33   C40   A    
C57   C90   A    
C29   H3    S    
C77   O18   S    
C96   O24   S    
H20   N11   S    
C92   H35   S    
C59   C84   A    
C93   H38   S    
C91   H32   S    
C8    C69   S    
C75   C81   A    
C23   C50   A    
C21   C34   A    
C6    O12   A    
H21   N11   S    
C33   C50   A    
C11   C74   S    
O14   Zn4   S    
C31   C84   A    
C79   O19   S    
C15   O8    A    
H26   N2    S    
C37   C43   A    
C33   C86   A    
C38   C44   A    
C72   C77   A    
C70   C83   A    
C61   C88   A    
C96   H48   S    
C93   O20   S    
C15   O2    A    
C20   C23   A    
C16   O3    A    
C7    O14   A    
C22   C45   A    
C95   H44   S    
C43   C89   A    
H17   N9    S    
C9    O11   A    
C53   C66   A    
C45   N8    S    
H18   N10   S    
C67   N10   S    
C95   H46   S    
C39   C46   A    
H30   N4    S    
H7    N5    S    
C13   C73   S    
O12   Zn2   S    
C27   H54   S    
H10   N6    S    
C63   C86   A    
C94   H42   S    
C62   C75   A    
C76   C80   A    
C25   C58   A    
C81   O21   S    
C12   N5    S    
C58   C85   A    
O30   Zn4   S    
C89   N12   S    
C96   H50   S    
H29   N4    S    
O28   Zn6   S    
H27   N3    S    
C45   C48   A    
C28   H2    S    
C10   O13   A    
C94   H41   S    
C29   C62   A    
H22   N12   S    
C34   C49   A    
O15   Zn3   S    
O11   Zn6   S    
C39   C67   A    
C7    O23   A    
C26   H53   S    
C10   C64   S    
C51   C64   A    
O29   Zn5   S    
C20   C53   A    
C93   H39   S    
C24   H51   S    
H25   N2    S    
C17   C71   S    
C22   C55   A    
C91   H33   S    
C60   C90   A    
C61   C74   A    
C24   C56   A    
C38   C78   A    
C62   C87   A    
H6    N1    S    
C13   O29   A    
C31   C38   A    
H19   N10   S    
C17   O4    A    
C11   O28   A    
C55   C69   A    
H28   N3    S    
O9    Zn5   S    
C19   H12   S    
O8    Zn4   S    
C21   C54   A    
O26   Zn5   S    
C2    C42   A    
C32   C85   A    
C22   H45   S    
C1    C46   A    
H5    N1    S    
C10   O27   A    
C36   C48   A    
C25   H52   S    
C42   C47   A    
H8    N5    S    
C95   O22   S    
C9    C65   S    
C5    O16   A    
C34   N7    S    
C6    C66   S    
H9    N6    S    
C32   C44   A    
C78   N11   S    
C12   C44   A    
C94   O21   S    
C17   O6    A    
C26   C59   A    
C2    C28   A    
C92   O19   S    
C30   C63   A    
C51   C84   A    
C73   C83   A    
C20   H23   S    
C4    C30   A    
C52   C65   A    
C14   C76   S    
C47   C56   A    
