data_mof_unit_14897.cif
_audit_creation_date              2012-12-10T17:07:44-0500
_audit_creation_method            fapswitch 2.2
_symmetry_space_group_name_H-M    P1
_symmetry_Int_Tables_number       1
_space_group_crystal_system       triclinic
_cell_length_a                    10.798665
_cell_length_b                    10.812651
_cell_length_c                    10.030972
_cell_angle_alpha                 90.10048
_cell_angle_beta                  88.824089
_cell_angle_gamma                 90.737934
_cell_volume                      1170.89323581

loop_
_atom_site_label
_atom_site_type_symbol
_atom_type_description
_atom_site_fract_x
_atom_site_fract_y
_atom_site_fract_z
_atom_type_partial_charge
C1    C     C_R   0.504411 0.263250 0.498901 0.935447
C2    C     C_2   0.543298 0.590302 0.069359 -0.083577
C3    C     C_R   0.257774 0.498025 0.502006 0.916587
C4    C     C_R   0.505063 0.737651 0.499915 0.857649
C5    C     C_R   0.741610 0.492201 0.499582 0.879440
C6    C     C_3   0.069067 0.403000 0.622853 0.128390
C7    C     C_3   0.924707 0.390878 0.603104 -0.067679
C8    C     C_3   0.073972 0.639424 0.525970 0.125154
C9    C     C_3   0.073934 0.444521 0.372366 -0.494586
C10   C     C_3   0.121039 0.498571 0.508815 -0.105121
C11   C     C_3   0.096305 0.437250 0.772303 -0.784385
C12   C     C_3   0.877824 0.494288 0.502470 0.043924
C13   C     C_2   0.119009 0.724533 0.408045 0.856028
C14   C     C_3   0.863487 0.729518 0.441379 -0.732298
C15   C     C_3   0.417462 0.899994 0.288672 -0.740023
C16   C     C_2   0.627016 0.911545 0.603908 0.853375
C17   C     C_2   0.627874 0.111029 0.282451 0.950477
C18   C     C_2   0.633361 0.684299 0.115484 0.924012
C19   C     C_2   0.130904 0.274969 0.605087 0.861960
C20   C     C_2   0.391106 0.437082 0.110024 1.055170
C21   C     C_3   0.847673 0.355907 0.731181 -0.845340
C22   C     C_3   0.135511 0.706167 0.647906 -0.847422
C23   C     C_3   0.924243 0.633922 0.537654 0.198324
C24   C     C_3   0.873449 0.679128 0.676855 -0.754512
C25   C     C_3   0.881903 0.339423 0.290760 -0.845532
C26   C     C_3   0.933806 0.457401 0.360460 -0.110928
C27   C     C_2   0.511401 0.937308 0.391667 0.060799
C28   C     C_2   0.542289 0.866353 0.496903 -0.204559
C29   C     C_2   0.544330 0.066268 0.391810 0.055839
C30   C     C_2   0.497978 0.132360 0.494169 -0.384734
C31   C     C_2   0.513749 0.598516 0.924243 -0.110236
H1    H     H_    0.916981 0.532281 0.288410 0.230958
H2    H     H_    0.030749 0.500836 0.818993 0.215135
H3    H     H_    0.192323 0.744685 0.221892 0.357333
H4    H     H_    0.884928 0.825955 0.472123 0.299616
H5    H     H_    0.894056 0.721161 0.336020 0.245558
H6    H     H_    0.761282 0.722842 0.444714 0.239276
H7    H     H_    0.388004 0.980591 0.228971 0.254404
H8    H     H_    0.455363 0.831443 0.217673 0.264104
H9    H     H_    0.334107 0.862517 0.340514 0.256561
H10   H     H_    0.777008 0.014161 0.652903 0.351660
H11   H     H_    0.792397 0.091305 0.186451 0.337237
H12   H     H_    0.447188 0.086818 0.575234 0.153763
H13   H     H_    0.710099 0.854056 0.089417 0.366600
H14   H     H_    0.266356 0.161309 0.661808 0.343423
H15   H     H_    0.218236 0.445848 0.038427 0.324687
H16   H     H_    0.829285 0.434928 0.798284 0.261339
H17   H     H_    0.757649 0.312030 0.705233 0.258118
H18   H     H_    0.895394 0.283383 0.788159 0.238181
H19   H     H_    0.112537 0.667490 0.746035 0.250852
H20   H     H_    0.237822 0.710591 0.636683 0.238486
H21   H     H_    0.106868 0.804254 0.655272 0.262063
H22   H     H_    0.771470 0.687893 0.679790 0.267652
H23   H     H_    0.513858 0.688060 0.875916 0.239933
H24   H     H_    0.897349 0.620773 0.760351 0.224859
H25   H     H_    0.906495 0.774139 0.699956 0.240701
H26   H     H_    0.902498 0.252925 0.344364 0.281677
H27   H     H_    0.781453 0.341865 0.273557 0.281386
H28   H     H_    0.926487 0.331254 0.190313 0.242367
H29   H     H_    0.518700 0.417634 0.896415 0.184934
H30   H     H_    0.906915 0.304474 0.548367 0.208579
H31   H     H_    0.117556 0.482603 0.280845 0.267205
H32   H     H_    0.101795 0.346514 0.363213 0.229668
H33   H     H_    0.087988 0.354029 0.837021 0.224890
H34   H     H_    0.189792 0.473711 0.791162 0.289605
N1    N     N_2   0.501360 0.501330 0.852150 -0.200203
N2    N     N_2   0.501390 0.501360 0.147810 -0.189698
O1    O     O_R   0.499980 0.319060 0.613040 -0.588850
O2    O     O_R   0.178231 0.679529 0.293332 -0.807062
O3    O     O_2   0.609422 0.879042 0.719513 -0.598072
O4    O     O_R   0.726922 0.990534 0.572133 -0.781547
O5    O     O_2   0.591571 0.183749 0.199274 -0.590440
O6    O     O_R   0.745314 0.059311 0.268067 -0.777902
O7    O     O_2   0.702980 0.660971 0.205311 -0.621000
O8    O     O_R   0.643878 0.798359 0.050270 -0.796093
O9    O     O_2   0.083551 0.192217 0.539173 -0.628576
O10   O     O_R   0.241774 0.251107 0.669441 -0.768941
O11   O     O_2   0.379120 0.327125 0.135406 -0.582709
O12   O     O_R   0.500020 0.319100 0.386900 -0.573588
O13   O     O_R   0.293191 0.501049 0.053689 -0.819629
O14   O     O_R   0.314770 0.499960 0.613070 -0.600412
O15   O     O_R   0.314820 0.500000 0.386930 -0.589561
O16   O     O_R   0.499980 0.680900 0.613100 -0.608054
O17   O     O_R   0.500020 0.680940 0.386960 -0.596194
O18   O     O_R   0.685180 0.500000 0.613070 -0.634034
O19   O     O_R   0.685230 0.500040 0.386930 -0.586952
O20   O     O_2   0.103765 0.836481 0.415884 -0.605822
Zn1   Zn    Zn3+2 0.499970 0.499970 0.650990 0.979513
Zn2   Zn    Zn3+2 0.500030 0.500030 0.349010 1.041373

loop_
_geom_bond_atom_site_label_1
_geom_bond_atom_site_label_2
_ccdc_geom_bond_type
C16   C28   S    
C31   N1    D    
H15   O13   S    
C26   H1    S    
C18   O8    S    
C2    C18   S    
C17   C29   S    
C20   N2    S    
C8    C23   S    
C21   H18   S    
C24   H24   S    
C6    C19   S    
C12   C23   S    
C8    C13   S    
O15   Zn2   S    
C19   O9    D    
N1    Zn1   S    
C27   C29   S    
N2    Zn2   S    
C1    O1    A    
C19   O10   S    
C7    H30   S    
C3    O14   A    
C8    C22   S    
C23   C24   S    
C9    C10   S    
C22   H19   S    
C21   H17   S    
C5    O18   A    
O16   Zn1   S    
H29   N1    S    
C18   O7    D    
C17   O6    S    
C16   O4    S    
C25   H26   S    
C4    C28   S    
C9    C26   S    
C7    C12   S    
C20   O13   S    
C9    H31   S    
C11   H2    S    
C16   O3    D    
C5    C12   S    
C11   H33   S    
C6    C11   S    
C24   H22   S    
C7    C21   S    
C12   C26   S    
C2    C31   S    
C14   C23   S    
H13   O8    S    
C15   H7    S    
C29   C30   D    
C15   C27   S    
C4    O17   A    
C13   O20   D    
C3    O15   A    
H10   O4    S    
H3    O2    S    
C15   H8    S    
C5    O19   A    
C2    N2    D    
C1    O12   A    
C30   H12   S    
C25   H27   S    
C14   H4    S    
C22   H21   S    
O18   Zn1   S    
H11   O6    S    
C9    H32   S    
O19   Zn2   S    
C6    C10   S    
C6    C7    S    
C24   H25   S    
C20   O11   D    
C25   C26   S    
C3    C10   S    
C14   H6    S    
C14   H5    S    
C4    O16   A    
C13   O2    S    
O1    Zn1   S    
C1    C30   S    
C31   H23   S    
C15   H9    S    
O12   Zn2   S    
O14   Zn1   S    
C17   O5    D    
C8    C10   S    
O17   Zn2   S    
C27   C28   D    
H14   O10   S    
C25   H28   S    
C11   H34   S    
C22   H20   S    
C21   H16   S    
