data_mof_unit_5567.cif
_audit_creation_date              2012-12-11T16:32:22-0500
_audit_creation_method            fapswitch 2.2
_symmetry_space_group_name_H-M    P1
_symmetry_Int_Tables_number       1
_space_group_crystal_system       triclinic
_cell_length_a                    6.936479
_cell_length_b                    14.856046
_cell_length_c                    15.593898
_cell_angle_alpha                 89.771638
_cell_angle_beta                  89.937765
_cell_angle_gamma                 89.819737
_cell_volume                      1606.90851163

loop_
_atom_site_label
_atom_site_type_symbol
_atom_type_description
_atom_site_fract_x
_atom_site_fract_y
_atom_site_fract_z
_atom_type_partial_charge
O1    O     O_R   0.361630 0.167340 0.164570 -0.548615
O2    O     O_R   0.638370 0.832660 0.835430 -0.548615
O3    O     O_R   0.690860 0.157560 0.338690 -0.538030
O4    O     O_R   0.309140 0.842440 0.661310 -0.538031
O5    O     O_R   0.861260 0.336420 0.339380 -0.536355
O6    O     O_R   0.138740 0.663580 0.660620 -0.536355
C1    C     C_R   0.521456 0.134042 0.367538 0.661381
C2    C     C_R   0.478544 0.865958 0.632462 0.661381
O7    O     O_R   0.691330 0.156310 0.165190 -0.541123
O8    O     O_R   0.308670 0.843690 0.834810 -0.541123
O9    O     O_R   0.861730 0.335160 0.164640 -0.536461
O10   O     O_R   0.138270 0.664840 0.835360 -0.536461
C3    C     C_R   0.522765 0.133937 0.136460 0.692878
C4    C     C_R   0.477235 0.866062 0.863540 0.692878
O11   O     O_R   0.361150 0.168600 0.339320 -0.542450
O12   O     O_R   0.638850 0.831400 0.660680 -0.542450
O13   O     O_3   0.527950 0.310560 0.252000 -0.361548
O14   O     O_3   0.472050 0.689440 0.748000 -0.361548
V1    V     V_3+5 0.802770 0.240990 0.251980 1.390996
V2    V     V_3+5 0.197230 0.759010 0.748020 1.390996
O15   O     O_R   0.191450 0.346190 0.165260 -0.535262
O16   O     O_R   0.808550 0.653810 0.834740 -0.535262
C5    C     C_R   0.022006 0.365070 0.134185 0.706502
C6    C     C_R   0.977993 0.634930 0.865815 0.706502
O17   O     O_R   0.190980 0.347440 0.338770 -0.540010
O18   O     O_R   0.809020 0.652560 0.661230 -0.540009
C7    C     C_R   0.021792 0.369525 0.367823 0.673177
C8    C     C_R   0.978208 0.630475 0.632177 0.673178
V3    V     V_3+5 0.302780 0.262760 0.251980 1.392806
V4    V     V_3+5 0.697220 0.737240 0.748020 1.392805
O19   O     O_3   0.027730 0.193200 0.251960 -0.387409
O20   O     O_3   0.972270 0.806800 0.748040 -0.387409
C9    C     C_3   0.930285 0.421207 0.528570 -0.144255
C10   C     C_3   0.069715 0.578793 0.471430 -0.144255
C11   C     C_3   0.103947 0.472048 0.567684 -0.145939
C12   C     C_3   0.896053 0.527952 0.432316 -0.145940
H1    H     H_    0.190229 0.449291 0.623656 0.100202
H2    H     H_    0.809771 0.550709 0.376344 0.100202
H3    H     H_    0.872819 0.355912 0.552017 0.091510
H4    H     H_    0.127181 0.644088 0.447983 0.091510
C13   C     C_3   0.989080 0.560761 0.561974 -0.004384
C14   C     C_3   0.010920 0.439239 0.438026 -0.004384
C15   C     C_3   0.815199 0.510674 0.523598 -0.108836
C16   C     C_3   0.184801 0.489326 0.476402 -0.108836
H5    H     H_    0.662437 0.519517 0.543255 0.107284
H6    H     H_    0.337563 0.480483 0.456745 0.107284
H7    H     H_    0.036747 0.340579 0.737977 0.105197
H8    H     H_    0.963253 0.659420 0.262023 0.105197
C17   C     C_R   0.010312 0.683539 0.045538 -0.187922
C18   C     C_R   0.989688 0.316461 0.954462 -0.187922
C19   C     C_R   0.005700 0.709694 0.132193 0.069033
C20   C     C_R   0.994300 0.290306 0.867807 0.069033
C21   C     C_R   0.981386 0.642871 0.195080 -0.185797
C22   C     C_R   0.018614 0.357129 0.804920 -0.185797
C23   C     C_R   0.983047 0.552535 0.173358 -0.154498
C24   C     C_R   0.016953 0.447465 0.826642 -0.154498
C25   C     C_R   0.997228 0.525580 0.087135 0.076914
C26   C     C_R   0.002772 0.474420 0.912865 0.076914
C27   C     C_R   0.998437 0.592219 0.021839 0.039958
C28   C     C_R   0.001562 0.407780 0.978160 0.039958
C29   C     C_R   0.006797 0.433606 0.065444 -0.171218
C30   C     C_R   0.993203 0.566394 0.934556 -0.171217
H9    H     H_    0.030667 0.733811 0.996282 0.093474
H10   H     H_    0.969333 0.266189 0.003718 0.093474
H11   H     H_    0.971411 0.504157 0.225116 0.103751
H12   H     H_    0.028589 0.495843 0.774884 0.103752
C31   C     C_3   0.321048 0.022910 0.475563 -0.117347
C32   C     C_3   0.678952 0.977090 0.524437 -0.117347
C33   C     C_3   0.408700 0.926750 0.471061 -0.147719
C34   C     C_3   0.591300 0.073250 0.528939 -0.147719
H13   H     H_    0.334220 0.865442 0.447971 0.089338
H14   H     H_    0.665780 0.134558 0.552029 0.089338
H15   H     H_    0.172465 0.041547 0.455702 0.105683
H16   H     H_    0.827535 0.958453 0.544298 0.105683
C35   C     C_3   0.490583 0.938002 0.562183 -0.007093
C36   C     C_3   0.509417 0.061998 0.437817 -0.007093
C37   C     C_3   0.403180 0.033521 0.567363 -0.139177
C38   C     C_3   0.596820 0.966478 0.432636 -0.139177
H17   H     H_    0.322265 0.061399 0.622702 0.102209
H18   H     H_    0.677735 0.938601 0.377298 0.102209
H19   H     H_    0.580750 0.828898 0.256888 0.100471
H20   H     H_    0.419250 0.171102 0.743112 0.100471
C39   C     C_R   0.485252 0.185493 0.958063 -0.155025
C40   C     C_R   0.514747 0.814507 0.041937 -0.155025
C41   C     C_R   0.461156 0.212900 0.873205 -0.107449
C42   C     C_R   0.538844 0.787100 0.126795 -0.107449
C43   C     C_R   0.439530 0.149322 0.808803 -0.097063
C44   C     C_R   0.560469 0.850678 0.191197 -0.097063
C45   C     C_R   0.445967 0.057746 0.828469 -0.105395
C46   C     C_R   0.554033 0.942253 0.171531 -0.105396
C47   C     C_R   0.473774 0.027772 0.913756 0.070625
C48   C     C_R   0.526226 0.972228 0.086244 0.070625
C49   C     C_R   0.490491 0.093066 0.980201 0.054609
C50   C     C_R   0.509509 0.906934 0.019798 0.054609
C51   C     C_R   0.485987 0.934582 0.933275 -0.198362
C52   C     C_R   0.514012 0.065418 0.066725 -0.198362
H21   H     H_    0.500255 0.237529 0.005929 0.108782
H22   H     H_    0.499744 0.762471 0.994071 0.108782
H23   H     H_    0.457687 0.283908 0.857423 0.124939
H24   H     H_    0.542313 0.716092 0.142577 0.124939
H25   H     H_    0.430574 0.010847 0.776069 0.086271
H26   H     H_    0.569426 0.989152 0.223931 0.086271
C53   C     C_R   0.032151 0.805568 0.157508 0.117100
C54   C     C_R   0.101447 0.827055 0.240018 -0.129347
C55   C     C_R   0.130389 0.916086 0.263417 -0.163850
C56   C     C_R   0.097795 0.984622 0.204639 -0.087488
C57   C     C_R   0.028064 0.965724 0.123151 -0.103762
C58   C     C_R   0.993790 0.876796 0.099622 -0.106739
H27   H     H_    0.141209 0.775820 0.286108 0.091018
H28   H     H_    0.185354 0.931993 0.326066 0.112339
H29   H     H_    0.133597 0.051698 0.222004 0.164277
H30   H     H_    0.000882 0.019987 0.078318 0.106227
H31   H     H_    0.934580 0.864994 0.036701 0.096976
C59   C     C_R   0.967848 0.194432 0.842491 0.117100
C60   C     C_R   0.898553 0.172945 0.759981 -0.129347
C61   C     C_R   0.869610 0.083914 0.736583 -0.163850
C62   C     C_R   0.902205 0.015378 0.795361 -0.087488
C63   C     C_R   0.971936 0.034276 0.876849 -0.103762
C64   C     C_R   0.006210 0.123204 0.900378 -0.106739
H32   H     H_    0.858791 0.224180 0.713892 0.091018
H33   H     H_    0.814646 0.068007 0.673933 0.112339
H34   H     H_    0.866402 0.948302 0.777996 0.164276
H35   H     H_    0.999118 0.980013 0.921682 0.106227
H36   H     H_    0.065420 0.135006 0.963299 0.096976

loop_
_geom_bond_atom_site_label_1
_geom_bond_atom_site_label_2
_ccdc_geom_bond_type
C26   C30   A    
C55   H28   S    
C41   C43   A    
C17   H9    S    
O13   V3    S    
C57   H30   S    
C12   C14   S    
C31   C37   S    
O4    C2    A    
V1    O19   S    
C59   C60   A    
C64   H36   S    
C32   C35   S    
O9    V1    S    
C9    H3    S    
C10   H4    S    
C9    C14   S    
C11   H1    S    
C36   C38   S    
O3    C1    A    
C54   H27   S    
C38   H18   S    
C25   C27   A    
C56   C57   A    
C32   H16   S    
H20   C43   S    
C39   C49   A    
C8    C13   S    
C48   C52   A    
C18   H10   S    
C61   C62   A    
C33   H13   S    
O7    C3    A    
C63   C64   A    
C46   H26   S    
C9    C11   S    
O5    C7    A    
O7    V1    S    
O6    C8    A    
C16   H6    S    
C17   C19   A    
C18   C20   A    
C57   C58   A    
O3    V1    S    
C53   C58   A    
C31   H15   S    
C45   C47   A    
C42   H24   S    
O14   V2    S    
C59   C64   A    
C37   H17   S    
C2    O12   A    
C34   C37   S    
C32   C38   S    
C13   C15   S    
C33   C38   S    
C10   C13   S    
C14   C16   S    
C11   C13   S    
C48   C50   A    
C54   C55   A    
C23   H11   S    
C20   C22   A    
O11   V3    S    
C56   H29   S    
C21   C23   A    
O17   V3    S    
H8    C21   S    
C22   C24   A    
C61   H33   S    
C3    C52   S    
C9    C15   S    
C10   C16   S    
O8    C4    A    
C19   C53   S    
O8    V2    S    
C1    O11   A    
O15   V3    S    
C2    C35   S    
C28   C29   A    
C19   C21   A    
C58   H31   S    
C62   H34   S    
C41   H23   S    
C47   C49   A    
C15   H5    S    
C46   C48   A    
O10   V2    S    
O1    V3    S    
C40   C50   A    
C11   C16   S    
C35   C37   S    
H7    C22   S    
O14   V4    S    
C39   C41   A    
C44   C46   A    
O18   V4    S    
C49   C52   A    
O15   C5    A    
C34   C36   S    
O16   C6    A    
O1    C3    A    
O12   V4    S    
C12   H2    S    
C4    C51   S    
V2    O20   S    
C27   C30   A    
C6    C30   S    
O16   V4    S    
C45   H25   S    
C40   C42   A    
C25   C29   A    
C1    C36   S    
O5    V1    S    
C20   C59   S    
O17   C7    A    
O6    V2    S    
C55   C56   A    
O10   C6    A    
O18   C8    A    
C17   C27   A    
O2    V4    S    
C40   H22   S    
C23   C25   A    
C18   C28   A    
V3    O19   S    
C62   C63   A    
V4    O20   S    
C7    C14   S    
C24   H12   S    
C42   C44   A    
O9    C5    A    
O13   V1    S    
C24   C26   A    
C33   C35   S    
C10   C12   S    
C63   H35   S    
C50   C51   A    
O2    C4    A    
H19   C44   S    
C47   C51   A    
O4    V2    S    
C5    C29   S    
C32   C34   S    
C60   H32   S    
C39   H21   S    
C53   C54   A    
C43   C45   A    
C12   C15   S    
C34   H14   S    
C31   C36   S    
C31   C33   S    
C26   C28   A    
C60   C61   A    
