data_mof_unit_40101.cif
_audit_creation_date              2012-12-11T15:12:45-0500
_audit_creation_method            fapswitch 2.2
_symmetry_space_group_name_H-M    P1
_symmetry_Int_Tables_number       1
_space_group_crystal_system       triclinic
_cell_length_a                    22.290941
_cell_length_b                    6.994564
_cell_length_c                    19.39123
_cell_angle_alpha                 89.959543
_cell_angle_beta                  99.191443
_cell_angle_gamma                 90.032872
_cell_volume                      2984.57062357

loop_
_atom_site_label
_atom_site_type_symbol
_atom_type_description
_atom_site_fract_x
_atom_site_fract_y
_atom_site_fract_z
_atom_type_partial_charge
O1    O     O_R   0.448420 0.506120 0.415750 -0.536182
O2    O     O_R   0.551580 0.006120 0.584250 -0.535556
O3    O     O_R   0.436490 0.174470 0.555610 -0.530882
O4    O     O_R   0.563510 0.674470 0.444390 -0.530668
C1    C     C_R   0.421207 0.344146 0.575731 0.702053
C2    C     C_R   0.578794 0.844306 0.424289 0.700923
O5    O     O_R   0.441310 0.176330 0.414520 -0.537805
O6    O     O_R   0.558690 0.676330 0.585480 -0.537667
O7    O     O_R   0.556430 0.007110 0.442150 -0.527950
O8    O     O_R   0.443570 0.507110 0.557850 -0.527988
C3    C     C_R   0.427019 0.344979 0.388412 0.690912
C4    C     C_R   0.572984 0.844940 0.611584 0.692470
O9    O     O_3   0.537770 0.339560 0.509230 -0.367999
O10   O     O_3   0.462230 0.839560 0.490770 -0.368558
V1    V     V_3+5 0.492990 0.064280 0.498290 1.496452
V2    V     V_3+5 0.507010 0.564280 0.501710 1.496294
C5    C     C_R   0.867370 0.976483 0.695861 -0.157179
C6    C     C_R   0.132642 0.475911 0.304133 -0.157722
H1    H     H_    0.954665 0.003441 0.759958 0.124599
H2    H     H_    0.045347 0.502836 0.240038 0.124939
H3    H     H_    0.785052 0.972318 0.581108 0.121536
H4    H     H_    0.214959 0.471563 0.418885 0.121401
H5    H     H_    0.885861 0.003253 0.648348 0.117278
H6    H     H_    0.114153 0.502443 0.351647 0.117031
C7    C     C_R   0.884632 0.941481 0.821601 -0.044000
C8    C     C_R   0.115376 0.441331 0.178394 -0.043982
C9    C     C_R   0.589649 0.818131 0.739654 -0.139833
C10   C     C_R   0.410357 0.318621 0.260340 -0.146003
C11   C     C_R   0.626278 0.816469 0.804767 -0.104906
C12   C     C_R   0.373729 0.317105 0.195226 -0.108948
C13   C     C_R   0.688713 0.846646 0.810887 -0.161827
C14   C     C_R   0.311294 0.347097 0.189106 -0.159059
C15   C     C_R   0.716501 0.880054 0.751291 0.078484
C16   C     C_R   0.283506 0.380172 0.248702 0.078036
C17   C     C_R   0.678347 0.883341 0.684354 0.068442
C18   C     C_R   0.321660 0.383316 0.315638 0.068417
C19   C     C_R   0.780758 0.909998 0.755894 0.075930
C20   C     C_R   0.219250 0.409928 0.244099 0.075684
C21   C     C_R   0.804894 0.944157 0.693431 0.136567
C22   C     C_R   0.195116 0.443772 0.306563 0.137081
C23   C     C_R   0.766678 0.946640 0.628783 -0.197883
C24   C     C_R   0.233332 0.446125 0.371210 -0.198014
C25   C     C_R   0.704546 0.916416 0.624193 -0.189545
C26   C     C_R   0.295462 0.416075 0.375800 -0.190489
C27   C     C_R   0.822162 0.908067 0.820037 -0.214151
C28   C     C_R   0.177844 0.408108 0.179956 -0.214928
C29   C     C_R   0.906723 0.976233 0.759350 -0.159030
C30   C     C_R   0.093288 0.475780 0.240645 -0.158860
C31   C     C_R   0.614667 0.851724 0.679107 -0.099523
C32   C     C_R   0.385338 0.351882 0.320887 -0.095932
H7    H     H_    0.807458 0.883288 0.869588 0.093754
H8    H     H_    0.192546 0.383558 0.130406 0.093211
H9    H     H_    0.541308 0.792678 0.736416 0.160396
H10   H     H_    0.458698 0.293321 0.263578 0.154348
H11   H     H_    0.713917 0.842746 0.863088 0.111470
H12   H     H_    0.286090 0.343330 0.136904 0.110718
H13   H     H_    0.606082 0.790671 0.851126 0.139974
H14   H     H_    0.393925 0.291567 0.148867 0.136022
H15   H     H_    0.677072 0.919524 0.572833 0.103842
H16   H     H_    0.322936 0.419069 0.427160 0.103554
C33   C     C_3   0.811939 0.782356 0.267605 -0.331521
C34   C     C_3   0.189439 0.276835 0.734532 -0.332736
C35   C     C_3   0.777417 0.123795 0.239389 -0.193276
C36   C     C_3   0.221312 0.622665 0.758474 -0.195882
C37   C     C_3   0.725086 0.103464 0.285530 0.302381
C38   C     C_3   0.274740 0.603504 0.713727 0.257030
H17   H     H_    0.787372 0.836811 0.370640 0.132429
H18   H     H_    0.212330 0.335249 0.631119 0.130804
H19   H     H_    0.857777 0.820958 0.295769 0.154011
H20   H     H_    0.142819 0.307549 0.706796 0.157744
H21   H     H_    0.763465 0.223693 0.195278 0.202314
H22   H     H_    0.233316 0.726778 0.801377 0.153219
H23   H     H_    0.742248 0.153472 0.339617 0.037944
H24   H     H_    0.258504 0.653258 0.659360 0.045423
C39   C     C_1   0.624337 0.852722 0.378532 -0.090752
C40   C     C_1   0.375743 0.352185 0.621614 -0.091873
C41   C     C_3   0.790789 0.925317 0.207456 0.151864
C42   C     C_3   0.209437 0.425760 0.792797 0.166796
C43   C     C_3   0.765926 0.775516 0.319668 -0.436130
C44   C     C_3   0.234656 0.273472 0.681659 -0.432779
C45   C     C_3   0.707217 0.888873 0.291120 0.134801
C46   C     C_3   0.293157 0.389470 0.709351 0.143891
C47   C     C_3   0.682991 0.814814 0.216165 -0.258825
C48   C     C_3   0.318154 0.322541 0.785133 -0.244777
C49   C     C_3   0.730094 0.848869 0.166462 -0.384666
C50   C     C_3   0.270702 0.355843 0.834531 -0.396753
C51   C     C_1   0.661810 0.864300 0.339466 0.092028
C52   C     C_1   0.338399 0.363959 0.660842 0.093080
C53   C     C_1   0.837240 0.937408 0.159867 0.001336
C54   C     C_1   0.162865 0.438271 0.840215 -0.009369
C55   C     C_1   0.875291 0.943141 0.121367 -0.154853
C56   C     C_1   0.124751 0.443770 0.878646 -0.162084
H25   H     H_    0.737920 0.712493 0.139674 0.174518
H26   H     H_    0.263918 0.220576 0.862572 0.146749
H27   H     H_    0.711424 0.953148 0.125196 0.180389
H28   H     H_    0.288456 0.463594 0.874874 0.188742
H29   H     H_    0.673731 0.660830 0.217922 0.234545
H30   H     H_    0.330006 0.170921 0.785513 0.211571
H31   H     H_    0.815734 0.637787 0.245159 0.220714
H32   H     H_    0.188073 0.133120 0.758623 0.213039
H33   H     H_    0.755196 0.623989 0.329626 0.225977
H34   H     H_    0.245318 0.122942 0.670748 0.226416
H35   H     H_    0.639193 0.882408 0.193865 0.204807
H36   H     H_    0.361175 0.395940 0.806644 0.220023
O11   O     O_R   0.056480 0.288780 0.942210 -0.535969
O12   O     O_R   0.943520 0.788780 0.057790 -0.535697
O13   O     O_R   0.058700 0.616820 0.085490 -0.539031
O14   O     O_R   0.941300 0.116820 0.914510 -0.539010
C57   C     C_R   0.073049 0.448463 0.111624 0.695748
C58   C     C_R   0.926956 0.948502 0.888373 0.695010
O15   O     O_R   0.063520 0.618570 0.944410 -0.533062
O16   O     O_R   0.936480 0.118570 0.055590 -0.531636
O17   O     O_R   0.948420 0.787670 0.915740 -0.534978
O18   O     O_R   0.051580 0.287670 0.084260 -0.534928
C59   C     C_R   0.078883 0.450412 0.924114 0.718285
C60   C     C_R   0.921118 0.950245 0.075871 0.718242
O19   O     O_3   0.962260 0.453430 0.990800 -0.367991
O20   O     O_3   0.037740 0.953430 0.009200 -0.368959
V3    V     V_3+5 0.007000 0.728750 0.001710 1.448423
V4    V     V_3+5 0.993000 0.228750 0.998290 1.450424
C61   C     C_2   0.834471 0.206157 0.281776 0.306732
H37   H     H_    0.848275 0.164129 0.335878 0.055931
O21   O     O_2   0.866768 0.315115 0.254903 -0.538025
C62   C     C_2   0.164037 0.696284 0.713849 0.314304
H38   H     H_    0.149556 0.639165 0.661824 0.056710
O22   O     O_2   0.132833 0.817395 0.736308 -0.540461
S1    S     S_3+6 0.659566 0.254217 0.255144 -0.080532
O23   O     O_2   0.600531 0.151274 0.256530 -0.355903
O24   O     O_2   0.661480 0.421955 0.303588 -0.370729
O25   O     O_3   0.660276 0.329837 0.172855 -0.543629
H39   H     H_    0.619011 0.381375 0.156864 0.357200
S2    S     S_3+6 0.340186 0.753515 0.745718 -0.049840
O26   O     O_2   0.399007 0.659103 0.736838 -0.324160
O27   O     O_2   0.335724 0.932585 0.702895 -0.376900
O28   O     O_3   0.344583 0.803822 0.831382 -0.502088
H40   H     H_    0.313348 0.901734 0.834967 0.309462

loop_
_geom_bond_atom_site_label_1
_geom_bond_atom_site_label_2
_ccdc_geom_bond_type
H18   C44   S    
C12   C14   A    
C35   C37   S    
O12   V3    S    
C9    C11   A    
C23   C25   A    
O14   V4    S    
C49   H25   S    
O1    C3    A    
O2    C4    A    
C2    O7    A    
C4    C31   S    
O3    V1    S    
O28   H40   S    
C21   C23   A    
C42   C54   S    
O5    C3    A    
C41   C53   S    
C5    H5    S    
C47   H35   S    
C6    H6    S    
C37   S1    S    
C34   C44   S    
C48   C50   S    
C62   O22   D    
O19   V3    S    
H1    C29   S    
C27   H7    S    
C38   H24   S    
C28   H8    S    
C33   C43   S    
C37   H23   S    
C55   C60   S    
C34   H20   S    
O15   V3    S    
C5    C21   A    
C6    C22   A    
O20   V3    S    
C50   H26   S    
C45   C47   S    
O17   V3    S    
C54   C56   T    
C33   C41   S    
S2    O26   D    
C17   C31   A    
C13   C15   A    
O11   V4    S    
C53   C55   T    
C17   C25   A    
C40   C52   T    
C25   H15   S    
C42   C50   S    
C22   C24   A    
C41   C49   S    
O6    V2    S    
O13   C57   A    
C33   H31   S    
C24   C26   A    
O13   V3    S    
C35   C61   S    
O11   C59   A    
C38   S2    S    
C20   C28   A    
C2    C39   S    
H17   C43   S    
C44   C46   S    
H3    C23   S    
O19   V4    S    
C43   C45   S    
C10   C32   A    
C36   C62   S    
C15   C19   A    
C44   H34   S    
C36   C38   S    
O4    V2    S    
S1    O24   D    
C38   C46   S    
C37   C45   S    
C8    C57   S    
O6    C4    A    
O1    V2    S    
C45   C51   S    
O2    V1    S    
C58   O17   A    
C61   H37   S    
H2    C30   S    
C50   H28   S    
C57   O18   A    
S2    O27   D    
C34   H32   S    
C7    C58   S    
C39   C51   T    
C47   C49   S    
C11   H13   S    
C46   C48   S    
O9    V1    S    
C48   H36   S    
O10   V2    S    
C18   C26   A    
O4    C2    A    
C19   C27   A    
S1    O23   D    
C7    C27   A    
O16   C60   A    
C18   C32   A    
O16   V4    S    
C35   C41   S    
C33   H19   S    
C7    C29   A    
C10   H10   S    
C16   C20   A    
C36   C42   S    
C34   C42   S    
C5    C29   A    
C35   H21   S    
O3    C1    A    
C6    C30   A    
C9    H9    S    
C8    C30   A    
C48   H30   S    
C1    C40   S    
C10   C12   A    
O25   H39   S    
O7    V1    S    
S1    O25   S    
C1    O8    A    
C19   C21   A    
C3    C32   S    
O8    V2    S    
C20   C22   A    
C49   H27   S    
H4    C24   S    
C26   H16   S    
S2    O28   S    
C46   C52   S    
C12   H14   S    
O5    V1    S    
C15   C17   A    
O14   C58   A    
C16   C18   A    
C36   H22   S    
C56   C59   S    
O20   V4    S    
C61   O21   D    
C8    C28   A    
C11   C13   A    
C47   H29   S    
O9    V2    S    
O12   C60   A    
O10   V1    S    
C43   H33   S    
O15   C59   A    
C13   H11   S    
C14   H12   S    
O18   V4    S    
C9    C31   A    
C14   C16   A    
C62   H38   S    
