data_mof_unit_18759.cif
_audit_creation_date              2012-12-10T17:32:58-0500
_audit_creation_method            fapswitch 2.2
_symmetry_space_group_name_H-M    P1
_symmetry_Int_Tables_number       1
_space_group_crystal_system       triclinic
_cell_length_a                    12.502447
_cell_length_b                    13.354236
_cell_length_c                    14.382079
_cell_angle_alpha                 94.356795
_cell_angle_beta                  108.830549
_cell_angle_gamma                 117.846782
_cell_volume                      1934.37913872

loop_
_atom_site_label
_atom_site_type_symbol
_atom_type_description
_atom_site_fract_x
_atom_site_fract_y
_atom_site_fract_z
_atom_type_partial_charge
C1    C     C_R   0.653272 0.714757 0.512881 0.751398
C2    C     C_R   0.900548 0.563341 0.920595 0.036585
C3    C     C_R   0.901163 0.640151 0.994961 0.087852
C4    C     C_R   0.001590 0.535311 0.946490 0.099202
C5    C     C_R   0.090416 0.569987 0.050322 0.099789
C6    C     C_R   0.090279 0.648259 0.121946 -0.218110
C7    C     C_R   0.999917 0.684782 0.093806 -0.187686
C8    C     C_R   0.018348 0.475745 0.871753 -0.216175
C9    C     C_R   0.109862 0.440511 0.899030 -0.223345
C10   C     C_R   0.185142 0.460367 0.001452 0.143518
C11   C     C_R   0.176543 0.525384 0.078541 0.087991
C12   C     C_R   0.621622 0.520636 0.686803 0.803127
C13   C     C_R   0.267369 0.413848 0.027584 -0.181573
C14   C     C_R   0.334585 0.424200 0.129436 -0.180352
C15   C     C_R   0.248550 0.537296 0.181125 -0.169968
C16   C     C_R   0.113039 0.968430 0.349973 -0.139250
C17   C     C_R   0.249749 0.161857 0.467197 -0.033659
C18   C     C_R   0.759929 0.922676 0.605854 -0.179891
C19   C     C_R   0.863722 0.038775 0.637591 -0.152032
C20   C     C_R   0.957736 0.073586 0.596123 -0.126711
C21   C     C_R   0.945806 0.993151 0.517494 0.087499
C22   C     C_R   0.832051 0.878247 0.478712 0.014113
C23   C     C_R   0.347443 0.285863 0.488099 0.832605
C24   C     C_R   0.041808 0.022699 0.475349 0.013966
C25   C     C_R   0.017507 0.940514 0.390753 0.059999
C26   C     C_R   0.897236 0.832773 0.346520 0.456875
C27   C     C_R   0.804680 0.803961 0.389057 -0.286691
C28   C     C_R   0.160823 0.132096 0.513689 -0.159231
C29   C     C_R   0.228276 0.078552 0.387769 -0.213622
C30   C     C_R   0.745727 0.840603 0.529024 -0.067242
C31   C     C_R   0.258543 0.676620 0.672916 -0.401941
C32   C     C_R   0.651883 0.361819 0.347664 -0.055299
C33   C     C_R   0.729598 0.370655 0.294784 0.334934
C34   C     C_R   0.383615 0.485981 0.313762 0.824520
C35   C     C_R   0.866307 0.444518 0.346159 -0.161625
C36   C     C_R   0.928200 0.488895 0.452957 -0.018434
C37   C     C_R   0.845524 0.498423 0.496746 0.242661
C38   C     C_R   0.068812 0.538794 0.514563 -0.099456
C39   C     C_R   0.123654 0.619394 0.610476 0.054371
C40   C     C_R   0.043428 0.644079 0.644556 -0.225822
C41   C     C_R   0.907280 0.584191 0.589398 -0.172398
C42   C     C_R   0.155147 0.506748 0.490841 0.427228
C43   C     C_R   0.343537 0.653348 0.643909 0.640844
C44   C     C_R   0.705806 0.550943 0.795314 -0.105733
C45   C     C_R   0.322025 0.482686 0.206541 -0.073336
C46   C     C_R   0.803414 0.671348 0.969765 0.491203
C47   C     C_R   0.708414 0.628160 0.868190 -0.301337
C48   C     C_R   0.797779 0.515556 0.822838 -0.244450
Cu1   Cu    Cu3+1 0.416420 0.526630 0.522910 1.040387
Cu2   Cu    Cu3+1 0.583580 0.473370 0.477090 0.927847
H1    H     H_    0.006381 0.746859 0.151090 0.204825
H2    H     H_    0.275911 0.365705 0.968983 0.155839
H3    H     H_    0.296069 0.100984 0.350587 0.153450
H4    H     H_    0.097225 0.906842 0.286486 0.170799
H5    H     H_    0.185441 0.198436 0.577410 0.130219
H6    H     H_    0.693286 0.896113 0.643940 0.166430
H7    H     H_    0.036670 0.164430 0.626128 0.126034
H8    H     H_    0.874081 0.101415 0.697342 0.144631
H9    H     H_    0.709294 0.723595 0.349562 0.169791
H10   H     H_    0.244787 0.584487 0.242874 0.168249
H11   H     H_    0.086158 0.709217 0.716122 0.156871
H12   H     H_    0.295968 0.738077 0.745178 0.163832
H13   H     H_    0.545206 0.311372 0.308375 0.153839
H14   H     H_    0.921000 0.474707 0.300822 0.218351
H15   H     H_    0.854987 0.612459 0.619056 0.198639
H16   H     H_    0.393300 0.383597 0.147670 0.200121
H17   H     H_    0.118530 0.393884 0.839437 0.144049
H18   H     H_    0.639836 0.658179 0.844349 0.196667
H19   H     H_    0.787318 0.450491 0.765802 0.165904
H20   H     H_    0.162102 0.686337 0.200028 0.138749
H21   H     H_    0.964294 0.457622 0.790975 0.152513
N1    N     N_R   0.290690 0.566960 0.557640 -0.279430
N2    N     N_R   0.709100 0.433710 0.442970 -0.231263
O1    O     O_R   0.545970 0.684450 0.528810 -0.553779
O2    O     O_R   0.687130 0.639470 0.490120 -0.597728
O3    O     O_R   0.519670 0.535100 0.660030 -0.536611
O4    O     O_R   0.660830 0.490120 0.621340 -0.606858
O5    O     O_R   0.312870 0.360530 0.509880 -0.513149
O6    O     O_R   0.454030 0.315550 0.471190 -0.589648
O7    O     O_R   0.339170 0.509880 0.378660 -0.508829
O8    O     O_R   0.480330 0.464900 0.339970 -0.605782
O9    O     O_3   0.865428 0.760310 0.255955 -0.576479
C49   C     C_3   0.860141 0.656552 0.274068 -0.315196
H22   H     H_    0.779162 0.605067 0.298365 0.175755
H23   H     H_    0.957271 0.676562 0.331145 0.146258
H24   H     H_    0.838152 0.600411 0.201746 0.237655
O10   O     O_3   0.478642 0.707316 0.703593 -0.556441
C50   C     C_3   0.535530 0.821909 0.764492 -0.392577
H25   H     H_    0.644713 0.866335 0.792526 0.193834
H26   H     H_    0.512894 0.818594 0.833166 0.172823
H27   H     H_    0.504571 0.875694 0.720303 0.172654
S1    S     S_3+6 0.078508 0.384352 0.376157 0.029817
O11   O     O_2   0.944859 0.292905 0.369223 -0.285770
O12   O     O_2   0.063528 0.433272 0.285468 -0.338015
O13   O     O_3   0.141806 0.304417 0.352656 -0.500505
H28   H     H_    0.076554 0.246113 0.285824 0.372498
S2    S     S_3+6 0.657757 0.297859 0.163978 0.016173
O14   O     O_2   0.728608 0.378248 0.108912 -0.267849
O15   O     O_2   0.671329 0.192047 0.152559 -0.238988
O16   O     O_3   0.496548 0.254532 0.111324 -0.558060
H29   H     H_    0.450404 0.181272 0.130423 0.340511
O17   O     O_3   0.812370 0.752584 0.043476 -0.566566
C51   C     C_3   0.686823 0.730743 0.034318 -0.198323
H30   H     H_    0.614790 0.635458 0.019792 0.157694
H31   H     H_    0.648188 0.767637 0.974663 0.138642
H32   H     H_    0.697889 0.777420 0.107043 0.220585

loop_
_geom_bond_atom_site_label_1
_geom_bond_atom_site_label_2
_ccdc_geom_bond_type
O10   C50   S    
C43   N1    A    
O13   H28   S    
C17   C29   A    
C15   H10   S    
C19   C20   A    
C48   H19   S    
C4    C8    A    
Cu2   O6    S    
S2    O14   D    
C46   O17   S    
C26   C27   A    
C17   C23   S    
C31   C43   A    
C1    O1    A    
C36   C37   A    
C5    C11   A    
C3    C7    A    
C5    C6    A    
Cu1   O5    S    
C18   C19   A    
C1    C30   S    
C34   O7    A    
C11   C15   A    
C35   C36   A    
C8    C9    A    
Cu1   N1    S    
C35   H14   S    
C18   C30   A    
C34   O8    A    
C9    C10   A    
C42   S1    S    
C44   C47   A    
C18   H6    S    
C26   O9    S    
C21   C22   A    
C31   H12   S    
S1    O12   D    
S2    O15   D    
C28   H5    S    
C14   C45   A    
C19   H8    S    
C1    O2    A    
C24   C25   A    
Cu2   N2    S    
C39   C40   A    
C41   H15   S    
C2    C48   A    
C16   C29   A    
S1    O13   S    
C40   H11   S    
C2    C4    A    
C9    H17   S    
C13   H2    S    
C49   H22   S    
C50   H27   S    
C12   O4    A    
C42   N1    A    
C14   H16   S    
Cu1   O3    S    
C51   H31   S    
C34   C45   S    
C50   H25   S    
C40   C41   A    
C49   H23   S    
C50   H26   S    
Cu1   Cu2   S    
C22   C27   A    
C12   O3    A    
C15   C45   A    
Cu2   O4    S    
C47   H18   S    
C32   N2    A    
S2    O16   S    
C16   C25   A    
C6    H20   S    
C37   N2    A    
C46   C47   A    
C8    H21   S    
C22   C30   A    
C17   C28   A    
C24   C28   A    
C32   H13   S    
C4    C5    A    
C10   C13   A    
C38   C42   A    
C6    C7    A    
C3    C46   A    
Cu1   O7    S    
C43   O10   S    
C32   C33   A    
C36   C38   A    
C2    C3    A    
C25   C26   A    
C7    H1    S    
C12   C44   S    
C27   H9    S    
Cu2   O2    S    
C38   C39   A    
C29   H3    S    
S1    O11   D    
C33   C35   A    
C31   C39   A    
C51   H32   S    
C33   S2    S    
C23   O5    A    
C37   C41   A    
O17   C51   S    
C16   H4    S    
C10   C11   A    
C49   H24   S    
C20   C21   A    
O9    C49   S    
C21   C24   A    
C51   H30   S    
Cu1   O1    S    
O16   H29   S    
C23   O6    A    
C20   H7    S    
C13   C14   A    
C44   C48   A    
Cu2   O8    S    
