data_mof_unit_56381.cif
_audit_creation_date              2013-03-05T15:48:18-0500
_audit_creation_method            fapswitch 2.2
_symmetry_space_group_name_H-M    P1
_symmetry_Int_Tables_number       1
_space_group_crystal_system       triclinic
_cell_length_a                    21.067345
_cell_length_b                    7.23499
_cell_length_c                    18.490889
_cell_angle_alpha                 90.002499
_cell_angle_beta                  92.963806
_cell_angle_gamma                 90.003529
_cell_volume                      2814.64890957

loop_
_atom_site_label
_atom_site_type_symbol
_atom_site_description
_atom_site_fract_x
_atom_site_fract_y
_atom_site_fract_z
_atom_type_partial_charge
O1    O     O_R   0.448880 0.506250 0.415280 -0.585957
O2    O     O_R   0.551120 0.006250 0.584720 -0.585639
O3    O     O_R   0.434830 0.174000 0.557310 -0.553486
O4    O     O_R   0.565170 0.674000 0.442690 -0.553631
C1    C     C_R   0.418290 0.344216 0.581295 1.004507
C2    C     C_R   0.581710 0.844219 0.418706 1.004524
O5    O     O_R   0.441680 0.176440 0.414130 -0.572659
O6    O     O_R   0.558320 0.676440 0.585870 -0.572925
O7    O     O_R   0.558020 0.007570 0.440520 -0.557744
O8    O     O_R   0.441980 0.507570 0.559480 -0.557969
C3    C     C_R   0.426691 0.345119 0.389569 0.954259
C4    C     C_R   0.573306 0.845133 0.610433 0.954089
O9    O     O_3   0.538160 0.339670 0.508820 -0.266882
O10   O     O_3   0.461840 0.839670 0.491180 -0.267031
V1    V     V_3+5 0.492920 0.064260 0.498360 1.236095
V2    V     V_3+5 0.507080 0.564260 0.501640 1.235843
C5    C     C_R   0.882127 0.976184 0.689449 -0.082755
C6    C     C_R   0.117901 0.476696 0.310536 -0.082764
H1    H     H_    0.806738 0.962982 0.572967 0.181879
H2    H     H_    0.193277 0.463447 0.427019 0.182016
H3    H     H_    0.904456 0.000222 0.638733 0.168368
H4    H     H_    0.095582 0.500935 0.361245 0.168368
C7    C     C_R   0.890066 0.943057 0.819683 -0.181137
C8    C     C_R   0.109936 0.443139 0.180318 -0.181163
C9    C     C_R   0.584540 0.825129 0.742342 -0.163254
C10   C     C_R   0.415442 0.324945 0.257665 -0.163327
C11   C     C_R   0.618257 0.828162 0.808771 -0.087382
C12   C     C_R   0.381725 0.327961 0.191237 -0.087366
C13   C     C_R   0.683571 0.857356 0.812884 -0.142173
C14   C     C_R   0.316417 0.357253 0.187123 -0.142192
C15   C     C_R   0.717715 0.884081 0.749882 0.077852
C16   C     C_R   0.282279 0.384077 0.250123 0.077819
C17   C     C_R   0.682855 0.881278 0.680665 -0.075720
C18   C     C_R   0.317138 0.381269 0.319341 -0.075574
C19   C     C_R   0.785453 0.913227 0.753703 0.093240
C20   C     C_R   0.214549 0.413331 0.246298 0.093270
C21   C     C_R   0.816436 0.944858 0.688789 0.054317
C22   C     C_R   0.183582 0.445216 0.311203 0.054313
C23   C     C_R   0.782260 0.942625 0.622578 -0.259466
C24   C     C_R   0.217756 0.443005 0.377414 -0.259557
C25   C     C_R   0.717308 0.907997 0.617602 0.333410
C26   C     C_R   0.282691 0.408092 0.382404 0.333311
C27   C     C_R   0.823972 0.911868 0.819321 -0.198485
C28   C     C_R   0.176022 0.411822 0.180685 -0.198503
C29   C     C_R   0.919455 0.976324 0.754181 -0.081211
C30   C     C_R   0.080565 0.476705 0.245809 -0.081168
C31   C     C_R   0.615132 0.851955 0.677849 -0.149216
C32   C     C_R   0.384858 0.351882 0.322157 -0.149164
H5    H     H_    0.804331 0.887699 0.871135 0.097883
H6    H     H_    0.195651 0.387420 0.128881 0.097912
H7    H     H_    0.533650 0.802081 0.741258 0.096487
H8    H     H_    0.466328 0.301839 0.258749 0.096492
H9    H     H_    0.705902 0.858997 0.866571 0.102032
H10   H     H_    0.294087 0.358920 0.133436 0.102035
H11   H     H_    0.593359 0.807856 0.857934 0.108685
H12   H     H_    0.406618 0.307583 0.142075 0.108688
C33   C     C_1   0.864226 0.938927 0.131711 -0.304903
C34   C     C_1   0.135776 0.438931 0.868291 -0.304922
C35   C     C_1   0.821083 0.924695 0.175089 0.078968
C36   C     C_1   0.178920 0.424694 0.824915 0.078964
C37   C     C_1   0.770117 0.905320 0.226668 0.015834
C38   C     C_1   0.229887 0.405311 0.773338 0.015840
C39   C     C_1   0.727203 0.888491 0.270206 0.012041
C40   C     C_1   0.272801 0.388475 0.729801 0.012057
C41   C     C_1   0.676326 0.869215 0.321895 0.083020
C42   C     C_1   0.323679 0.369194 0.678113 0.083135
C43   C     C_1   0.633436 0.855196 0.365598 -0.186698
C44   C     C_1   0.366567 0.355176 0.634407 -0.186747
O11   O     O_R   0.058070 0.289240 0.940580 -0.567072
O12   O     O_R   0.941930 0.789240 0.059420 -0.567075
O13   O     O_R   0.058330 0.616740 0.085880 -0.586164
O14   O     O_R   0.941670 0.116740 0.914120 -0.586132
C45   C     C_R   0.072050 0.448752 0.111033 0.881136
C46   C     C_R   0.927950 0.948736 0.888968 0.881137
O15   O     O_R   0.065180 0.619040 0.942700 -0.567175
O16   O     O_R   0.934820 0.119040 0.057300 -0.567177
O17   O     O_R   0.948870 0.787780 0.915270 -0.578467
O18   O     O_R   0.051130 0.287780 0.084730 -0.578442
C47   C     C_R   0.083264 0.450349 0.920286 0.938783
C48   C     C_R   0.916737 0.950347 0.079714 0.938781
O19   O     O_3   0.961870 0.453310 0.991210 -0.275715
O20   O     O_3   0.038130 0.953310 0.008790 -0.275719
V3    V     V_3+5 0.007070 0.728770 0.001630 1.155244
V4    V     V_3+5 0.992930 0.228770 0.998370 1.155240
C49   C     C_2   0.989088 0.010086 0.752549 0.538120
H13   H     H_    0.019163 0.006340 0.801937 0.001837
O21   O     O_2   0.013974 0.042575 0.695708 -0.559881
C50   C     C_2   0.010942 0.510625 0.247436 0.538126
H14   H     H_    0.980857 0.506710 0.198059 0.001858
O22   O     O_2   0.986077 0.543436 0.304262 -0.559910
N1    N     N_R   0.688808 0.890816 0.546617 0.197600
O23   O     O_R   0.687342 0.727403 0.517258 -0.417395
O24   O     O_R   0.687120 0.035871 0.504981 -0.410229
N2    N     N_R   0.311150 0.390467 0.453394 0.197699
O25   O     O_R   0.312458 0.534897 0.495345 -0.410513
O26   O     O_R   0.312972 0.226684 0.482395 -0.417280

loop_
_geom_bond_atom_site_label_1
_geom_bond_atom_site_label_2
_geom_bond_distance
_ccdc_geom_bond_type
C42   C44   1.247115 T    
C39   C41   1.479104 S    
C7    C29   1.409189 A    
C11   C13   1.390303 A    
O1    C3    1.334349 A    
O2    C4    1.334337 A    
O16   V4    1.858567 S    
C2    O7    1.352547 A    
C12   H12   1.082791 S    
C23   C25   1.389465 A    
C49   H13   1.084583 S    
O5    C3    1.334390 A    
C14   H10   1.076405 S    
C16   C20   1.440640 A    
C19   C21   1.414285 A    
C5    C29   1.397779 A    
C1    C44   1.506268 S    
H2    C24   1.085387 S    
C11   H11   1.082789 S    
C8    C45   1.474561 S    
C33   C35   1.247182 T    
O17   V3    2.008309 S    
C34   C36   1.247184 T    
C7    C27   1.410249 A    
C36   C38   1.479195 S    
C37   C39   1.247226 T    
C38   C40   1.247229 T    
C41   C43   1.247110 T    
C46   O17   1.328464 A    
C18   C26   1.418315 A    
C45   O18   1.328485 A    
C15   C17   1.442452 A    
C19   C27   1.424424 A    
C9    C31   1.398093 A    
O13   V3    2.018994 S    
C10   C32   1.398095 A    
O5    V1    2.018948 S    
O6    V2    2.018842 S    
C22   C24   1.387953 A    
C6    H4    1.084719 S    
C33   C48   1.505009 S    
C3    C32   1.489727 S    
C4    C31   1.489714 S    
C6    C30   1.397777 A    
C30   C50   1.489017 S    
C49   O21   1.221384 D    
C35   C37   1.479191 S    
O12   C48   1.342312 A    
O14   C46   1.327890 A    
N1    O23   1.300640 A    
O13   C45   1.327867 A    
C27   H5    1.077382 S    
C5    H3    1.084723 S    
C40   C42   1.479106 S    
O4    V2    1.858539 S    
C29   C49   1.489018 S    
C9    H7    1.084162 S    
O12   V3    1.835278 S    
C10   H8    1.084163 S    
N1    O24   1.301003 A    
O6    C4    1.334405 A    
O1    V2    2.006721 S    
C5    C21   1.401783 A    
N2    O26   1.300441 A    
O2    V1    2.006784 S    
O14   V4    2.018891 S    
H1    C23   1.085392 S    
C34   C47   1.505011 S    
O4    C2    1.360423 A    
C2    C43   1.506266 S    
C25   N1    1.420310 S    
C50   O22   1.221370 D    
C17   C31   1.440702 A    
C15   C19   1.440653 A    
C20   C28   1.424433 A    
C18   C32   1.440725 A    
C7    C46   1.474545 S    
C20   C22   1.414260 A    
O19   V4    1.753865 S    
O3    V1    1.858561 S    
C28   H6    1.077376 S    
C26   N2    1.420367 S    
O16   C48   1.350119 A    
O3    C1    1.360411 A    
C9    C11   1.386944 A    
C10   C12   1.386940 A    
C8    C30   1.409188 A    
C12   C14   1.390294 A    
C6    C22   1.401781 A    
C17   C25   1.418276 A    
C1    O8    1.352549 A    
C13   C15   1.413726 A    
O11   V4    1.835260 S    
O8    V2    1.828852 S    
C14   C16   1.413720 A    
O15   V3    1.858590 S    
C13   H9    1.076401 S    
C8    C28   1.410255 A    
C24   C26   1.389500 A    
O7    V1    1.828871 S    
N2    O25   1.300814 A    
O11   C47   1.342302 A    
O18   V4    2.008243 S    
C50   H14   1.084579 S    
C21   C23   1.387948 A    
O20   V3    1.753778 S    
O9    V2    1.754376 S    
O10   V1    1.754291 S    
O15   C47   1.350117 A    
C16   C18   1.442462 A    
