data_mof_unit_13733.cif
_audit_creation_date              2012-12-11T15:52:31-0500
_audit_creation_method            fapswitch 2.2
_symmetry_space_group_name_H-M    P1
_symmetry_Int_Tables_number       1
_space_group_crystal_system       triclinic
_cell_length_a                    6.923106
_cell_length_b                    14.561505
_cell_length_c                    16.02448
_cell_angle_alpha                 90.291902
_cell_angle_beta                  89.593928
_cell_angle_gamma                 90.223717
_cell_volume                      1615.3677078

loop_
_atom_site_label
_atom_site_type_symbol
_atom_type_description
_atom_site_fract_x
_atom_site_fract_y
_atom_site_fract_z
_atom_type_partial_charge
O1    O     O_R   0.494400 0.415640 0.412830 -0.539257
O2    O     O_R   0.823920 0.405510 0.586560 -0.544953
O3    O     O_R   0.994250 0.584360 0.587170 -0.541061
C1    C     C_R   0.654230 0.383371 0.615264 0.693547
O4    O     O_R   0.824110 0.404610 0.413450 -0.544108
O5    O     O_R   0.994440 0.583460 0.412820 -0.540722
C2    C     C_R   0.655213 0.382250 0.384260 0.686786
O6    O     O_R   0.494210 0.416540 0.587180 -0.538275
O7    O     O_3   0.660810 0.558680 0.500000 -0.369338
V1    V     V_3+5 0.935650 0.489110 0.500000 1.388274
O8    O     O_R   0.324150 0.594490 0.413440 -0.541712
C3    C     C_R   0.155881 0.616250 0.384190 0.694341
O9    O     O_R   0.323970 0.595390 0.586550 -0.544440
C4    C     C_R   0.154503 0.617500 0.615701 0.661923
V2    V     V_3+5 0.435660 0.510890 0.500000 1.390152
O10   O     O_3   0.160630 0.441320 0.500000 -0.367230
C5    C     C_3   0.928727 0.703922 0.714022 -0.310523
C6    C     C_3   0.916397 0.774011 0.786509 -0.323027
H1    H     H_    0.839067 0.742690 0.840385 0.131285
H2    H     H_    0.828054 0.833569 0.766368 0.137042
H3    H     H_    0.159039 0.806550 0.605146 0.131400
H4    H     H_    0.127019 0.909449 0.712415 0.147241
C7    C     C_3   0.232973 0.779798 0.661413 -0.332601
C8    C     C_3   0.251564 0.650718 0.764410 -0.320861
C9    C     C_3   0.142324 0.686588 0.687062 0.085120
H5    H     H_    0.404742 0.636107 0.747635 0.122506
H6    H     H_    0.185127 0.584231 0.783269 0.131758
C10   C     C_3   0.121377 0.807531 0.812471 0.070831
C11   C     C_3   0.216137 0.850862 0.733577 -0.368322
C12   C     C_3   0.246298 0.722291 0.837660 0.030404
H7    H     H_    0.387938 0.770301 0.644669 0.141727
C13   C     C_R   0.966905 0.742210 0.193381 0.128020
C14   C     C_R   0.983864 0.681228 0.261352 -0.136180
C15   C     C_R   0.145361 0.682128 0.313697 -0.092276
C16   C     C_R   0.294099 0.745108 0.297684 -0.174100
H8    H     H_    0.420820 0.747240 0.336911 0.125447
C17   C     C_R   0.279805 0.807280 0.231754 -0.159735
C18   C     C_R   0.117103 0.808187 0.179298 -0.104000
C19   C     C_R   0.795266 0.251424 0.692264 -0.143976
H9    H     H_    0.916283 0.256665 0.649751 0.136705
C20   C     C_R   0.790965 0.183410 0.754792 0.132238
C21   C     C_R   0.627389 0.179494 0.810047 -0.101143
C22   C     C_R   0.474989 0.241780 0.798394 -0.177217
H10   H     H_    0.349380 0.240451 0.839056 0.132831
C23   C     C_R   0.482263 0.307415 0.735151 -0.172074
H11   H     H_    0.362551 0.354452 0.728564 0.121478
C24   C     C_R   0.643159 0.313302 0.682004 -0.087557
C25   C     C_R   0.812312 0.274156 0.280967 -0.159857
C26   C     C_R   0.801058 0.210282 0.215462 -0.151310
H12   H     H_    0.933921 0.181304 0.191141 0.119561
C27   C     C_R   0.621252 0.184087 0.182013 -0.049205
C28   C     C_R   0.453035 0.223671 0.215972 -0.158965
H13   H     H_    0.312147 0.205293 0.192040 0.116554
C29   C     C_R   0.464290 0.287550 0.281478 -0.150021
H14   H     H_    0.331439 0.316547 0.305792 0.118614
C30   C     C_R   0.644086 0.313659 0.314991 -0.047363
O11   O     O_R   0.771300 0.080930 0.910090 -0.545670
O12   O     O_R   0.441270 0.092800 0.083770 -0.541936
O13   O     O_R   0.271080 0.913920 0.084380 -0.534474
C31   C     C_R   0.610153 0.115310 0.112889 0.691559
O14   O     O_R   0.441580 0.091910 0.910670 -0.539234
O15   O     O_R   0.271390 0.913020 0.910040 -0.539890
C32   C     C_R   0.611942 0.112305 0.880160 0.682862
O16   O     O_R   0.770990 0.081830 0.084440 -0.537632
O17   O     O_3   0.604750 0.938760 0.997250 -0.369629
V3    V     V_3+5 0.329850 0.008280 0.997210 1.387195
O18   O     O_R   0.941680 0.901940 0.910610 -0.546928
C33   C     C_R   0.110677 0.879354 0.881858 0.648949
O19   O     O_R   0.941370 0.902830 0.083720 -0.549061
C34   C     C_R   0.109359 0.878682 0.111440 0.676675
V4    V     V_3+5 0.829860 0.986420 0.997150 1.366977
O20   O     O_3   0.104830 0.056030 0.997180 -0.367196
H15   H     H_    0.844966 0.730162 0.660159 0.142246
H16   H     H_    0.396680 0.747649 0.847327 0.128001
H17   H     H_    0.362197 0.878300 0.748512 0.135500
C35   C     C_3   0.792066 0.736682 0.135912 -0.324968
C36   C     C_3   0.660033 0.652967 0.146715 -0.804622
H18   H     H_    0.742308 0.588466 0.136645 0.228762
H19   H     H_    0.590985 0.652930 0.209362 0.232494
H20   H     H_    0.542516 0.656008 0.100318 0.230490
H21   H     H_    0.702008 0.798789 0.145740 0.197394
H22   H     H_    0.843979 0.735421 0.070098 0.174070
H23   H     H_    0.872306 0.631146 0.274046 0.133005
H24   H     H_    0.396337 0.856106 0.222600 0.124702
C37   C     C_3   0.958138 0.115562 0.762319 -0.328501
C38   C     C_3   0.106484 0.115123 0.690909 -0.818221
H25   H     H_    0.035542 0.097980 0.630829 0.228762
H26   H     H_    0.181421 0.182304 0.686278 0.238504
H27   H     H_    0.218946 0.063020 0.703397 0.217798
H28   H     H_    0.038013 0.130735 0.820684 0.202579
H29   H     H_    0.897809 0.044818 0.765914 0.169320
H30   H     H_    0.859811 0.638328 0.733967 0.132916
H31   H     H_    0.953206 0.292542 0.304887 0.116351
C39   C     C_3   0.179731 0.677284 0.920653 -0.359116
C40   C     C_3   0.324863 0.606543 0.951744 -0.782554
H32   H     H_    0.331448 0.546179 0.909308 0.225281
H33   H     H_    0.471136 0.637679 0.956076 0.220853
H34   H     H_    0.279771 0.582217 0.014523 0.224171
H35   H     H_    0.164216 0.730417 0.970161 0.163479
H36   H     H_    0.037155 0.643145 0.913021 0.184365

loop_
_geom_bond_atom_site_label_1
_geom_bond_atom_site_label_2
_ccdc_geom_bond_type
C8    C9    S    
C18   C34   S    
H4    C11   S    
C20   C21   A    
C16   H8    S    
C8    H6    S    
C1    O6    A    
C37   H29   S    
C40   H34   S    
C19   C20   A    
C36   H18   S    
C7    C11   S    
C10   C11   S    
C16   C17   A    
C8    H5    S    
C6    H1    S    
O13   V3    S    
C37   C38   S    
C12   H16   S    
C38   H26   S    
O12   C31   A    
V2    O10   S    
O14   C32   A    
C15   C16   A    
O16   V4    S    
O19   V4    S    
O8    V2    S    
O14   V3    S    
O12   V3    S    
V3    O20   S    
C40   H32   S    
C26   C27   A    
C17   H24   S    
O1    V2    S    
C13   C18   A    
O7    V1    S    
O18   V4    S    
C23   C24   A    
O9    C4    A    
C5    H15   S    
C39   C40   S    
C5    H30   S    
C2    C30   S    
C28   C29   A    
O11   C32   A    
C36   H19   S    
C29   C30   A    
C25   H31   S    
O15   V3    S    
O18   C33   A    
C6    C10   S    
C35   C36   S    
C35   H22   S    
C19   H9    S    
O4    C2    A    
C38   H25   S    
O17   V4    S    
C27   C28   A    
C7    H7    S    
O2    C1    A    
C22   H10   S    
C13   C35   S    
C17   C18   A    
C14   H23   S    
C39   H36   S    
C37   H28   S    
C5    C6    S    
O11   V4    S    
C22   C23   A    
O3    C4    A    
C25   C26   A    
O17   V3    S    
O6    V2    S    
O9    V2    S    
C21   C22   A    
C3    C15   S    
O2    V1    S    
C28   H13   S    
C19   C24   A    
C36   H20   S    
C25   C30   A    
C29   H14   S    
C10   C33   S    
O1    C2    A    
C38   H27   S    
C35   H21   S    
O5    V1    S    
O8    C3    A    
C40   H33   S    
C11   H17   S    
C20   C37   S    
O15   C33   A    
C31   O16   A    
C5    C9    S    
C13   C14   A    
H3    C7    S    
O7    V2    S    
O4    V1    S    
C12   C39   S    
O3    V1    S    
V1    O10   S    
O5    C3    A    
C39   H35   S    
C10   C12   S    
C14   C15   A    
C6    H2    S    
C7    C9    S    
C4    C9    S    
O19   C34   A    
C8    C12   S    
O13   C34   A    
C23   H11   S    
V4    O20   S    
C26   H12   S    
C27   C31   S    
C21   C32   S    
C1    C24   S    
