data_mof_unit_24792.cif
_audit_creation_date              2012-12-10T16:52:36-0500
_audit_creation_method            fapswitch 2.2
_symmetry_space_group_name_H-M    P1
_symmetry_Int_Tables_number       1
_space_group_crystal_system       triclinic
_cell_length_a                    7.813021
_cell_length_b                    8.481478
_cell_length_c                    13.676244
_cell_angle_alpha                 93.506738
_cell_angle_beta                  92.28928
_cell_angle_gamma                 94.409259
_cell_volume                      900.987294121

loop_
_atom_site_label
_atom_site_type_symbol
_atom_type_description
_atom_site_fract_x
_atom_site_fract_y
_atom_site_fract_z
_atom_type_partial_charge
C1    C     C_R   0.048046 0.795080 0.511947 0.951317
C2    C     C_R   0.937103 0.482366 0.317456 0.894623
C3    C     C_R   0.089660 0.523342 0.790033 -0.073430
C4    C     C_R   0.903903 0.444989 0.212558 -0.092140
C5    C     C_R   0.038301 0.628290 0.954167 -0.194277
C6    C     C_R   0.919081 0.275863 0.064304 -0.192826
C7    C     C_R   0.982916 0.601569 0.855589 0.194557
C8    C     C_R   0.985878 0.326822 0.158499 0.194268
C9    C     C_R   0.237701 0.460996 0.825945 -0.327323
C10   C     C_R   0.762858 0.510532 0.171462 -0.334996
C11   C     C_R   0.292580 0.484912 0.924273 0.090012
C12   C     C_R   0.958667 0.207917 0.516146 0.950263
C13   C     C_R   0.681336 0.444358 0.084454 0.093785
C14   C     C_R   0.194691 0.576587 0.987603 0.130559
C15   C     C_R   0.765549 0.330554 0.028250 0.131959
C16   C     C_R   0.448599 0.429275 0.959277 0.081650
C17   C     C_R   0.516808 0.486155 0.053420 0.077554
C18   C     C_3   0.136338 0.248068 0.200659 -0.870993
C19   C     C_3   0.816170 0.664173 0.822747 -0.875805
C20   C     C_3   0.264748 0.023562 0.563813 -0.878794
C21   C     C_3   0.766931 0.994008 0.584682 -0.887751
C22   C     C_R   0.414885 0.576619 0.115370 -0.241269
C23   C     C_R   0.537345 0.317409 0.903876 -0.239072
C24   C     C_R   0.255276 0.618338 0.083255 -0.209221
C25   C     C_R   0.692738 0.268668 0.938293 -0.214590
C26   C     C_2   0.078759 0.960171 0.542781 -0.042057
C27   C     C_2   0.941956 0.050441 0.549206 -0.028955
C28   C     C_R   0.062094 0.512914 0.683069 0.851787
H1    H     H_    0.180435 0.686435 0.133106 0.146421
H2    H     H_    0.512751 0.627153 0.572775 0.188059
H3    H     H_    0.098652 0.188459 0.267495 0.237116
H4    H     H_    0.181181 0.157088 0.147818 0.225860
H5    H     H_    0.245905 0.337147 0.219427 0.259639
H6    H     H_    0.841230 0.753406 0.768169 0.230399
H7    H     H_    0.725923 0.565483 0.790478 0.260611
H8    H     H_    0.751963 0.722285 0.884751 0.228067
H9    H     H_    0.335732 0.935968 0.602911 0.227911
H10   H     H_    0.328372 0.045639 0.494244 0.253607
H11   H     H_    0.274855 0.132885 0.613433 0.255159
H12   H     H_    0.755192 0.180681 0.894669 0.145642
H13   H     H_    0.713394 0.090610 0.629553 0.235480
H14   H     H_    0.676195 0.958271 0.521209 0.255695
H15   H     H_    0.775600 0.895455 0.633703 0.246214
H16   H     H_    0.714032 0.609323 0.211967 0.158949
H17   H     H_    0.315471 0.402633 0.773894 0.165605
H18   H     H_    0.961935 0.693813 0.004556 0.141735
H19   H     H_    0.981351 0.187105 0.021169 0.138413
H20   H     H_    0.451122 0.611218 0.190938 0.155208
H21   H     H_    0.486255 0.259349 0.835424 0.144621
H22   H     H_    0.487252 0.372833 0.427246 0.191906
N1    N     N_2   0.440860 0.456490 0.474790 -0.169708
N2    N     N_2   0.559140 0.543510 0.525210 -0.171124
O1    O     O_R   0.891570 0.738930 0.506190 -0.614989
O2    O     O_R   0.108430 0.261070 0.493810 -0.619786
O3    O     O_R   0.174650 0.711050 0.490030 -0.612087
O4    O     O_R   0.825350 0.288950 0.509970 -0.614522
O5    O     O_R   0.909850 0.521900 0.644940 -0.617815
O6    O     O_R   0.090150 0.478100 0.355060 -0.604509
O7    O     O_R   0.192930 0.494020 0.628780 -0.631132
O8    O     O_R   0.807070 0.505980 0.371220 -0.610801
Zn1   Zn    Zn3+2 0.810990 0.518620 0.510790 0.918835
Zn2   Zn    Zn3+2 0.189010 0.481380 0.489210 0.916483

loop_
_geom_bond_atom_site_label_1
_geom_bond_atom_site_label_2
_ccdc_geom_bond_type
O6    Zn2   S    
C2    C4    S    
C2    O6    A    
O5    Zn1   S    
C3    C9    A    
C21   H15   S    
C20   H10   S    
C5    H18   S    
C22   H20   S    
C17   C22   A    
C13   C17   A    
N2    Zn1   S    
C23   C25   A    
H22   N1    S    
C21   C27   S    
C19   H7    S    
C28   O5    A    
C9    H17   S    
C20   H9    S    
C9    C11   A    
C26   C27   D    
C12   O4    A    
N1    Zn2   S    
C20   C26   S    
C21   H13   S    
C6    C8    A    
C3    C28   S    
C11   C14   A    
C16   C23   A    
C7    C19   S    
C19   H8    S    
C13   C15   A    
C25   H12   S    
C1    O3    A    
C1    C26   S    
C18   H5    S    
C22   C24   A    
C23   H21   S    
C15   C25   A    
C6    H19   S    
C8    C18   S    
C12   C27   S    
C10   H16   S    
N1    N2    D    
O3    Zn2   S    
C2    O8    A    
C18   H4    S    
O1    Zn1   S    
C11   C16   A    
C28   O7    A    
C14   C24   A    
C4    C8    A    
C5    C7    A    
C20   H11   S    
C1    O1    A    
C24   H1    S    
C16   C17   A    
O7    Zn2   S    
H2    N2    S    
C18   H3    S    
O2    Zn2   S    
C3    C7    A    
C6    C15   A    
O4    Zn1   S    
C5    C14   A    
C19   H6    S    
C12   O2    A    
C21   H14   S    
C4    C10   A    
O8    Zn1   S    
C10   C13   A    
