data_mof_unit_6656.cif
_audit_creation_date              2013-03-05T16:14:03-0500
_audit_creation_method            fapswitch 2.2
_symmetry_space_group_name_H-M    P1
_symmetry_Int_Tables_number       1
_space_group_crystal_system       triclinic
_cell_length_a                    8.37635
_cell_length_b                    17.36293
_cell_length_c                    22.89823
_cell_angle_alpha                 99.661832
_cell_angle_beta                  89.625188
_cell_angle_gamma                 98.671759
_cell_volume                      3244.90184112

loop_
_atom_site_label
_atom_site_type_symbol
_atom_site_description
_atom_site_fract_x
_atom_site_fract_y
_atom_site_fract_z
_atom_type_partial_charge
P1    P     P_3+3 0.055640 0.433080 0.366120 0.521652
O1    O     O_2   0.889310 0.456460 0.358460 -0.259393
O2    O     O_3   0.129890 0.457280 0.429550 -0.377013
O3    O     O_3   0.674650 0.600620 0.400940 -0.397245
O4    O     O_2   0.787411 0.542721 0.295918 -0.347377
O5    O     O_3   0.980375 0.331723 0.351400 -0.571421
O6    O     O_3   0.726031 0.686113 0.305668 -0.475922
H1    H     H_    0.691768 0.749718 0.388447 0.071226
C1    C     C_3   0.670379 0.821858 0.320757 0.698839
P2    P     P_3+3 0.671420 0.681950 0.554390 0.598267
P3    P     P_3+3 0.146358 0.740847 0.428502 0.585941
O7    O     O_2   0.849130 0.693580 0.537840 -0.324514
O8    O     O_3   0.093680 0.641380 0.431770 -0.337519
O9    O     O_2   0.043358 0.786055 0.474761 -0.285915
O10   O     O_3   0.685507 0.711894 0.631718 -0.525064
O11   O     O_3   0.076172 0.754401 0.359644 -0.539990
C2    C     C_3   0.144947 0.705592 0.313747 0.162755
H2    H     H_    0.062526 0.648848 0.302645 0.144243
H3    H     H_    0.257722 0.687497 0.328008 0.021191
C3    C     C_3   0.182671 0.747699 0.258766 0.703510
C4    C     C_3   0.242658 0.724017 0.644966 0.906391
C5    C     C_3   0.273136 0.800008 0.692113 -0.147426
H4    H     H_    0.322916 0.787174 0.733598 0.185282
H5    H     H_    0.157051 0.821438 0.703192 0.191607
Ba1   Ba    Ba6+2 0.857050 0.537370 0.474190 1.697594
C6    C     C_3   0.101041 0.283537 0.350744 0.766339
H6    H     H_    0.215760 0.318823 0.368754 -0.000137
C7    C     C_3   0.118663 0.240609 0.286573 -0.915993
H7    H     H_    0.001151 0.205515 0.269338 0.273240
H8    H     H_    0.209057 0.199152 0.285229 0.262252
H9    H     H_    0.158194 0.284606 0.256799 0.239473
C8    C     C_3   0.747708 0.657113 0.660030 0.653565
H10   H     H_    0.866452 0.648513 0.641309 0.016887
C9    C     C_3   0.770274 0.689214 0.727865 0.684257
P4    P     P_3+3 0.134070 0.566990 0.633890 0.578492
O12   O     O_2   0.300380 0.543560 0.641570 -0.297481
O13   O     O_3   0.059830 0.542790 0.570460 -0.359152
O14   O     O_3   0.515070 0.399440 0.599070 -0.370398
O15   O     O_3   0.137800 0.666715 0.668708 -0.646240
P5    P     P_3+3 0.062898 0.258796 0.572909 0.603071
O16   O     O_3   0.612780 0.404640 0.465950 -0.358917
O17   O     O_3   0.096040 0.358680 0.568240 -0.391188
O18   O     O_2   0.182217 0.220296 0.529592 -0.274465
O19   O     O_3   0.123550 0.244041 0.642575 -0.485634
Ba2   Ba    Ba6+2 0.332790 0.462700 0.525820 1.698632
P6    P     P_3+3 0.659068 0.592372 0.323569 0.527562
C10   C     C_3   0.646210 0.741275 0.341970 0.157751
H11   H     H_    0.515143 0.720075 0.340642 0.003511
H12   H     H_    0.567367 0.852259 0.336897 0.115936
O20   O     O_3   0.576930 0.595420 0.534060 -0.377972
C11   C     C_3   0.535692 0.312271 0.332454 1.237738
H13   H     H_    0.411612 0.307958 0.316627 -0.357855
C12   C     C_3   0.623573 0.282013 0.276807 -0.783685
H14   H     H_    0.561226 0.222724 0.256128 0.214528
H15   H     H_    0.623952 0.322864 0.244258 0.204178
H16   H     H_    0.749334 0.276589 0.287265 0.251148
P7    P     P_3+3 0.526945 0.303608 0.450060 0.524509
O21   O     O_2   0.340570 0.306450 0.462190 -0.363629
O22   O     O_3   0.545658 0.261834 0.374605 -0.602230
C13   C     C_3   0.066119 0.299897 0.685770 0.259495
H17   H     H_    0.131065 0.359627 0.682712 0.098204
H18   H     H_    0.934527 0.299032 0.680018 -0.010007
C14   C     C_3   0.099371 0.282764 0.747513 -0.095790
H19   H     H_    0.064582 0.330807 0.780712 0.104935
H20   H     H_    0.229321 0.283144 0.754783 0.171469
P8    P     P_3+3 0.540694 0.411050 0.676115 0.494411
C15   C     C_3   0.563881 0.266889 0.685976 0.046919
H21   H     H_    0.680913 0.285745 0.710374 0.116770
O23   O     O_2   0.416143 0.463425 0.702133 -0.338703
O24   O     O_3   0.462578 0.323876 0.700818 -0.528532
H22   H     H_    0.583818 0.256493 0.637385 0.053536
C16   C     C_3   0.478585 0.189932 0.704048 0.332075
H23   H     H_    0.355544 0.177317 0.683496 0.137167
H24   H     H_    0.944842 0.306783 0.044372 0.186502
H25   H     H_    0.863598 0.303189 0.942297 0.206251
C17   C     C_R   0.339078 0.520557 0.332492 -0.497686
C18   C     C_R   0.134959 0.552975 0.938274 -0.086945
C19   C     C_R   0.089067 0.549456 0.878252 0.568094
O25   O     O_2   0.131132 0.606634 0.854071 -0.515673
N1    N     N_R   0.993910 0.482811 0.847310 -0.175496
C20   C     C_R   0.939974 0.419647 0.876432 0.510296
O26   O     O_2   0.851153 0.361898 0.850587 -0.531580
C21   C     C_R   0.986724 0.420830 0.935914 -0.058828
C22   C     C_R   0.083891 0.488076 0.967074 -0.007507
C23   C     C_R   0.229805 0.620368 0.970435 -0.072105
C24   C     C_R   0.272369 0.623290 0.029813 -0.041664
C25   C     C_R   0.222710 0.558668 0.059033 -0.070243
C26   C     C_R   0.128917 0.490717 0.027471 -0.013177
C27   C     C_R   0.937933 0.356060 0.965055 -0.055682
C28   C     C_R   0.984832 0.358091 0.023917 -0.099402
C29   C     C_R   0.080201 0.425405 0.056032 -0.056154
C30   C     C_R   0.128137 0.428620 0.115865 0.538696
N2    N     N_R   0.216525 0.496833 0.147799 -0.169173
C31   C     C_R   0.264249 0.561133 0.119185 0.586067
C32   C     C_2   0.788403 0.458049 0.767586 -0.211053
C33   C     C_3   0.740166 0.465240 0.705752 0.349184
C34   C     C_1   0.017423 0.505639 0.683301 0.356745
C35   C     C_2   0.065135 0.506208 0.739369 -0.161004
C36   C     C_2   0.945242 0.480678 0.785365 0.082796
C37   C     C_R   0.417174 0.535416 0.232700 -0.152574
C38   C     C_R   0.455437 0.546473 0.293443 0.226998
C39   C     C_R   0.187846 0.479848 0.311951 0.176121
C40   C     C_R   0.145964 0.472494 0.251438 -0.196812
C41   C     C_R   0.259710 0.501348 0.210669 0.122384
O27   O     O_2   0.093188 0.370001 0.139028 -0.587882
O28   O     O_2   0.342536 0.621331 0.146109 -0.537823
C42   C     C_2   0.878353 0.463492 0.663577 -0.602569
H26   H     H_    0.344786 0.676602 0.052812 0.192203
H27   H     H_    0.510305 0.553817 0.202808 0.186870
H28   H     H_    0.271065 0.671425 0.949845 0.196820
H29   H     H_    0.190220 0.526583 0.752641 0.207408
H30   H     H_    0.695116 0.443910 0.798853 0.192666
H31   H     H_    0.025379 0.444870 0.236571 0.186573
H32   H     H_    0.369547 0.529094 0.379216 0.159522
H33   H     H_    0.861827 0.432777 0.618253 0.156476
C43   C     C_2   0.444130 0.718916 0.481384 -0.257969
C44   C     C_3   0.370566 0.767624 0.442111 0.088906
C45   C     C_2   0.428897 0.854510 0.457243 -0.203024
C46   C     C_2   0.566455 0.880327 0.489311 -0.123775
C47   C     C_2   0.645913 0.823394 0.517472 -0.163312
C48   C     C_1   0.578335 0.748381 0.513537 0.286600
C49   C     C_R   0.788764 0.138008 0.545791 0.282531
C50   C     C_R   0.851186 0.218665 0.549176 0.099366
C51   C     C_R   0.611701 0.241056 0.497447 0.297595
C52   C     C_R   0.549916 0.160567 0.493251 -0.257142
C53   C     C_R   0.636357 0.108648 0.517013 0.005925
C54   C     C_2   0.646901 0.963279 0.491708 0.553539
C55   C     C_2   0.564175 0.023816 0.509784 -0.077335
C56   C     C_R   0.758406 0.269884 0.527794 -0.399863
H34   H     H_    0.436594 0.010843 0.519378 0.157223
H35   H     H_    0.758404 0.844680 0.542335 0.207769
H36   H     H_    0.373344 0.894435 0.434851 0.177396
H37   H     H_    0.438013 0.137371 0.468699 0.193302
H38   H     H_    0.403489 0.655673 0.473168 0.151931
H39   H     H_    0.808864 0.331230 0.528828 0.172704
N3    N     N_R   0.383224 0.862566 0.671033 0.281868
O29   O     O_R   0.534791 0.856267 0.663078 -0.253570
O30   O     O_R   0.332339 0.927731 0.664411 -0.215338
N4    N     N_R   0.050687 0.226659 0.390571 0.243923
O31   O     O_R   0.039469 0.149786 0.373902 -0.332477
O32   O     O_R   0.997923 0.254389 0.442419 -0.383068
O33   O     O_3   0.641316 0.585638 0.651438 -0.708281
H40   H     H_    0.683439 0.550068 0.618426 0.315412
O34   O     O_3   0.810493 0.870829 0.345478 -0.708214
H41   H     H_    0.902637 0.843065 0.332971 0.376209
N5    N     N_R   0.871721 0.767239 0.738702 0.220958
O35   O     O_R   0.970982 0.785084 0.784175 -0.300450
O36   O     O_R   0.838729 0.824118 0.712484 -0.271195
O37   O     O_3   0.850400 0.636435 0.752834 -0.773877
H42   H     H_    0.803926 0.630115 0.792542 0.355442
N6    N     N_R   0.612354 0.694888 0.755978 0.199677
O38   O     O_R   0.580361 0.762189 0.784152 -0.313345
O39   O     O_R   0.512047 0.631031 0.759876 -0.380073
O40   O     O_3   0.599750 0.390982 0.353091 -0.697744
H43   H     H_    0.508055 0.418258 0.367789 0.274635
O41   O     O_3   0.669396 0.813594 0.258619 -0.643407
H44   H     H_    0.771072 0.794723 0.244388 0.385404
O42   O     O_3   0.339091 0.736231 0.240529 -0.736604
H45   H     H_    0.370107 0.769511 0.209771 0.395356
N7    N     N_R   0.011791 0.206710 0.756722 0.297610
O43   O     O_R   0.044442 0.141571 0.725071 -0.221830
O44   O     O_R   0.915902 0.203043 0.801455 -0.249903
N8    N     N_R   0.564482 0.124625 0.681680 0.226111
O45   O     O_R   0.699369 0.118264 0.706710 -0.242373
O46   O     O_R   0.497231 0.067838 0.641060 -0.317980
N9    N     N_R   0.462071 0.195999 0.768419 0.259172
O47   O     O_R   0.524832 0.259209 0.804789 -0.325598
O48   O     O_R   0.383041 0.136776 0.789818 -0.247382
N10   N     N_R   0.878747 0.087021 0.571569 0.271372
O49   O     O_R   0.026548 0.081079 0.555961 -0.276559
O50   O     O_R   0.807578 0.038578 0.604556 -0.254983
O51   O     O_3   0.803741 0.978427 0.472760 -0.657550
H46   H     H_    0.843999 0.927336 0.460963 0.360960
N11   N     N_R   0.068670 0.714332 0.208649 0.224345
O52   O     O_R   0.092430 0.738577 0.158042 -0.325057
O53   O     O_R   0.946702 0.659516 0.212706 -0.392754
N12   N     N_R   0.180114 0.833352 0.275199 0.230210
O54   O     O_R   0.089257 0.869292 0.246296 -0.317045
O55   O     O_R   0.279281 0.875381 0.315963 -0.387477
O56   O     O_3   0.387975 0.697685 0.631125 -0.713776
H47   H     H_    0.424530 0.682270 0.667868 0.359955
N13   N     N_R   0.169953 0.739655 0.591666 0.213257
O57   O     O_R   0.157231 0.685332 0.545072 -0.340216
O58   O     O_R   0.106491 0.803568 0.591178 -0.353495

loop_
_geom_bond_atom_site_label_1
_geom_bond_atom_site_label_2
_geom_bond_distance
_ccdc_geom_bond_type
P1    Ba1   3.394122 S    
C25   C26   1.404724 A    
C14   H20   1.101112 S    
C11   O40   1.394408 S    
C8    C9    1.562250 S    
N2    C31   1.393940 Am   
C47   H35   1.086254 S    
P3    O8    1.730936 S    
N10   O49   1.300552 A    
C32   C33   1.505197 S    
P2    C48   1.859135 S    
O3    Ba1   2.740706 S    
P7    O21   1.590508 D    
O10   C8    1.399035 S    
O3    P6    1.757424 S    
C18   C19   1.418478 A    
C47   C48   1.328106 D    
C6    H6    1.100759 S    
C13   C14   1.528483 S    
C7    H7    1.113303 S    
N8    O46   1.298523 A    
C15   C16   1.536548 S    
P2    O10   1.759196 S    
C23   C24   1.398598 A    
P3    O9    1.547800 D    
C32   C36   1.357818 D    
P7    O22   1.773687 S    
P8    O23   1.538323 D    
C43   H38   1.084363 S    
C25   C31   1.414927 A    
C56   H39   1.081492 S    
N4    O31   1.314404 A    
C37   C41   1.420328 A    
C2    C3    1.566337 S    
C43   C44   1.524249 S    
C13   H18   1.108508 S    
P1    O1    1.527847 D    
N11   O52   1.301984 A    
C30   N2    1.391965 Am   
O14   Ba2   2.740187 S    
C32   H30   1.085033 S    
Ba1   O13   2.772100 S    
C45   C46   1.346329 D    
C1    O34   1.402514 S    
C4    O56   1.380306 S    
C3    N11   1.479466 S    
O14   P8    1.752612 S    
C1    O41   1.405866 S    
O11   C2    1.412431 S    
N12   O55   1.300969 A    
C15   H22   1.112503 S    
C17   H32   1.081994 S    
N6    O38   1.301023 A    
C8    O33   1.399946 S    
P5    O17   1.735772 S    
C52   C53   1.414070 A    
C18   C23   1.407412 A    
C37   H27   1.081855 S    
C3    O42   1.405120 S    
C4    C5    1.547725 S    
C50   C56   1.412134 A    
N9    O48   1.302041 A    
N10   O50   1.299831 A    
O8    Ba1   2.760035 S    
C14   N7    1.457994 S    
N2    C41   1.473045 S    
C20   C21   1.415658 A    
C9    O37   1.408353 S    
C34   C35   1.345139 D    
N5    O36   1.302144 A    
C12   H15   1.111455 S    
C17   C39   1.397048 A    
C4    N13   1.450869 S    
C21   C27   1.409501 A    
P6    C38   1.855084 S    
Ba2   O21   2.865748 S    
C43   C48   1.333587 D    
C44   C45   1.496380 S    
C15   H21   1.108726 S    
O6    P6    1.754246 S    
O2    Ba1   2.941484 S    
C1    H12   1.107900 S    
N3    O30   1.299510 A    
C6    N4    1.468531 S    
Ba1   O16   2.823184 S    
C29   C30   1.419923 A    
C24   C25   1.409715 A    
N1    C20   1.394163 Am   
C18   C22   1.409984 A    
C54   O51   1.382036 S    
C12   H14   1.110930 S    
O2    Ba2   2.772715 S    
C20   O26   1.220975 D    
C11   H13   1.090656 S    
C5    N3    1.459887 S    
C13   H17   1.109124 S    
P1    O2    1.549547 S    
P4    O12   1.528130 D    
N7    O44   1.301562 A    
O42   H45   0.993162 S    
C49   C53   1.423335 A    
P4    O15   1.776347 S    
P4    Ba2   3.394739 S    
Ba1   O20   2.933952 S    
P3    O11   1.750852 S    
C10   H11   1.102965 S    
C4    O15   1.403104 S    
C26   C29   1.409299 A    
C46   C47   1.501323 S    
C49   N10   1.443150 S    
P5    O18   1.547757 D    
C2    H2    1.106835 S    
O5    C6    1.404409 S    
O12   Ba2   2.815362 S    
N4    O32   1.304650 A    
C42   H33   1.083758 S    
O40   H43   0.990095 S    
P2    O7    1.525735 D    
N12   O54   1.301927 A    
P2    Ba1   3.418221 S    
C33   C42   1.503163 S    
C23   H28   1.083220 S    
N1    C36   1.471347 S    
N9    O47   1.303629 A    
C5    H5    1.105664 S    
C21   C22   1.405774 A    
C11   O22   1.418547 S    
O13   Ba2   2.942334 S    
C54   C55   1.351344 D    
P2    O20   1.584890 S    
Ba1   Ba2   4.592665 S    
O51   H46   0.991052 S    
P4    O13   1.549517 S    
P8    C33   1.861181 S    
N5    O35   1.302640 A    
C12   H16   1.103039 S    
C52   H37   1.083483 S    
C17   C38   1.394035 A    
P5    C50   1.854342 S    
C31   O28   1.218565 D    
C53   C55   1.487755 S    
C35   H29   1.082413 S    
P1    O5    1.754213 S    
N13   O58   1.302415 A    
C40   H31   1.081557 S    
C19   O25   1.221819 D    
C16   N9    1.467130 S    
C7    H9    1.119644 S    
C24   H26   1.083217 S    
C22   C26   1.427334 A    
C16   H23   1.111459 S    
C55   H34   1.087201 S    
C9    N6    1.476741 S    
C1    C10   1.541423 S    
C3    N12   1.474934 S    
O4    P6    1.545046 D    
C6    C7    1.548933 S    
O7    Ba1   2.865502 S    
O34   H41   0.986452 S    
C15   O24   1.396823 S    
N7    O43   1.301829 A    
H24   C28   1.083161 S    
C7    H8    1.117594 S    
C49   C50   1.408524 A    
H1    C10   1.111665 S    
O16   P7    1.770715 S    
O37   H42   1.003143 S    
C8    H10   1.101406 S    
P7    C51   1.870608 S    
C9    N5    1.470298 S    
C28   C29   1.408054 A    
P8    O24   1.738670 S    
Ba2   O20   2.822409 S    
O19   C13   1.400977 S    
C37   C38   1.404225 A    
C2    H3    1.107102 S    
C16   N8    1.453291 S    
C51   C56   1.397297 A    
O1    Ba1   2.815068 S    
C19   N1    1.389388 Am   
N6    O39   1.301744 A    
C39   C40   1.411694 A    
N11   O53   1.301327 A    
N8    O45   1.297939 A    
C45   H36   1.086123 S    
H25   C27   1.083185 S    
C14   H19   1.102814 S    
C34   C42   1.317330 D    
C30   O27   1.221589 D    
P5    O19   1.748002 S    
O41   H44   0.991744 S    
C35   C36   1.524122 S    
C40   C41   1.425364 A    
O33   H40   0.991391 S    
O16   Ba2   2.933095 S    
C5    H4    1.109130 S    
N3    O29   1.299663 A    
C11   C12   1.523549 S    
C27   C28   1.399651 A    
P4    C34   1.856274 S    
P1    C39   1.863652 S    
O17   Ba2   2.760758 S    
P3    C44   1.880441 S    
O56   H47   0.988388 S    
N13   O57   1.293328 A    
O6    C10   1.404980 S    
C51   C52   1.402713 A    
C46   C54   1.487537 S    
