data_mof_unit_48874.cif
_audit_creation_date              2012-12-10T18:10:24-0500
_audit_creation_method            fapswitch 2.2
_symmetry_space_group_name_H-M    P1
_symmetry_Int_Tables_number       1
_space_group_crystal_system       triclinic
_cell_length_a                    10.853849
_cell_length_b                    9.593629
_cell_length_c                    15.845022
_cell_angle_alpha                 90.358864
_cell_angle_beta                  89.190849
_cell_angle_gamma                 90.700905
_cell_volume                      1649.58871683

loop_
_atom_site_label
_atom_site_type_symbol
_atom_type_description
_atom_site_fract_x
_atom_site_fract_y
_atom_site_fract_z
_atom_type_partial_charge
C1    C     C_R   0.260018 0.499028 0.504818 0.796211
C2    C     C_3   0.633609 0.523085 0.948593 -0.377489
C3    C     C_3   0.634862 0.535908 0.047232 0.668671
C4    C     C_1   0.499753 0.501160 0.824643 0.022118
C5    C     C_1   0.500529 0.498560 0.175572 0.106451
C6    C     C_1   0.500228 0.498859 0.251150 -0.131184
C7    C     C_3   0.067771 0.634932 0.554080 0.441483
C8    C     C_3   0.064935 0.367144 0.559570 0.449275
C9    C     C_3   0.923561 0.625315 0.557809 0.256818
C10   C     C_3   0.922277 0.361751 0.545138 0.230623
C11   C     C_3   0.073902 0.485532 0.410297 0.221511
C12   C     C_3   0.120559 0.497262 0.506283 -0.210539
C13   C     C_3   0.876568 0.499926 0.503264 -0.284383
C14   C     C_R   0.500164 0.499632 0.340749 0.811729
C15   C     C_3   0.930370 0.514656 0.409659 0.545857
C16   C     C_3   0.626999 0.086473 0.511443 0.313084
C17   C     C_3   0.625139 0.921836 0.520877 0.245519
C18   C     C_3   0.422584 0.084475 0.572066 0.036032
C19   C     C_3   0.410419 0.919774 0.565893 0.022278
C20   C     C_3   0.451516 0.083109 0.420760 0.009278
C21   C     C_3   0.462013 0.916200 0.418004 0.021614
C22   C     C_R   0.738968 0.500432 0.501336 0.919229
C23   C     C_R   0.499690 0.500354 0.659371 0.819750
C24   C     C_3   0.406678 0.609841 0.050748 0.690286
C25   C     C_3   0.462641 0.349681 0.047981 0.623835
C26   C     C_3   0.450263 0.358907 0.950131 -0.410767
C27   C     C_3   0.418455 0.619328 0.952118 -0.568314
C28   C     C_1   0.499592 0.501086 0.749034 -0.145076
C29   C     C_3   0.501228 0.498542 0.082970 0.059776
C30   C     C_3   0.500382 0.500687 0.916886 0.024820
Cu1   Cu    Cu3+1 0.499860 0.642410 0.500040 0.954655
Cu2   Cu    Cu3+1 0.499860 0.357590 0.500040 1.000522
H1    H     H_    0.326308 0.615555 0.922197 0.193759
H2    H     H_    0.352021 0.346442 0.931861 0.170351
H3    H     H_    0.884688 0.722554 0.532446 0.157350
H4    H     H_    0.897638 0.275305 0.501626 0.085456
H5    H     H_    0.668007 0.131316 0.569495 0.142783
H6    H     H_    0.648289 0.899323 0.587193 0.104691
H7    H     H_    0.509380 0.123137 0.367679 0.164261
H8    H     H_    0.534158 0.895033 0.369817 0.124003
H9    H     H_    0.329607 0.127821 0.567055 0.171980
H10   H     H_    0.315383 0.897987 0.545243 0.158332
H11   H     H_    0.500845 0.271831 0.919014 0.204647
H12   H     H_    0.460342 0.721392 0.933622 0.193333
H13   H     H_    0.676450 0.616403 0.918183 0.164331
H14   H     H_    0.690518 0.433176 0.927453 0.229406
N1    N     N_3   0.500250 0.143650 0.501830 -0.176116
N2    N     N_3   0.500250 0.856350 0.501830 -0.176059
O1    O     O_R   0.317570 0.620260 0.500050 -0.565443
O2    O     O_R   0.317570 0.379740 0.500050 -0.524908
O3    O     O_R   0.499890 0.620310 0.379470 -0.558523
O4    O     O_R   0.499890 0.379690 0.379470 -0.558213
O5    O     O_R   0.682190 0.620260 0.500020 -0.564411
O6    O     O_R   0.682190 0.379740 0.500020 -0.534205
O7    O     O_R   0.499870 0.620210 0.620600 -0.603630
O8    O     O_R   0.499870 0.379790 0.620600 -0.541535
N3    N     N_3   0.139315 0.583586 0.352758 -0.474396
H15   H     H_    0.231657 0.555864 0.345024 0.229740
H16   H     H_    0.137514 0.686736 0.371724 0.263526
N4    N     N_3   0.100983 0.344672 0.376429 -0.544634
H17   H     H_    0.029906 0.273323 0.387482 0.210185
H18   H     H_    0.109410 0.347591 0.310556 0.283104
O9    O     O_3   0.911579 0.652243 0.382197 -0.716028
H19   H     H_    0.825090 0.659311 0.363364 0.358784
O10   O     O_3   0.871249 0.425760 0.350306 -0.723870
H20   H     H_    0.835246 0.343050 0.378554 0.326592
O11   O     O_3   0.707013 0.131747 0.445698 -0.723133
H21   H     H_    0.695937 0.073156 0.394719 0.320069
O12   O     O_3   0.724191 0.865872 0.474107 -0.725855
H22   H     H_    0.697879 0.836208 0.417505 0.334981
N5    N     N_3   0.466229 0.130809 0.655447 -0.538583
H23   H     H_    0.543637 0.076777 0.674863 0.196991
H24   H     H_    0.396156 0.115833 0.700655 0.231170
N6    N     N_3   0.415771 0.862458 0.651423 -0.605904
H25   H     H_    0.504025 0.843742 0.673405 0.242057
H26   H     H_    0.353232 0.781007 0.661419 0.249723
N7    N     N_3   0.328043 0.135556 0.402962 -0.498332
H27   H     H_    0.260836 0.086613 0.440035 0.211949
H28   H     H_    0.307152 0.114990 0.339834 0.214496
N8    N     N_3   0.353079 0.843955 0.384127 -0.512326
H29   H     H_    0.272116 0.870534 0.415437 0.215817
H30   H     H_    0.343056 0.871113 0.320774 0.218363
O13   O     O_3   0.285304 0.573680 0.077073 -0.664990
H31   H     H_    0.246019 0.513067 0.034015 0.346430
O14   O     O_3   0.349459 0.305783 0.084452 -0.736005
H32   H     H_    0.332577 0.209511 0.063858 0.341940
O15   O     O_3   0.552867 0.250014 0.066191 -0.697727
H33   H     H_    0.549315 0.232759 0.127903 0.343237
O16   O     O_3   0.434386 0.741027 0.086523 -0.706933
H34   H     H_    0.369294 0.806176 0.068838 0.347203
O17   O     O_3   0.672498 0.671129 0.073365 -0.683651
H35   H     H_    0.644208 0.741296 0.032514 0.343699
O18   O     O_3   0.722221 0.441155 0.077050 -0.657773
H36   H     H_    0.737384 0.463141 0.137365 0.362206
N9    N     N_3   0.106802 0.766385 0.513259 -0.647507
H37   H     H_    0.045165 0.799015 0.467789 0.226707
H38   H     H_    0.104673 0.846815 0.558182 0.216558
N10   N     N_3   0.120177 0.231261 0.536659 -0.604775
H39   H     H_    0.063782 0.166597 0.500456 0.180074
H40   H     H_    0.130432 0.172027 0.591288 0.208347
O19   O     O_3   0.109451 0.642329 0.638145 -0.656869
H41   H     H_    0.200303 0.640553 0.637238 0.311247
O20   O     O_3   0.085145 0.388073 0.646707 -0.613931
H42   H     H_    0.175388 0.384007 0.656005 0.313121
O21   O     O_3   0.878917 0.612329 0.641467 -0.594325
H43   H     H_    0.880601 0.706975 0.667251 0.332654
O22   O     O_3   0.858457 0.336360 0.621737 -0.602113
H44   H     H_    0.872429 0.237307 0.636290 0.323377

loop_
_geom_bond_atom_site_label_1
_geom_bond_atom_site_label_2
_ccdc_geom_bond_type
O15   H33   S    
C17   O12   S    
O18   H36   S    
N9    H37   S    
C24   C27   S    
C18   N1    S    
C23   O8    A    
C22   O6    A    
N7    H27   S    
C27   H1    S    
O19   H41   S    
N6    H26   S    
C20   N7    S    
C3    O17   S    
C24   O13   S    
C5    C6    T    
N3    H16   S    
C9    O21   S    
C15   O10   S    
C25   O15   S    
N4    H18   S    
C18   C19   S    
C3    C29   S    
C9    C13   S    
C24   C29   S    
Cu2   O4    S    
C8    N10   S    
C11   C15   S    
C27   H12   S    
C26   H2    S    
C14   O4    A    
O13   H31   S    
C16   C17   S    
O22   H44   S    
C17   N2    S    
C1    O2    A    
C19   H10   S    
C16   H5    S    
C21   N2    S    
C24   O16   S    
C27   C30   S    
C10   O22   S    
C1    C12   S    
Cu1   O1    S    
C16   N1    S    
Cu2   O6    S    
C4    C28   T    
C26   H11   S    
C22   O5    A    
C5    C29   S    
N7    H28   S    
C2    H13   S    
C25   C29   S    
C7    C12   S    
N6    H25   S    
O11   H21   S    
N8    H30   S    
C18   H9    S    
O17   H35   S    
N5    H24   S    
C20   H7    S    
C19   N2    S    
C25   C26   S    
O14   H32   S    
C2    H14   S    
N4    H17   S    
C6    C14   S    
C14   O3    A    
C8    C12   S    
C25   O14   S    
C3    O18   S    
C16   O11   S    
C23   C28   S    
Cu1   O5    S    
Cu2   O2    S    
N10   H39   S    
N10   H40   S    
Cu1   N2    S    
C13   C15   S    
Cu2   N1    S    
C11   N4    S    
C18   N5    S    
C7    C9    S    
Cu1   Cu2   S    
Cu1   O3    S    
N8    H29   S    
C10   C13   S    
C11   C12   S    
N9    H38   S    
C23   O7    A    
C7    N9    S    
O21   H43   S    
C2    C30   S    
C2    C3    S    
N5    H23   S    
N3    H15   S    
C21   H8    S    
C21   N8    S    
C13   C22   S    
C17   H6    S    
C19   N6    S    
O12   H22   S    
C8    O20   S    
C20   N1    S    
O9    H19   S    
C20   C21   S    
C8    C10   S    
O10   H20   S    
C7    O19   S    
O20   H42   S    
C9    H3    S    
C15   O9    S    
C10   H4    S    
Cu1   O7    S    
O16   H34   S    
C11   N3    S    
C1    O1    A    
Cu2   O8    S    
C4    C30   S    
C26   C30   S    
