data_mof_unit_63936.cif
_audit_creation_date              2013-03-05T16:37:32-0500
_audit_creation_method            fapswitch 2.2
_symmetry_space_group_name_H-M    P1
_symmetry_Int_Tables_number       1
_space_group_crystal_system       triclinic
_cell_length_a                    13.592835
_cell_length_b                    18.68419
_cell_length_c                    18.976329
_cell_angle_alpha                 89.947129
_cell_angle_beta                  91.070478
_cell_angle_gamma                 83.277116
_cell_volume                      4785.44195431

loop_
_atom_site_label
_atom_site_type_symbol
_atom_site_description
_atom_site_fract_x
_atom_site_fract_y
_atom_site_fract_z
_atom_type_partial_charge
O1    O     O_R   0.500000 0.439160 0.601820 -0.597511
O2    O     O_R   0.500000 0.560840 0.398180 -0.639003
O3    O     O_R   0.500040 0.560790 0.601820 -0.562965
O4    O     O_R   0.499960 0.439210 0.398180 -0.563334
C1    C     C_R   0.501383 0.499815 0.634591 0.897359
C2    C     C_R   0.500754 0.499923 0.365601 0.893946
O5    O     O_R   0.640320 0.430440 0.499980 -0.644998
O6    O     O_R   0.359680 0.569560 0.500020 -0.608527
O7    O     O_R   0.640370 0.552060 0.499990 -0.555408
O8    O     O_R   0.359630 0.447940 0.500010 -0.554516
C3    C     C_R   0.685703 0.487200 0.499848 0.893059
C4    C     C_R   0.314289 0.512759 0.499133 0.881926
Zn1   Zn    Zn3+2 0.499970 0.418790 0.500000 1.035606
Zn2   Zn    Zn3+2 0.500030 0.581210 0.500000 1.038452
C5    C     C_1   0.211045 0.521935 0.488978 -0.044401
C6    C     C_1   0.789113 0.477410 0.493651 -0.056880
C7    C     C_2   0.020832 0.526920 0.465496 0.172184
C8    C     C_2   0.980371 0.465448 0.477528 0.175884
C9    C     C_1   0.876336 0.470076 0.486395 0.081973
C10   C     C_1   0.124182 0.526732 0.477967 0.076576
C11   C     C_R   0.608636 0.456429 0.271408 -0.228204
C12   C     C_R   0.598982 0.447417 0.734052 -0.238336
H1    H     H_    0.656182 0.428357 0.311617 0.207710
H2    H     H_    0.639802 0.412069 0.696846 0.215440
C13   C     C_R   0.635999 0.450800 0.201222 0.288229
C14   C     C_R   0.627386 0.443440 0.804756 0.269516
C15   C     C_R   0.571959 0.487223 0.150049 -0.127561
C16   C     C_R   0.575395 0.491182 0.852253 -0.098386
C17   C     C_R   0.484654 0.530681 0.169189 0.477943
C18   C     C_R   0.498854 0.543760 0.828903 0.473506
C19   C     C_R   0.458105 0.535932 0.240506 0.351891
C20   C     C_R   0.470194 0.546772 0.757135 0.350839
C21   C     C_R   0.520873 0.497454 0.291069 -0.214899
C22   C     C_R   0.521042 0.497562 0.710070 -0.229466
C23   C     C_R   0.541970 0.428491 0.037108 0.314769
C24   C     C_R   0.643915 0.529669 0.966055 0.327699
C25   C     C_R   0.541835 0.429118 0.963635 0.390431
C26   C     C_R   0.645412 0.527998 0.039799 0.406387
C27   C     C_R   0.590738 0.481236 0.928220 -0.162053
C28   C     C_R   0.591410 0.478879 0.074911 -0.153760
C29   C     C_R   0.478141 0.274791 0.439522 0.305947
C30   C     C_R   0.583933 0.720390 0.517545 0.314823
C31   C     C_R   0.489096 0.198728 0.437171 0.299805
C32   C     C_R   0.587118 0.795148 0.508841 0.294120
C33   C     C_R   0.499654 0.158294 0.500916 -0.269363
C34   C     C_R   0.497546 0.841842 0.498941 -0.270861
C35   C     C_R   0.508660 0.197849 0.564208 0.363956
C36   C     C_R   0.409082 0.808619 0.490937 0.362130
C37   C     C_R   0.522043 0.271280 0.560634 0.466532
C38   C     C_R   0.414953 0.733428 0.482447 0.460302
N1    N     N_R   0.499990 0.310560 0.500020 -0.262909
N2    N     N_R   0.500010 0.689440 0.499980 -0.261517
C39   C     C_R   0.567068 0.030083 0.543976 0.452777
C40   C     C_R   0.438562 0.969331 0.449726 0.452231
C41   C     C_R   0.557567 0.956093 0.546678 -0.163120
C42   C     C_R   0.434512 0.044507 0.456362 -0.160703
H3    H     H_    0.602877 0.923327 0.584815 0.243351
H4    H     H_    0.382380 0.077894 0.422953 0.244670
C43   C     C_R   0.497088 0.923299 0.498175 -0.098336
C44   C     C_R   0.500746 0.076790 0.500935 -0.099802
N3    N     N_R   0.039063 0.396825 0.489853 0.218679
O9    O     O_R   0.002920 0.347277 0.526279 -0.306499
O10   O     O_R   0.120920 0.379528 0.456142 -0.311145
N4    N     N_R   0.962404 0.594244 0.447418 0.238707
O11   O     O_R   0.996427 0.654941 0.461889 -0.258288
O12   O     O_R   0.883837 0.595253 0.406973 -0.323028
O13   O     O_3   0.508616 0.166850 0.630248 -0.615835
H5    H     H_    0.470307 0.124989 0.627485 0.365174
O14   O     O_3   0.316023 0.847151 0.488857 -0.616499
H6    H     H_    0.318520 0.892333 0.515690 0.364873
O15   O     O_3   0.559591 0.301907 0.619284 -0.645340
H7    H     H_    0.609322 0.331987 0.601709 0.346291
O16   O     O_3   0.332855 0.705570 0.456246 -0.634242
H8    H     H_    0.357695 0.667557 0.422547 0.355053
O17   O     O_3   0.643232 0.053679 0.583337 -0.665501
H9    H     H_    0.661737 0.098212 0.561485 0.365706
O18   O     O_3   0.385471 0.943745 0.394459 -0.667200
H10   H     H_    0.416479 0.894877 0.382163 0.365737
N5    N     N_R   0.728098 0.408380 0.183582 0.253796
O19   O     O_R   0.742625 0.381084 0.121072 -0.288126
O20   O     O_R   0.797068 0.393677 0.231680 -0.306240
N6    N     N_R   0.706555 0.389634 0.827516 0.251571
O21   O     O_R   0.761300 0.399886 0.882734 -0.284738
O22   O     O_R   0.729267 0.332086 0.789843 -0.284036
O23   O     O_3   0.426377 0.565976 0.116221 -0.692005
H11   H     H_    0.368214 0.594955 0.136567 0.412161
O24   O     O_3   0.451093 0.589032 0.878495 -0.691628
H12   H     H_    0.400501 0.624043 0.855207 0.410860
O25   O     O_3   0.370559 0.577039 0.258012 -0.724723
H13   H     H_    0.355006 0.569243 0.307922 0.345385
O26   O     O_3   0.391573 0.596310 0.735766 -0.719230
H14   H     H_    0.365304 0.582177 0.689517 0.350958
N7    N     N_R   0.486843 0.378864 0.073354 0.263454
O27   O     O_R   0.527019 0.340352 0.125789 -0.276217
O28   O     O_R   0.397064 0.370471 0.052775 -0.220651
N8    N     N_R   0.693745 0.582369 0.929679 0.267888
O29   O     O_R   0.745778 0.564540 0.874195 -0.298005
O30   O     O_R   0.688598 0.648331 0.952510 -0.224629
O31   O     O_3   0.490431 0.379339 0.929024 -0.638298
H15   H     H_    0.494913 0.383935 0.877430 0.354774
O32   O     O_3   0.698124 0.576248 0.075386 -0.641338
H16   H     H_    0.702547 0.564719 0.126279 0.355305
N9    N     N_R   0.442037 0.313934 0.377822 0.273348
O33   O     O_R   0.354795 0.350909 0.378208 -0.297306
O34   O     O_R   0.487806 0.303433 0.318431 -0.263933
N10   N     N_R   0.668854 0.677822 0.547262 0.269319
O35   O     O_R   0.662153 0.646726 0.608057 -0.328937
O36   O     O_R   0.755714 0.679356 0.520014 -0.245327
O37   O     O_3   0.487498 0.166486 0.371829 -0.648941
H17   H     H_    0.532036 0.120588 0.373970 0.361532
O38   O     O_3   0.678653 0.820207 0.511753 -0.650534
H18   H     H_    0.676735 0.862139 0.479572 0.362694

loop_
_geom_bond_atom_site_label_1
_geom_bond_atom_site_label_2
_geom_bond_distance
_ccdc_geom_bond_type
C18   C20   1.408757 A    
O24   H12   0.989393 S    
C33   C44   1.521173 S    
N7    O27   1.300938 A    
C41   C43   1.410354 A    
C34   C43   1.521310 S    
C15   C17   1.410884 A    
O16   H8    0.990030 S    
C39   C41   1.404418 A    
O38   H18   0.990537 S    
C36   O14   1.380146 S    
O7    Zn2   1.921560 S    
C35   C37   1.406702 A    
O2    C2    1.294818 A    
O18   H10   0.989807 S    
O5    C3    1.287817 A    
O32   H16   0.988502 S    
O1    C1    1.295100 A    
C23   C25   1.394242 A    
C26   O32   1.384354 S    
O14   H6    0.989922 S    
C7    N4    1.444245 S    
C20   O26   1.383736 S    
C11   C21   1.397468 A    
N10   O35   1.300715 A    
C7    C10   1.419844 S    
C8    C9    1.419801 S    
O4    Zn1   1.969128 S    
N3    O10   1.301734 A    
Zn1   N1    2.022158 S    
Zn2   N2    2.022159 S    
C19   O25   1.384777 S    
N8    O30   1.301332 A    
C38   N2    1.373142 A    
C19   C21   1.410665 A    
C17   O23   1.385425 S    
O7    C3    1.293654 A    
C40   O18   1.379367 S    
C33   C35   1.421635 A    
C14   N6    1.443554 S    
C1    C22   1.451777 S    
C29   C31   1.412337 A    
C39   O17   1.379369 S    
C30   C32   1.412158 A    
C35   O13   1.380121 S    
C39   C44   1.424186 A    
C32   C34   1.421711 A    
C40   C42   1.405098 A    
C40   C43   1.424384 A    
C23   N7    1.440532 S    
C5    C10   1.188172 T    
C12   C22   1.398604 A    
C34   C36   1.422124 A    
O13   H5    0.989988 S    
O4    C2    1.292656 A    
C38   O16   1.370839 S    
O26   H14   0.989074 S    
N5    O20   1.301804 A    
C16   C27   1.461292 S    
C37   N1    1.373161 A    
O23   H11   0.989365 S    
C42   C44   1.410483 A    
N4    O12   1.301752 A    
O17   H9    0.989841 S    
C25   C27   1.417313 A    
C31   C33   1.421626 A    
C3    C6    1.403251 S    
C24   N8    1.441241 S    
O31   H15   0.986375 S    
C4    C5    1.403380 S    
O5    Zn1   1.945294 S    
C15   C28   1.460162 S    
O6    C4    1.288498 A    
N8    O29   1.301179 A    
C7    C8    1.351262 D    
N9    O34   1.301432 A    
C30   N10   1.429306 S    
O3    Zn2   1.969126 S    
O8    C4    1.292937 A    
N6    O22   1.301709 A    
C41   H3    1.082643 S    
C12   C14   1.388706 A    
C12   H2    1.082707 S    
O1    Zn1   1.969643 S    
C24   C26   1.399421 A    
C25   O31   1.385932 S    
C11   C13   1.390284 A    
O6    Zn2   1.945292 S    
C13   N5    1.446142 S    
C24   C27   1.411322 A    
O3    C1    1.295526 A    
O8    Zn1   1.921562 S    
C8    N3    1.445016 S    
C13   C15   1.411500 A    
C14   C16   1.408964 A    
C2    C21   1.445302 S    
N4    O11   1.301566 A    
C11   H1    1.084647 S    
C23   C28   1.408523 A    
O25   H13   0.988611 S    
C16   C18   1.409447 A    
C17   C19   1.407693 A    
O37   H17   0.990469 S    
C26   C28   1.414191 A    
N10   O36   1.301111 A    
C6    C9    1.188066 T    
C36   C38   1.407362 A    
C42   H4    1.082670 S    
N3    O9    1.301602 A    
O2    Zn2   1.969644 S    
N5    O19   1.300953 A    
C32   O38   1.379937 S    
C29   N9    1.428119 S    
O15   H7    0.990496 S    
N7    O28   1.301336 A    
N6    O21   1.301154 A    
C37   O15   1.369281 S    
C30   N2    1.373842 A    
N9    O33   1.300814 A    
C31   O37   1.379954 S    
C18   O24   1.385033 S    
C29   N1    1.374032 A    
C20   C22   1.412993 A    
