data_mof_unit_25450.cif
_audit_creation_date              2012-12-11T15:23:33-0500
_audit_creation_method            fapswitch 2.2
_symmetry_space_group_name_H-M    P1
_symmetry_Int_Tables_number       1
_space_group_crystal_system       triclinic
_cell_length_a                    6.934281
_cell_length_b                    17.542645
_cell_length_c                    19.249291
_cell_angle_alpha                 109.459717
_cell_angle_beta                  90.065815
_cell_angle_gamma                 90.771372
_cell_volume                      2207.59140073

loop_
_atom_site_label
_atom_site_type_symbol
_atom_type_description
_atom_site_fract_x
_atom_site_fract_y
_atom_site_fract_z
_atom_type_partial_charge
O1    O     O_R   0.505810 0.439670 0.562310 -0.536738
O2    O     O_R   0.169070 0.404920 0.411210 -0.539349
O3    O     O_R   0.005550 0.560330 0.437690 -0.530120
C1    C     C_R   0.338404 0.382198 0.382895 0.717114
O4    O     O_R   0.175650 0.430000 0.560110 -0.544271
O5    O     O_R   0.012170 0.585580 0.587650 -0.534907
C2    C     C_R   0.344321 0.414748 0.581679 0.705410
O6    O     O_R   0.499180 0.414420 0.412350 -0.546727
O7    O     O_3   0.341430 0.551020 0.508860 -0.372726
V1    V     V_3+5 0.063930 0.490540 0.498360 1.403817
O8    O     O_R   0.682850 0.595080 0.588790 -0.543340
C3    C     C_R   0.853019 0.618280 0.616972 0.698426
O9    O     O_R   0.676280 0.570000 0.439890 -0.554011
C4    C     C_R   0.846002 0.585669 0.418918 0.757046
V2    V     V_3+5 0.564760 0.509460 0.501640 1.369166
O10   O     O_3   0.837130 0.448980 0.491140 -0.372659
C5    C     C_R   0.017665 0.887137 0.194537 0.368384
C6    C     C_R   0.909749 0.863255 0.128702 -0.221402
C7    C     C_R   0.782552 0.795412 0.112019 0.097455
C8    C     C_R   0.765942 0.750493 0.161197 -0.003527
C9    C     C_R   0.883984 0.772572 0.225398 -0.098806
C10   C     C_R   0.010623 0.840220 0.241440 0.007585
C11   C     C_R   0.634977 0.683951 0.148382 0.452533
C12   C     C_R   0.629052 0.639711 0.197145 -0.294640
C13   C     C_R   0.746995 0.660756 0.259723 0.050005
C14   C     C_R   0.876281 0.726824 0.273940 0.036146
C15   C     C_R   0.997095 0.747551 0.337043 0.032665
C16   C     C_R   0.117276 0.816338 0.352718 -0.189779
C17   C     C_R   0.126743 0.860786 0.304984 -0.184772
C18   C     C_R   0.736451 0.616517 0.308350 -0.289900
C19   C     C_R   0.858922 0.635079 0.369928 -0.166626
C20   C     C_R   0.994605 0.699344 0.383399 0.336177
H1    H     H_    0.531971 0.587928 0.185379 0.135783
H2    H     H_    0.634601 0.566384 0.297651 0.125246
H3    H     H_    0.205945 0.836341 0.401957 0.157083
H4    H     H_    0.225920 0.911755 0.318400 0.153260
C21   C     C_3   0.709665 0.778442 0.772589 -0.115456
C22   C     C_3   0.802940 0.774864 0.698506 -0.138689
H5    H     H_    0.734461 0.794987 0.655530 0.109738
H6    H     H_    0.564210 0.802220 0.791312 0.112021
C23   C     C_3   0.868929 0.688369 0.687742 -0.009694
C24   C     C_3   0.775740 0.691109 0.761018 -0.146354
C25   C     C_3   0.967806 0.724650 0.801792 -0.147854
C26   C     C_3   0.061135 0.721085 0.727703 -0.107930
C27   C     C_3   0.995023 0.808415 0.739254 -0.135538
C28   C     C_3   0.901884 0.811177 0.812543 -0.005153
H7    H     H_    0.684221 0.642613 0.769502 0.103532
H8    H     H_    0.035932 0.704363 0.844735 0.102343
H9    H     H_    0.206571 0.697294 0.708953 0.110897
H10   H     H_    0.086064 0.857064 0.730759 0.103124
C29   C     C_3   0.554154 0.268784 0.288869 -0.348728
C30   C     C_3   0.441917 0.187340 0.266488 0.438897
H11   H     H_    0.692226 0.282600 0.320149 0.122666
C31   C     C_3   0.413875 0.189133 0.187595 -0.148722
C32   C     C_3   0.519799 0.271462 0.210141 0.388381
C33   C     C_3   0.328298 0.314548 0.234251 0.194188
C34   C     C_3   0.218356 0.233045 0.211571 -0.222619
C35   C     C_3   0.247930 0.230339 0.291053 -0.226572
C36   C     C_3   0.357391 0.312309 0.312544 -0.119123
H12   H     H_    0.081282 0.219849 0.179649 0.160275
H13   H     H_    0.137688 0.214700 0.325958 0.107268
C37   C     C_R   0.569020 0.136325 0.821765 -0.223556
C38   C     C_R   0.417538 0.136409 0.870385 -0.079797
C39   C     C_R   0.254420 0.183836 0.871597 -0.188844
C40   C     C_R   0.242407 0.231017 0.825365 0.031769
C41   C     C_R   0.393013 0.229321 0.775757 0.052574
C42   C     C_R   0.556438 0.181382 0.773690 0.112539
C43   C     C_R   0.081469 0.279336 0.827531 -0.284676
C44   C     C_R   0.068655 0.326260 0.781050 0.402116
C45   C     C_R   0.215839 0.322804 0.729520 -0.004777
C46   C     C_R   0.379469 0.274888 0.727611 -0.010413
C47   C     C_R   0.529468 0.272055 0.677283 0.148927
C48   C     C_R   0.689825 0.223298 0.675018 -0.124173
C49   C     C_R   0.703427 0.178576 0.722905 -0.181303
C50   C     C_R   0.203615 0.366755 0.680281 -0.201790
C51   C     C_R   0.354165 0.365297 0.630939 -0.108582
C52   C     C_R   0.516957 0.317987 0.630097 -0.195785
H14   H     H_    0.694535 0.099535 0.820005 0.120833
H15   H     H_    0.137392 0.184652 0.909143 0.129576
H16   H     H_    0.963891 0.280226 0.864843 0.147982
H17   H     H_    0.079097 0.403799 0.681348 0.161746
H18   H     H_    0.633299 0.316200 0.592014 0.119545
H19   H     H_    0.806009 0.220380 0.636650 0.114182
H20   H     H_    0.829454 0.141887 0.720309 0.122640
O11   O     O_R   0.271890 0.085690 0.087580 -0.544597
O12   O     O_R   0.595690 0.070020 0.939870 -0.540258
O13   O     O_R   0.758900 0.914390 0.912370 -0.543995
C53   C     C_R   0.427072 0.085763 0.918642 0.704207
O14   O     O_R   0.602020 0.095100 0.088770 -0.528619
O15   O     O_R   0.765280 0.939660 0.062330 -0.549171
C54   C     C_R   0.432650 0.118419 0.117062 0.777692
O16   O     O_R   0.265520 0.060430 0.937620 -0.544097
O17   O     O_3   0.429560 0.949050 0.991100 -0.375069
V3    V     V_3+5 0.707160 0.009450 0.001650 1.426522
O18   O     O_R   0.094540 0.929890 0.060190 -0.518454
C55   C     C_R   0.924244 0.912302 0.079282 0.761436
O19   O     O_R   0.088200 0.904800 0.911290 -0.546555
C56   C     C_R   0.917971 0.881475 0.883186 0.659071
V4    V     V_3+5 0.206300 0.990390 0.998440 1.431784
O20   O     O_3   0.934030 0.050940 0.008900 -0.371060
O21   O     O_3   0.135544 0.955499 0.211411 -0.546434
C57   C     C_3   0.042739 0.021861 0.263121 0.048273
H21   H     H_    0.155773 0.064277 0.294821 0.183068
H22   H     H_    0.956136 0.004987 0.304597 0.100557
C58   C     C_3   0.918035 0.066910 0.224736 -0.658098
H23   H     H_    0.782871 0.032236 0.204166 0.231185
H24   H     H_    0.879914 0.126906 0.263930 0.180143
H25   H     H_    0.997041 0.076215 0.178169 0.231562
O22   O     O_3   0.496252 0.117555 0.282146 -0.557154
C59   C     C_3   0.536520 0.138126 0.358262 0.088956
H26   H     H_    0.425843 0.178601 0.393188 0.103859
H27   H     H_    0.680119 0.168614 0.371154 0.113825
C60   C     C_3   0.540124 0.061665 0.378922 -0.720911
H28   H     H_    0.631078 0.015317 0.339964 0.231781
H29   H     H_    0.598889 0.075842 0.435588 0.173984
H30   H     H_    0.391729 0.036853 0.377432 0.200752
O23   O     O_3   0.654466 0.292289 0.164353 -0.559429
C61   C     C_3   0.759131 0.362533 0.205407 0.107073
H31   H     H_    0.881357 0.345418 0.234220 0.159582
H32   H     H_    0.670167 0.407218 0.247365 0.093410
C62   C     C_3   0.837378 0.404125 0.153273 -0.678394
H33   H     H_    0.716139 0.422375 0.124756 0.212799
H34   H     H_    0.921728 0.459057 0.184826 0.195310
H35   H     H_    0.932121 0.362454 0.111572 0.226549
N1    N     N_3   0.262990 0.384682 0.216806 -0.692268
H36   H     H_    0.294695 0.374899 0.161480 0.243975
H37   H     H_    0.344200 0.434977 0.248117 0.202824
N2    N     N_3   0.675758 0.770247 0.043954 -0.601787
H38   H     H_    0.575313 0.814431 0.044964 0.249566
H39   H     H_    0.770953 0.763133 0.000212 0.204942
O24   O     O_3   0.903916 0.369998 0.781628 -0.551418
C63   C     C_3   0.913080 0.442495 0.842161 0.089741
H40   H     H_    0.045579 0.478313 0.839858 0.109819
H41   H     H_    0.910649 0.429934 0.895191 0.126495
C64   C     C_3   0.738456 0.493100 0.839661 -0.691174
H42   H     H_    0.603758 0.459691 0.843439 0.226855
H43   H     H_    0.744488 0.550983 0.886482 0.190910
H44   H     H_    0.736929 0.506438 0.787156 0.208416
O25   O     O_3   0.521296 0.657779 0.085552 -0.532327
C65   C     C_3   0.329243 0.681762 0.104286 0.136507
H45   H     H_    0.321060 0.748588 0.131198 0.128337
H46   H     H_    0.267019 0.651326 0.141689 0.106271
C66   C     C_3   0.207548 0.657710 0.034285 -0.703098
H47   H     H_    0.216981 0.591584 0.005051 0.217882
H48   H     H_    0.054560 0.672909 0.048147 0.187613
H49   H     H_    0.259400 0.690523 0.997349 0.219526
O26   O     O_3   0.106480 0.720755 0.446890 -0.563879
C67   C     C_3   0.299208 0.696552 0.428953 0.105804
H50   H     H_    0.355123 0.711992 0.381022 0.101086
H51   H     H_    0.311373 0.630183 0.415411 0.156648
C68   C     C_3   0.427399 0.739163 0.495165 -0.655295
H52   H     H_    0.386219 0.720022 0.542682 0.219268
H53   H     H_    0.580738 0.724427 0.481608 0.178239
H54   H     H_    0.411475 0.805666 0.510836 0.198807

loop_
_geom_bond_atom_site_label_1
_geom_bond_atom_site_label_2
_ccdc_geom_bond_type
C26   H9    S    
C43   H16   S    
C64   H44   S    
C9    C14   A    
O17   V3    S    
C10   C17   A    
C38   C53   S    
C66   H49   S    
O18   C55   A    
C6    C55   S    
C48   C49   A    
C7    C8    A    
C67   C68   S    
C4    C19   S    
C1    O6    A    
N2    H38   S    
O19   C56   A    
O11   C54   A    
C64   H42   S    
C20   O26   S    
C27   C28   S    
C58   H24   S    
C17   H4    S    
C14   C15   A    
C37   C38   A    
C37   C42   A    
C52   H18   S    
C11   O25   S    
C16   C17   A    
C21   C22   S    
C65   H46   S    
C21   H6    S    
O5    C3    A    
C22   H5    S    
O18   V4    S    
V2    O10   S    
O13   V3    S    
C7    N2    S    
C21   C24   S    
C33   C34   S    
C57   C58   S    
C66   H48   S    
C6    C7    A    
C23   C24   S    
C68   H54   S    
O14   V3    S    
C5    O21   S    
C61   H31   S    
C62   H35   S    
O12   V3    S    
O26   C67   S    
C59   H26   S    
O8    V2    S    
C53   O16   A    
C16   H3    S    
C63   H40   S    
C22   C27   S    
C43   C44   A    
C11   C12   A    
C65   C66   S    
C45   C46   A    
O1    V2    S    
O14   C54   A    
C25   H8    S    
O17   V4    S    
C29   C32   S    
C44   O24   S    
C60   H30   S    
C35   H13   S    
C41   C42   A    
C28   C56   S    
O9    C4    A    
C44   C45   A    
O19   V4    S    
C30   C31   S    
O15   V3    S    
C61   H32   S    
C65   H45   S    
C58   H25   S    
C18   H2    S    
C29   C30   S    
O21   C57   S    
C51   C52   A    
C22   C23   S    
O4    C2    A    
C50   H17   S    
C34   H12   S    
C32   O23   S    
C35   C36   S    
C29   H11   S    
C61   C62   S    
O2    C1    A    
C50   C51   A    
C41   C46   A    
C47   C52   A    
O11   V4    S    
V4    O20   S    
C8    C11   A    
V3    O20   S    
C68   H52   S    
C40   C43   A    
C32   C33   S    
C5    C6    A    
C42   C49   A    
C33   N1    S    
C12   C13   A    
C57   H22   S    
C59   C60   S    
C62   H33   S    
O3    C4    A    
C30   C35   S    
C67   H51   S    
O6    V2    S    
O9    V2    S    
C25   C26   S    
N1    H36   S    
C23   C26   S    
C29   C36   S    
C24   C25   S    
O24   C63   S    
O2    V1    S    
C45   C50   A    
C26   C27   S    
O25   C65   S    
C3    C23   S    
C60   H28   S    
O7    V1    S    
C13   C18   A    
C64   H43   S    
C31   C32   S    
C15   C20   A    
O1    C2    A    
C37   H14   S    
C19   C20   A    
C5    C10   A    
C49   H20   S    
C47   C48   A    
N2    H39   S    
O5    V1    S    
O8    C3    A    
O15   C55   A    
C2    C51   S    
C58   H23   S    
C12   H1    S    
C33   C36   S    
C39   C40   A    
O13   C56   A    
O7    V2    S    
C31   C54   S    
O3    V1    S    
V1    O10   S    
O23   C61   S    
C13   C14   A    
C27   H10   S    
C34   C35   S    
C18   C19   A    
C30   O22   S    
C63   C64   S    
C1    C36   S    
C39   H15   S    
O12   C53   A    
C24   H7    S    
C68   H53   S    
C57   H21   S    
C25   C28   S    
C59   H27   S    
C62   H34   S    
C38   C39   A    
O4    V1    S    
C46   C47   A    
C8    C9    A    
C63   H41   S    
C40   C41   A    
O22   C59   S    
C15   C16   A    
N1    H37   S    
C21   C28   S    
C9    C10   A    
C67   H50   S    
C48   H19   S    
C66   H47   S    
O16   V4    S    
C60   H29   S    
C31   C34   S    
