data_mof_unit_28624.cif
_audit_creation_date              2012-12-10T20:34:50-0500
_audit_creation_method            fapswitch 2.2
_symmetry_space_group_name_H-M    P1
_symmetry_Int_Tables_number       1
_space_group_crystal_system       triclinic
_cell_length_a                    10.667052
_cell_length_b                    10.70082
_cell_length_c                    9.933898
_cell_angle_alpha                 89.712913
_cell_angle_beta                  89.596111
_cell_angle_gamma                 89.497766
_cell_volume                      1133.83112099

loop_
_atom_site_label
_atom_site_type_symbol
_atom_type_description
_atom_site_fract_x
_atom_site_fract_y
_atom_site_fract_z
_atom_type_partial_charge
C1    C     C_R   0.506407 0.259468 0.499405 0.930708
C2    C     C_R   0.548610 0.934620 0.614839 0.099488
C3    C     C_3   0.478137 0.925716 0.744539 -0.498306
C4    C     C_R   0.258169 0.495268 0.500409 0.903942
C5    C     C_3   0.488901 0.067937 0.750534 -0.261321
C6    C     C_R   0.393130 0.476049 0.071474 0.124410
C7    C     C_R   0.607827 0.515399 0.070799 -0.084536
C8    C     C_R   0.607423 0.518011 0.927477 -0.074996
C9    C     C_R   0.394036 0.471645 0.929878 0.235248
C10   C     C_3   0.270132 0.536659 0.921481 -0.241864
C11   C     C_3   0.269651 0.545265 0.074986 -0.331437
C12   C     C_3   0.877814 0.482432 0.501150 0.038556
C13   C     C_R   0.511432 0.738989 0.499010 0.937287
C14   C     C_R   0.741373 0.490023 0.500044 0.912677
C15   C     C_3   0.070655 0.462818 0.645164 -0.415114
C16   C     C_3   0.928502 0.443780 0.644266 -0.180987
C17   C     C_3   0.067315 0.616869 0.450015 -0.223125
C18   C     C_3   0.076067 0.383522 0.401926 -0.220844
C19   C     C_3   0.121416 0.488816 0.500738 -0.039352
C20   C     C_2   0.552421 0.126965 0.239704 1.041678
C21   C     C_2   0.616714 0.865343 0.250815 1.038865
C22   C     C_2   0.580115 0.114734 0.853636 1.067869
C23   C     C_3   0.923978 0.616713 0.467637 -0.504807
C24   C     C_2   0.268014 0.677190 0.128548 0.986439
C25   C     C_2   0.890505 0.313301 0.691738 0.890274
C26   C     C_2   0.125585 0.732115 0.512070 0.947605
C27   C     C_2   0.130611 0.253296 0.427521 0.962399
C28   C     C_3   0.929868 0.391944 0.390345 -0.160633
C29   C     C_R   0.551738 0.061619 0.615369 0.100800
C30   C     C_R   0.534880 0.127273 0.495311 -0.209676
C31   C     C_R   0.556651 0.062905 0.371538 -0.124356
C32   C     C_R   0.571467 0.932293 0.373454 -0.124678
C33   C     C_R   0.544749 0.868525 0.495572 -0.180076
H1    H     H_    0.089528 0.545046 0.708710 0.207517
H2    H     H_    0.694044 0.534983 0.873702 0.147724
H3    H     H_    0.196202 0.474031 0.884759 0.170872
H4    H     H_    0.194703 0.487519 0.119795 0.131765
H5    H     H_    0.889115 0.509565 0.720581 0.130065
H6    H     H_    0.892573 0.681717 0.548623 0.216218
H7    H     H_    0.112571 0.407627 0.300695 0.106881
H8    H     H_    0.442343 0.195717 0.091764 0.341596
H9    H     H_    0.741884 0.743960 0.171646 0.334332
H10   H     H_    0.646864 0.263197 0.951786 0.365498
H11   H     H_    0.194093 0.705655 0.865513 0.253250
H12   H     H_    0.909242 0.437295 0.291336 0.174617
H13   H     H_    0.351633 0.709295 0.882336 0.208638
H14   H     H_    0.165064 0.833108 0.162223 0.388354
H15   H     H_    0.941415 0.138683 0.748806 0.368669
H16   H     H_    0.240310 0.879391 0.486079 0.339893
H17   H     H_    0.233722 0.137212 0.544174 0.339554
H18   H     H_    0.897703 0.210528 0.463345 0.227828
H19   H     H_    0.881740 0.228298 0.296346 0.258268
H20   H     H_    0.087364 0.622984 0.340284 0.175578
H21   H     H_    0.881687 0.651379 0.372572 0.229510
H22   H     H_    0.379992 0.894755 0.729491 0.209652
H23   H     H_    0.530415 0.872164 0.822494 0.255296
H24   H     H_    0.397194 0.118208 0.749725 0.172220
H25   H     H_    0.694971 0.528968 0.123266 0.144575
H26   H     H_    0.121660 0.384423 0.693457 0.256209
N1    N     N_R   0.499150 0.499140 0.142800 -0.086127
N2    N     N_R   0.499150 0.499180 0.857150 -0.080398
N3    N     N_3   0.277069 0.655671 0.847721 -0.377923
N4    N     N_3   0.864753 0.271232 0.389104 -0.424052
O1    O     O_R   0.500020 0.316790 0.614690 -0.559091
O2    O     O_R   0.436574 0.144104 0.177040 -0.752336
O3    O     O_2   0.570155 0.886525 0.140813 -0.569491
O4    O     O_R   0.715012 0.779172 0.261950 -0.824984
O5    O     O_2   0.660330 0.045561 0.901601 -0.570408
O6    O     O_R   0.576561 0.240414 0.888706 -0.798102
O7    O     O_2   0.363942 0.726737 0.166306 -0.548958
O8    O     O_R   0.155161 0.744513 0.128486 -0.812082
O9    O     O_2   0.779751 0.289133 0.707543 -0.609478
O10   O     O_R   0.980201 0.220450 0.718700 -0.782236
O11   O     O_2   0.101249 0.761921 0.628024 -0.646965
O12   O     O_R   0.500000 0.316760 0.385350 -0.616318
O13   O     O_R   0.206855 0.805323 0.434639 -0.782997
O14   O     O_2   0.116898 0.172134 0.342731 -0.602254
O15   O     O_R   0.201677 0.226684 0.541972 -0.804982
O16   O     O_R   0.314800 0.500000 0.614670 -0.595572
O17   O     O_R   0.314790 0.499960 0.385330 -0.640869
O18   O     O_R   0.500000 0.683240 0.614650 -0.625280
O19   O     O_R   0.499980 0.683210 0.385310 -0.551804
O20   O     O_R   0.685210 0.500040 0.614670 -0.620839
O21   O     O_R   0.685200 0.500000 0.385330 -0.622294
O22   O     O_2   0.648761 0.166287 0.188330 -0.638770
Zn1   Zn    Zn3+2 0.500010 0.500020 0.653130 1.019298
Zn2   Zn    Zn3+2 0.499990 0.499980 0.346870 1.028595

loop_
_geom_bond_atom_site_label_1
_geom_bond_atom_site_label_2
_ccdc_geom_bond_type
C21   O3    D    
O21   Zn2   S    
C14   O21   A    
C27   O15   S    
C6    C9    A    
C24   O7    D    
C7    C8    A    
C15   C19   S    
C12   C23   S    
C17   C23   S    
H13   N3    S    
C2    C29   A    
C9    N2    A    
C17   C26   S    
C4    O17   A    
O17   Zn2   S    
C30   C31   A    
O19   Zn2   S    
C13   O18   A    
C11   C24   S    
C18   C19   S    
C11   H4    S    
C18   H7    S    
C17   C19   S    
C4    C19   S    
C3    H22   S    
C5    C22   S    
C12   C16   S    
C26   O13   S    
C9    C10   S    
C15   H1    S    
O18   Zn1   S    
C8    N2    A    
C3    C5    S    
H10   O6    S    
C21   O4    S    
C10   N3    S    
C14   O20   A    
H17   O15   S    
O1    Zn1   S    
N1    Zn2   S    
C5    C29   S    
C21   C32   S    
C28   H12   S    
C1    O12   A    
C6    N1    A    
C20   O2    S    
C18   C28   S    
C4    O16   A    
C10   C11   S    
C6    C11   S    
H8    O2    S    
H11   N3    S    
C13   O19   A    
C8    H2    S    
C13   C33   S    
C29   C30   A    
C3    H23   S    
C31   C32   A    
C22   O5    D    
C20   O22   D    
H16   O13   S    
H18   N4    S    
C25   O9    D    
H14   O8    S    
C2    C33   A    
O12   Zn2   S    
C12   C14   S    
H9    O4    S    
C1    O1    A    
C17   H20   S    
C7    N1    A    
C23   H21   S    
C16   C25   S    
C7    H25   S    
C15   H26   S    
H15   O10   S    
C18   C27   S    
C27   O14   D    
H19   N4    S    
C5    H24   S    
C32   C33   A    
C2    C3    S    
C23   H6    S    
C1    C30   S    
C26   O11   D    
C25   O10   S    
N2    Zn1   S    
C28   N4    S    
O20   Zn1   S    
C12   C28   S    
C22   O6    S    
C10   H3    S    
O16   Zn1   S    
C15   C16   S    
C24   O8    S    
C16   H5    S    
C20   C31   S    
