data_mof_unit_12281.cif
_audit_creation_date              2012-12-10T20:53:55-0500
_audit_creation_method            fapswitch 2.2
_symmetry_space_group_name_H-M    P1
_symmetry_Int_Tables_number       1
_space_group_crystal_system       triclinic
_cell_length_a                    10.443861
_cell_length_b                    15.863733
_cell_length_c                    15.068616
_cell_angle_alpha                 90.77424
_cell_angle_beta                  102.334728
_cell_angle_gamma                 89.723963
_cell_volume                      2438.6904814

loop_
_atom_site_label
_atom_site_type_symbol
_atom_type_description
_atom_site_fract_x
_atom_site_fract_y
_atom_site_fract_z
_atom_type_partial_charge
C1    C     C_R   0.500024 0.339010 0.499376 0.904685
C2    C     C_1   0.499081 0.500013 0.192780 0.068894
C3    C     C_R   0.256290 0.496427 0.463628 0.882728
C4    C     C_R   0.743719 0.496535 0.536273 0.878531
C5    C     C_2   0.116233 0.479799 0.446228 -0.219648
C6    C     C_2   0.883884 0.480159 0.553217 -0.213295
C7    C     C_2   0.069493 0.422519 0.497406 -0.056263
C8    C     C_2   0.931049 0.422532 0.500880 -0.059276
C9    C     C_R   0.521158 0.958239 0.584342 -0.050332
C10   C     C_R   0.491072 0.041800 0.416718 -0.051992
C11   C     C_R   0.508255 0.912867 0.502148 0.029090
C12   C     C_R   0.500069 0.660999 0.500636 0.910263
C13   C     C_R   0.502851 0.087135 0.498849 0.028591
C14   C     C_R   0.493660 0.953618 0.418092 -0.058957
C15   C     C_R   0.518327 0.046378 0.582916 -0.059333
C16   C     C_1   0.505355 0.823670 0.503289 -0.028548
C17   C     C_1   0.501702 0.176347 0.497498 -0.024633
C18   C     C_1   0.500806 0.250976 0.497976 -0.146650
C19   C     C_1   0.502630 0.749048 0.502486 -0.167719
C20   C     C_1   0.847810 0.362502 0.441976 0.198447
C21   C     C_1   0.153209 0.363179 0.555532 0.202128
C22   C     C_1   0.969643 0.532037 0.620291 0.170854
C23   C     C_R   0.432052 0.438781 0.940943 -0.233081
C24   C     C_1   0.029987 0.530945 0.379896 0.173744
C25   C     C_R   0.532288 0.096140 0.668892 0.127532
C26   C     C_R   0.426003 0.142962 0.686962 -0.123428
C27   C     C_R   0.440694 0.191930 0.766380 -0.118348
C28   C     C_R   0.561258 0.194271 0.828217 -0.117786
C29   C     C_R   0.667175 0.147402 0.810929 -0.131741
C30   C     C_R   0.652957 0.098475 0.731528 -0.142719
C31   C     C_R   0.479153 0.903779 0.332058 0.134330
C32   C     C_R   0.583400 0.854008 0.315383 -0.131845
C33   C     C_R   0.567811 0.804776 0.236102 -0.128357
C34   C     C_R   0.568503 0.560856 0.059139 -0.232569
C35   C     C_R   0.448424 0.805111 0.172957 -0.111430
C36   C     C_R   0.344594 0.854893 0.188805 -0.130622
C37   C     C_R   0.359656 0.904045 0.268094 -0.143486
C38   C     C_1   0.533537 0.914318 0.669686 0.176994
C39   C     C_1   0.479360 0.085842 0.331492 0.180652
C40   C     C_R   0.349421 0.371591 0.066749 0.104251
C41   C     C_R   0.252730 0.393140 0.115365 -0.135509
C42   C     C_R   0.180289 0.330220 0.146232 -0.124545
C43   C     C_R   0.202672 0.245449 0.128077 -0.104103
C44   C     C_R   0.297255 0.223466 0.078775 -0.106269
C45   C     C_R   0.503544 0.500023 0.905530 0.014606
C46   C     C_R   0.370334 0.286152 0.048124 -0.154041
C47   C     C_R   0.652298 0.627517 0.933573 0.104561
C48   C     C_R   0.749132 0.605374 0.885301 -0.136289
C49   C     C_R   0.823029 0.667836 0.855051 -0.124021
C50   C     C_R   0.801937 0.752728 0.873455 -0.103306
C51   C     C_R   0.707151 0.775291 0.922365 -0.105409
C52   C     C_R   0.632616 0.713069 0.952392 -0.154998
C53   C     C_R   0.496916 0.499670 0.094537 0.014755
C54   C     C_R   0.573342 0.561615 0.965880 0.033392
C55   C     C_R   0.427397 0.437937 0.034238 0.033579
C56   C     C_1   0.501131 0.499845 0.807250 0.069409
H1    H     H_    0.377808 0.391739 0.895209 0.142812
H2    H     H_    0.436210 0.766665 0.111880 0.120199
H3    H     H_    0.252161 0.855030 0.139877 0.130757
H4    H     H_    0.278046 0.941630 0.280138 0.127002
H5    H     H_    0.232923 0.458580 0.128974 0.130660
H6    H     H_    0.106519 0.347227 0.184016 0.138611
H7    H     H_    0.146540 0.196807 0.152019 0.127406
H8    H     H_    0.314326 0.157785 0.064590 0.137059
H9    H     H_    0.444051 0.268050 0.010705 0.120358
H10   H     H_    0.768030 0.539819 0.871578 0.130080
H11   H     H_    0.896986 0.650381 0.817611 0.148719
H12   H     H_    0.622838 0.607848 0.104893 0.143248
H13   H     H_    0.859228 0.801010 0.850013 0.128475
H14   H     H_    0.691082 0.841063 0.936754 0.137820
H15   H     H_    0.558818 0.731620 0.989541 0.120360
H16   H     H_    0.332325 0.141813 0.639300 0.139074
H17   H     H_    0.358784 0.228249 0.779892 0.137380
H18   H     H_    0.572706 0.232476 0.889432 0.121230
H19   H     H_    0.760494 0.149296 0.858863 0.131003
H20   H     H_    0.736009 0.063041 0.718395 0.127675
H21   H     H_    0.676127 0.852961 0.364077 0.130200
H22   H     H_    0.648081 0.766137 0.223748 0.132258
N1    N     N_1   0.499960 0.500020 0.270540 -0.078001
N2    N     N_1   0.500040 0.499980 0.729460 -0.077542
N3    N     N_1   0.781706 0.314529 0.394946 -0.193040
N4    N     N_1   0.219674 0.315781 0.601992 -0.226577
N5    N     N_1   0.038238 0.573444 0.673851 -0.208406
N6    N     N_1   0.960983 0.571757 0.326927 -0.205438
N7    N     N_1   0.543268 0.879305 0.737681 -0.206928
N8    N     N_1   0.470158 0.120977 0.263611 -0.202651
O1    O     O_R   0.500000 0.378020 0.573650 -0.601916
O2    O     O_R   0.500000 0.621980 0.426350 -0.604229
O3    O     O_R   0.500060 0.378020 0.426320 -0.598437
O4    O     O_R   0.499940 0.621980 0.573680 -0.598662
O5    O     O_R   0.317790 0.500010 0.546150 -0.591373
O6    O     O_R   0.682210 0.499990 0.453850 -0.593671
O7    O     O_R   0.317850 0.500010 0.398830 -0.607731
O8    O     O_R   0.682150 0.499990 0.601170 -0.607682
Zn1   Zn    Zn3+2 0.499960 0.500000 0.598370 0.995057
Zn2   Zn    Zn3+2 0.500040 0.500000 0.401630 0.993368

loop_
_geom_bond_atom_site_label_1
_geom_bond_atom_site_label_2
_ccdc_geom_bond_type
C1    O1    A    
O2    Zn2   S    
C23   C45   A    
C26   H16   S    
C41   C42   A    
C35   C36   A    
C41   H5    S    
C14   C31   S    
C36   H3    S    
C28   H18   S    
C43   H7    S    
O4    Zn1   S    
C44   H8    S    
C40   C46   A    
C26   C27   A    
C8    C20   S    
C35   H2    S    
C12   O4    A    
C28   C29   A    
C50   H13   S    
C11   C14   A    
C33   H22   S    
C15   C25   S    
C6    C22   S    
O6    Zn2   S    
C3    O5    A    
C2    N1    T    
C32   H21   S    
C31   C32   A    
C45   C56   S    
O1    Zn1   S    
C51   H14   S    
C42   H6    S    
C20   N3    T    
C44   C46   A    
C50   C51   A    
C53   C55   A    
C12   O2    A    
C38   N7    T    
C51   C52   A    
C7    C8    S    
C46   H9    S    
C4    C6    S    
C10   C14   A    
C34   H12   S    
C5    C7    D    
C6    C8    D    
C25   C26   A    
C7    C21   S    
C10   C13   A    
C31   C37   A    
C10   C39   S    
C43   C44   A    
C29   C30   A    
C30   H20   S    
C11   C16   S    
C47   C48   A    
C40   C55   S    
C17   C18   T    
C1    C18   S    
C3    O7    A    
N2    Zn1   S    
C9    C11   A    
C47   C54   S    
C4    O8    A    
C48   C49   A    
C45   C54   A    
C34   C54   A    
O7    Zn2   S    
C13   C15   A    
C42   C43   A    
C25   C30   A    
C23   H1    S    
C40   C41   A    
C1    O3    A    
C49   H11   S    
C3    C5    S    
C2    C53   S    
C23   C55   A    
C47   C52   A    
C29   H19   S    
C56   N2    T    
C13   C17   S    
C32   C33   A    
O3    Zn2   S    
C24   N6    T    
N1    Zn2   S    
C52   H15   S    
C22   N5    T    
C5    C24   S    
C16   C19   T    
C12   C19   S    
C9    C38   S    
C33   C35   A    
C9    C15   A    
O8    Zn1   S    
C37   H4    S    
O5    Zn1   S    
C21   N4    T    
C34   C53   A    
C36   C37   A    
C49   C50   A    
C27   C28   A    
C39   N8    T    
C48   H10   S    
C27   H17   S    
C4    O6    A    
