data_mof_unit_41849.cif
_audit_creation_date              2012-12-10T18:18:23-0500
_audit_creation_method            fapswitch 2.2
_symmetry_space_group_name_H-M    P1
_symmetry_Int_Tables_number       1
_space_group_crystal_system       triclinic
_cell_length_a                    14.016528
_cell_length_b                    14.993401
_cell_length_c                    15.571852
_cell_angle_alpha                 89.754284
_cell_angle_beta                  67.069699
_cell_angle_gamma                 89.870721
_cell_volume                      3013.88549811

loop_
_atom_site_label
_atom_site_type_symbol
_atom_type_description
_atom_site_fract_x
_atom_site_fract_y
_atom_site_fract_z
_atom_type_partial_charge
C1    C     C_R   0.499871 0.673465 0.500320 0.892940
C2    C     C_R   0.499935 0.326513 0.500570 0.907074
C3    C     C_R   0.381246 0.481298 0.102450 0.476868
C4    C     C_R   0.626220 0.531748 0.893452 0.478452
C5    C     C_R   0.309250 0.473705 0.062003 -0.329240
C6    C     C_R   0.698722 0.517325 0.933905 -0.366864
C7    C     C_R   0.574418 0.184877 0.523718 -0.256695
C8    C     C_R   0.425955 0.815358 0.478763 -0.263075
C9    C     C_R   0.499990 0.230693 0.501434 -0.077631
C10   C     C_R   0.499914 0.769229 0.501056 -0.071553
C11   C     C_R   0.425628 0.185102 0.479648 -0.272495
C12   C     C_R   0.574185 0.814463 0.523680 -0.262719
C13   C     C_R   0.425775 0.092954 0.478723 0.130340
C14   C     C_R   0.574889 0.906779 0.524135 0.119052
C15   C     C_R   0.500377 0.046352 0.501493 0.061485
C16   C     C_R   0.500391 0.953553 0.501425 0.060039
C17   C     C_R   0.574946 0.092528 0.524211 0.116203
C18   C     C_R   0.425864 0.907534 0.478532 0.125273
C19   C     C_R   0.352888 0.046768 0.455158 -0.233550
C20   C     C_R   0.648627 0.952960 0.546773 -0.217138
C21   C     C_R   0.352807 0.954251 0.455375 -0.224059
C22   C     C_R   0.648657 0.045722 0.546804 -0.218284
C23   C     C_R   0.435137 0.502552 0.675930 0.877293
C24   C     C_R   0.564741 0.502478 0.323848 0.879004
C25   C     C_R   0.179686 0.438246 0.552033 -0.030356
C26   C     C_R   0.821022 0.560211 0.446324 -0.038216
C27   C     C_R   0.224249 0.561613 0.447977 0.014522
C28   C     C_R   0.775603 0.438029 0.551759 0.017978
C29   C     C_R   0.123911 0.563569 0.446844 -0.126432
C30   C     C_R   0.875732 0.436069 0.553257 -0.096589
C31   C     C_R   0.050718 0.499364 0.499489 -0.069143
C32   C     C_R   0.949729 0.498933 0.499090 -0.055213
C33   C     C_R   0.078445 0.436038 0.553049 -0.097756
C34   C     C_R   0.922819 0.560909 0.443813 -0.117620
C35   C     C_R   0.095211 0.627706 0.394336 0.398780
C36   C     C_R   0.903299 0.373149 0.607419 0.338413
C37   C     C_R   0.997633 0.622427 0.387985 0.375229
C38   C     C_R   0.005095 0.371883 0.605639 0.351850
C39   C     C_R   0.393328 0.506416 0.777060 -0.100107
C40   C     C_R   0.605382 0.508442 0.222460 -0.098938
C41   C     C_R   0.265831 0.467589 0.927599 -0.179210
C42   C     C_R   0.741705 0.499437 0.069163 -0.180043
C43   C     C_R   0.295261 0.473558 0.831639 -0.191647
C44   C     C_R   0.709990 0.495401 0.165931 -0.204746
C45   C     C_R   0.458352 0.537219 0.818791 -0.178748
C46   C     C_R   0.534570 0.525495 0.181841 -0.183109
C47   C     C_R   0.439096 0.516988 0.911680 0.097672
C48   C     C_R   0.561457 0.514390 0.086734 0.089129
C49   C     C_R   0.337634 0.487182 0.967571 0.090583
C50   C     C_R   0.667677 0.509728 0.029466 0.112739
C51   C     C_R   0.517186 0.521611 0.949587 -0.094432
C52   C     C_R   0.485617 0.508036 0.047717 -0.120121
H1    H     H_    0.231029 0.452664 0.104998 0.161690
H2    H     H_    0.780594 0.514346 0.890003 0.142077
H3    H     H_    0.203244 0.390580 0.592369 0.166816
H4    H     H_    0.797465 0.607751 0.405904 0.162878
H5    H     H_    0.282517 0.609078 0.407257 0.158732
H6    H     H_    0.717263 0.390461 0.592074 0.163587
H7    H     H_    0.458346 0.549269 0.225355 0.212983
H8    H     H_    0.522652 0.577296 0.776229 0.201917
H9    H     H_    0.766659 0.483856 0.196179 0.151325
H10   H     H_    0.242796 0.451270 0.800278 0.158107
H11   H     H_    0.189265 0.442600 0.969841 0.134931
H12   H     H_    0.823379 0.493368 0.025525 0.135433
H13   H     H_    0.631344 0.220947 0.541281 0.164811
H14   H     H_    0.369143 0.779638 0.460712 0.147701
H15   H     H_    0.368235 0.221316 0.462707 0.168012
H16   H     H_    0.630921 0.777954 0.541462 0.162825
H17   H     H_    0.296009 0.082007 0.436778 0.148356
H18   H     H_    0.706072 0.917405 0.564295 0.149730
H19   H     H_    0.296013 0.919145 0.437406 0.144944
H20   H     H_    0.706121 0.080801 0.564363 0.154402
N1    N     N_R   0.249980 0.499930 0.499960 -0.125802
N2    N     N_R   0.750020 0.500070 0.500040 -0.128920
O1    O     O_R   0.419720 0.632140 0.499980 -0.630307
O2    O     O_R   0.580280 0.367860 0.500020 -0.623861
O3    O     O_R   0.580270 0.632160 0.499970 -0.633935
O4    O     O_R   0.419730 0.367840 0.500030 -0.634501
O5    O     O_R   0.373870 0.499980 0.632250 -0.613838
O6    O     O_R   0.626130 0.500020 0.367750 -0.616000
O7    O     O_R   0.534420 0.500000 0.632240 -0.614406
O8    O     O_R   0.465580 0.500000 0.367760 -0.620624
Zn1   Zn    Zn3+2 0.392800 0.499980 0.500010 0.930695
Zn2   Zn    Zn3+2 0.607200 0.500020 0.499990 0.931845
O9    O     O_3   0.164399 0.692675 0.343311 -0.642602
C53   C     C_3   0.161088 0.766085 0.401426 0.047722
H21   H     H_    0.234206 0.803855 0.366687 0.163857
H22   H     H_    0.159055 0.745172 0.470960 0.113663
C54   C     C_3   0.069629 0.828361 0.413179 -0.282084
H23   H     H_    0.068311 0.843733 0.343757 0.253884
H24   H     H_    0.995898 0.794910 0.456668 0.229979
C55   C     C_3   0.076429 0.915480 0.460682 -1.019053
H25   H     H_    0.084914 0.901753 0.527509 0.276085
H26   H     H_    0.004614 0.954914 0.475575 0.273297
H27   H     H_    0.143149 0.955697 0.414331 0.266767
O10   O     O_3   0.834197 0.307217 0.656057 -0.663965
C56   C     C_3   0.779123 0.335745 0.748521 0.095718
H28   H     H_    0.722524 0.387835 0.749309 0.191589
H29   H     H_    0.831779 0.362485 0.780616 0.162518
C57   C     C_3   0.719774 0.256557 0.806863 -0.328117
H30   H     H_    0.668669 0.227733 0.774585 0.225709
H31   H     H_    0.775760 0.204402 0.808048 0.226559
C58   C     C_3   0.653603 0.284253 0.906720 -0.955694
H32   H     H_    0.702864 0.313632 0.940501 0.271144
H33   H     H_    0.613392 0.224894 0.947575 0.261264
H34   H     H_    0.594241 0.333657 0.907252 0.272823
O11   O     O_3   0.973272 0.683479 0.332680 -0.653167
C59   C     C_3   0.983565 0.643348 0.247364 0.062003
H35   H     H_    0.926220 0.675710 0.224186 0.167541
H36   H     H_    0.965179 0.570567 0.253569 0.111901
C60   C     C_3   0.092395 0.659099 0.172980 -0.286715
H37   H     H_    0.112640 0.730896 0.171431 0.243129
H38   H     H_    0.149591 0.619471 0.190350 0.245079
C61   C     C_3   0.098851 0.631758 0.076642 -0.989313
H39   H     H_    0.078311 0.560258 0.076819 0.257510
H40   H     H_    0.178995 0.642164 0.024654 0.283143
H41   H     H_    0.045182 0.672781 0.055918 0.266515
O12   O     O_3   0.029492 0.312717 0.662464 -0.652845
C62   C     C_3   0.054019 0.228936 0.618127 0.101795
H42   H     H_    0.129432 0.232822 0.557266 0.113893
H43   H     H_    0.993114 0.205891 0.593951 0.181097
C63   C     C_3   0.063121 0.160597 0.687630 -0.313273
H44   H     H_    0.131007 0.177334 0.704611 0.221411
H45   H     H_    0.992263 0.163206 0.752997 0.231106
C64   C     C_3   0.075581 0.066156 0.648713 -0.982191
H46   H     H_    0.005676 0.046525 0.636270 0.268574
H47   H     H_    0.085724 0.018716 0.699449 0.271028
H48   H     H_    0.144439 0.062002 0.582298 0.274960
O13   O     O_3   0.347957 0.457988 0.195616 -0.659504
C65   C     C_3   0.350230 0.364235 0.203976 0.072359
H49   H     H_    0.431897 0.340758 0.180180 0.151088
H50   H     H_    0.311918 0.330192 0.162341 0.137437
C66   C     C_3   0.292262 0.338690 0.306308 -0.292200
H51   H     H_    0.334385 0.365107 0.348214 0.247304
H52   H     H_    0.213554 0.368877 0.332652 0.229907
C67   C     C_3   0.281726 0.237779 0.318673 -1.023883
H53   H     H_    0.240377 0.209843 0.276825 0.272608
H54   H     H_    0.236209 0.221840 0.393060 0.249948
H55   H     H_    0.359383 0.206279 0.296805 0.273379
O14   O     O_3   0.663049 0.542118 0.797394 -0.685678
C68   C     C_3   0.739263 0.610040 0.764595 0.040543
H56   H     H_    0.816996 0.577981 0.736745 0.157805
H57   H     H_    0.736084 0.658956 0.819562 0.139600
C69   C     C_3   0.723765 0.662140 0.686384 -0.317695
H58   H     H_    0.714757 0.615020 0.635550 0.255066
H59   H     H_    0.651654 0.702411 0.716055 0.201877
C70   C     C_3   0.814966 0.724041 0.635850 -0.970971
H60   H     H_    0.823072 0.774056 0.684973 0.264726
H61   H     H_    0.801688 0.759644 0.578808 0.260214
H62   H     H_    0.887954 0.685156 0.605014 0.265035

loop_
_geom_bond_atom_site_label_1
_geom_bond_atom_site_label_2
_ccdc_geom_bond_type
C30   C32   A    
C45   H8    S    
C8    H14   S    
C46   H7    S    
C27   C29   A    
C34   C37   A    
C1    O3    A    
C70   H60   S    
O6    Zn2   S    
C28   N2    A    
O2    Zn2   S    
C56   H28   S    
C47   C49   A    
O9    C53   S    
C40   C46   A    
C12   H16   S    
C21   H19   S    
C5    H1    S    
C19   C21   A    
C37   O11   S    
C69   C70   S    
C53   H22   S    
C7    H13   S    
C15   C16   A    
C18   C21   A    
C11   C13   A    
C59   H35   S    
C15   C17   A    
C41   C49   A    
C24   O8    A    
O12   C62   S    
C57   H30   S    
C26   N2    A    
O4    Zn1   S    
C24   O6    A    
C60   H38   S    
C60   H37   S    
C7    C17   A    
C66   C67   S    
O11   C59   S    
C31   C33   A    
C17   C22   A    
C54   H24   S    
C40   C44   A    
C39   C45   A    
C48   C50   A    
C26   C34   A    
C41   C43   A    
C5    C49   A    
C42   C44   A    
C6    H2    S    
C67   H55   S    
C22   H20   S    
C56   H29   S    
C11   H15   S    
C61   H39   S    
C45   C47   A    
C46   C48   A    
C13   C19   A    
C4    C51   A    
C51   C52   A    
C1    O1    A    
C14   C20   A    
C70   H62   S    
O14   C68   S    
C4    C6    A    
C27   H5    S    
C68   C69   S    
C53   H21   S    
C67   H53   S    
C39   C43   A    
O3    Zn2   S    
C55   H27   S    
C8    C18   A    
C32   C34   A    
C58   H34   S    
C65   H50   S    
C2    O4    A    
C4    O14   S    
C36   O10   S    
C61   H40   S    
C31   C32   A    
C20   C22   A    
C3    C52   A    
O10   C56   S    
C55   H26   S    
C58   H33   S    
C16   C18   A    
C6    C50   A    
C54   C55   S    
C9    C11   A    
C62   H43   S    
C10   C12   A    
C42   C50   A    
C69   H59   S    
C12   C14   A    
C13   C15   A    
C66   H51   S    
C14   C16   A    
C19   H17   S    
C65   C66   S    
C41   H11   S    
C63   H45   S    
C36   C38   A    
C42   H12   S    
O7    Zn2   S    
C2    O2    A    
C20   H18   S    
C67   H54   S    
C64   H47   S    
C57   H31   S    
C62   C63   S    
C35   C37   A    
C7    C9    A    
C56   C57   S    
C23   O7    A    
C70   H61   S    
C3    O13   S    
C1    C10   S    
C25   H3    S    
N2    Zn2   S    
C69   H58   S    
C3    C5    A    
C53   C54   S    
C26   H4    S    
C47   C51   A    
C62   H42   S    
C63   H44   S    
C28   H6    S    
C44   H9    S    
C29   C35   A    
C33   C38   A    
C59   C60   S    
C30   C36   A    
C63   C64   S    
C68   H57   S    
C65   H49   S    
O13   C65   S    
C29   C31   A    
C68   H56   S    
O5    Zn1   S    
C35   O9    S    
O1    Zn1   S    
C64   H46   S    
C64   H48   S    
C23   C39   S    
C28   C30   A    
C55   H25   S    
C24   C40   S    
C59   H36   S    
C60   C61   S    
C25   N1    A    
C57   C58   S    
C61   H41   S    
C38   O12   S    
C48   C52   A    
C8    C10   A    
O8    Zn1   S    
C58   H32   S    
C66   H52   S    
C23   O5    A    
C54   H23   S    
C27   N1    A    
C2    C9    S    
N1    Zn1   S    
C43   H10   S    
C25   C33   A    
