data_mof_unit_24891.cif
_audit_creation_date              2012-12-10T17:36:45-0500
_audit_creation_method            fapswitch 2.2
_symmetry_space_group_name_H-M    P1
_symmetry_Int_Tables_number       1
_space_group_crystal_system       triclinic
_cell_length_a                    11.984083
_cell_length_b                    12.834525
_cell_length_c                    15.722771
_cell_angle_alpha                 90.175126
_cell_angle_beta                  86.675024
_cell_angle_gamma                 93.936489
_cell_volume                      2408.55185091

loop_
_atom_site_label
_atom_site_type_symbol
_atom_type_description
_atom_site_fract_x
_atom_site_fract_y
_atom_site_fract_z
_atom_type_partial_charge
C1    C     C_R   0.522791 0.700506 0.498157 0.921813
C2    C     C_R   0.543970 0.025886 0.474843 0.124366
C3    C     C_R   0.953495 0.405303 0.418209 -0.341223
C4    C     C_R   0.046504 0.594690 0.581794 -0.341424
C5    C     C_R   0.837360 0.414056 0.426451 0.026736
C6    C     C_R   0.162639 0.585943 0.573549 0.026702
C7    C     C_R   0.858811 0.540028 0.536079 -0.056028
C8    C     C_R   0.141189 0.459966 0.463924 -0.056270
C9    C     C_R   0.976105 0.534145 0.529939 0.092102
C10   C     C_R   0.023894 0.465848 0.470066 0.092161
C11   C     C_R   0.500570 0.499936 0.662081 0.907759
C12   C     C_R   0.477211 0.299500 0.501860 0.922031
C13   C     C_R   0.499430 0.500063 0.337921 0.907739
C14   C     C_3   0.418050 0.560243 0.030910 -0.321221
C15   C     C_3   0.581948 0.439746 0.969091 -0.321176
C16   C     C_3   0.519854 0.596125 0.971275 0.577953
C17   C     C_3   0.480145 0.403868 0.028724 0.577967
C18   C     C_1   0.501603 0.499298 0.750940 -0.171690
C19   C     C_1   0.498396 0.500698 0.249057 -0.171712
C20   C     C_3   0.398602 0.460647 0.975873 -0.317276
C21   C     C_3   0.601394 0.539341 0.024128 -0.317250
C22   C     C_3   0.500797 0.498410 0.917123 0.074697
C23   C     C_R   0.629921 0.970851 0.436394 -0.302661
C24   C     C_3   0.499200 0.501580 0.082880 0.074704
C25   C     C_1   0.501641 0.498771 0.826232 0.005945
C26   C     C_1   0.498357 0.501221 0.173770 0.005960
C27   C     C_R   0.462003 0.187864 0.505158 -0.160096
C28   C     C_R   0.538004 0.812144 0.494898 -0.160485
C29   C     C_3   0.554509 0.771515 0.997820 0.100550
C30   C     C_3   0.578592 0.878360 0.956626 -0.818504
C31   C     C_3   0.445465 0.228479 0.002185 0.100559
C32   C     C_3   0.421587 0.121608 0.043382 -0.818499
C33   C     C_3   0.191067 0.182414 0.557895 0.111562
C34   C     C_R   0.370109 0.029174 0.563715 -0.302990
C35   C     C_3   0.105249 0.244422 0.607475 -0.792556
C36   C     C_3   0.808867 0.817397 0.442944 0.111839
C37   C     C_3   0.895167 0.755963 0.393336 -0.792752
C38   C     C_R   0.628639 0.863227 0.447209 0.455443
C39   C     C_R   0.371429 0.136819 0.552940 0.455500
C40   C     C_R   0.454520 0.867712 0.535634 -0.318945
C41   C     C_R   0.545447 0.132286 0.464391 -0.319081
C42   C     C_R   0.456011 0.974121 0.525204 0.124573
H1    H     H_    0.352644 0.609914 0.058151 0.155524
H2    H     H_    0.820465 0.592338 0.581448 0.125023
H3    H     H_    0.216982 0.632420 0.613684 0.131897
H4    H     H_    0.783017 0.367582 0.386314 0.131887
H5    H     H_    0.987806 0.351895 0.371746 0.145347
H6    H     H_    0.012192 0.648099 0.628258 0.145326
H7    H     H_    0.626349 0.755802 0.036618 0.140077
H8    H     H_    0.476983 0.773916 0.040154 0.138450
H9    H     H_    0.507477 0.897458 0.918543 0.255157
H10   H     H_    0.590336 0.938732 0.006648 0.205831
H11   H     H_    0.656070 0.878887 0.914242 0.258178
H12   H     H_    0.647354 0.390078 0.941851 0.155530
H13   H     H_    0.522918 0.226150 0.959757 0.138408
H14   H     H_    0.373513 0.244126 0.963484 0.140095
H15   H     H_    0.344169 0.120986 0.085836 0.258196
H16   H     H_    0.409836 0.061238 0.993356 0.205813
H17   H     H_    0.492809 0.102593 0.081378 0.255182
H18   H     H_    0.157708 0.099305 0.556343 0.121585
H19   H     H_    0.201618 0.213572 0.491617 0.136911
H20   H     H_    0.137391 0.327222 0.613007 0.270043
H21   H     H_    0.025884 0.241095 0.574116 0.202023
H22   H     H_    0.088174 0.211135 0.672408 0.247125
H23   H     H_    0.682895 0.572339 0.045951 0.157271
H24   H     H_    0.797789 0.785571 0.508996 0.137119
H25   H     H_    0.842092 0.900513 0.445217 0.121351
H26   H     H_    0.913039 0.790122 0.328767 0.246898
H27   H     H_    0.974088 0.758704 0.427227 0.202117
H28   H     H_    0.863055 0.673277 0.386883 0.270144
H29   H     H_    0.317103 0.427650 0.954049 0.157254
H30   H     H_    0.613569 0.172514 0.426283 0.169515
H31   H     H_    0.386380 0.827478 0.573719 0.169513
H32   H     H_    0.696511 0.010724 0.396731 0.149004
H33   H     H_    0.303589 0.989305 0.603445 0.148767
H34   H     H_    0.179535 0.407648 0.418561 0.125217
N1    N     N_R   0.207800 0.519340 0.515560 -0.101452
N2    N     N_R   0.792200 0.480660 0.484440 -0.101365
O1    O     O_R   0.421700 0.658830 0.504150 -0.632258
O2    O     O_3   0.459353 0.304328 0.066468 -0.608249
O3    O     O_3   0.293461 0.193079 0.598234 -0.596822
O4    O     O_3   0.706836 0.807055 0.402089 -0.596741
O5    O     O_R   0.578300 0.341170 0.495850 -0.632347
O6    O     O_R   0.609310 0.646410 0.494170 -0.592701
O7    O     O_R   0.390690 0.353590 0.505830 -0.592574
O8    O     O_R   0.406210 0.506220 0.628210 -0.612719
O9    O     O_R   0.593790 0.493780 0.371790 -0.612736
O10   O     O_R   0.593830 0.493800 0.618230 -0.621473
O11   O     O_R   0.406170 0.506200 0.381770 -0.621429
O12   O     O_3   0.540663 0.695660 0.933533 -0.608272
Zn1   Zn    Zn3+2 0.374730 0.508290 0.506660 0.958285
Zn2   Zn    Zn3+2 0.625270 0.491710 0.493340 0.958259

loop_
_geom_bond_atom_site_label_1
_geom_bond_atom_site_label_2
_ccdc_geom_bond_type
C30   H9    S    
C11   C18   S    
C16   O12   S    
C16   C21   S    
C6    H3    S    
C37   H27   S    
C34   C42   A    
C32   H16   S    
O7    Zn1   S    
C36   H25   S    
C31   O2    S    
C29   H7    S    
C1    O6    A    
O5    Zn2   S    
C12   O7    A    
C36   C37   S    
C24   C26   S    
O8    Zn1   S    
C36   H24   S    
C28   C40   A    
C11   O8    A    
C37   H26   S    
C8    H34   S    
C17   C20   S    
C40   H31   S    
C7    C9    A    
C14   C24   S    
C19   C26   T    
C15   C22   S    
O10   Zn2   S    
C27   C39   A    
C22   C25   S    
C1    C28   S    
C20   H29   S    
C35   H22   S    
C31   H14   S    
O11   Zn1   S    
C9    C10   A    
O1    Zn1   S    
C34   H33   S    
C13   O11   A    
C40   C42   A    
C37   H28   S    
C38   O4    S    
C18   C25   T    
C32   H15   S    
C29   O12   S    
C29   H8    S    
C30   H11   S    
C17   C24   S    
C13   C19   S    
C12   C27   S    
C34   C39   A    
C15   H12   S    
C14   C20   S    
C39   O3    S    
C4    C6    A    
C36   O4    S    
C6    N1    A    
N2    Zn2   S    
C17   O2    S    
C12   O5    A    
C29   C30   S    
C27   C41   A    
C31   C32   S    
C28   C38   A    
C11   O10   A    
C13   O9    A    
C7    H2    S    
C7    N2    A    
C33   H19   S    
C20   C22   S    
C33   H18   S    
C41   H30   S    
C8    N1    A    
C1    O1    A    
C14   C16   S    
C23   H32   S    
C4    H6    S    
C15   C17   S    
C30   H10   S    
N1    Zn1   S    
C16   C22   S    
C21   H23   S    
C3    C5    A    
C23   C38   A    
C5    H4    S    
C4    C9    A    
C2    C41   A    
C3    C10   A    
C2    C42   A    
C3    H5    S    
C33   C35   S    
C35   H20   S    
C15   C21   S    
C8    C10   A    
C21   C24   S    
C2    C23   A    
C35   H21   S    
O6    Zn2   S    
C32   H17   S    
C31   H13   S    
C5    N2    A    
O9    Zn2   S    
C33   O3    S    
C14   H1    S    
