data_mof_unit_25169.cif
_audit_creation_date              2012-12-11T18:13:30-0500
_audit_creation_method            fapswitch 2.2
_symmetry_space_group_name_H-M    P1
_symmetry_Int_Tables_number       1
_space_group_crystal_system       triclinic
_cell_length_a                    8.18502
_cell_length_b                    12.649292
_cell_length_c                    18.69264
_cell_angle_alpha                 99.420246
_cell_angle_beta                  91.226439
_cell_angle_gamma                 98.611882
_cell_volume                      1885.61940645

loop_
_atom_site_label
_atom_site_type_symbol
_atom_type_description
_atom_site_fract_x
_atom_site_fract_y
_atom_site_fract_z
_atom_type_partial_charge
Ba1   Ba    Ba6+2 0.852780 0.548340 0.465070 1.646703
Ba2   Ba    Ba6+2 0.337060 0.451750 0.534940 1.649531
C1    C     C_3   0.587863 0.904222 0.255829 -0.339805
C2    C     C_R   0.891800 0.392996 0.094865 0.018496
C3    C     C_R   0.728962 0.346164 0.071607 -0.064486
C4    C     C_3   0.127605 0.758369 0.264636 0.369109
C5    C     C_R   0.667027 0.352402 0.002406 -0.085727
C6    C     C_R   0.767815 0.403754 0.954422 0.027581
C7    C     C_R   0.931826 0.450605 0.976751 0.016557
C8    C     C_R   0.707597 0.406797 0.884147 -0.114188
C9    C     C_R   0.810367 0.452904 0.833994 -0.044886
C10   C     C_R   0.974238 0.502964 0.856751 -0.005708
C11   C     C_R   0.033931 0.501770 0.928491 -0.006994
C12   C     C_3   0.633841 0.819668 0.298554 0.296840
C13   C     C_R   0.756361 0.446965 0.760986 -0.004266
C14   C     C_R   0.865377 0.487822 0.711784 -0.294752
C15   C     C_R   0.023500 0.543844 0.733828 0.044870
C16   C     C_3   0.102974 0.779349 0.187569 -0.301758
C17   C     C_R   0.078999 0.553148 0.807869 -0.047892
C18   C     C_R   0.156601 0.493693 0.070536 -0.009724
C19   C     C_R   0.215928 0.493327 0.142476 -0.012123
C20   C     C_R   0.110710 0.444198 0.191616 -0.036693
C21   C     C_R   0.952666 0.389024 0.165108 -0.012704
C22   C     C_R   0.236936 0.608290 0.834448 -0.039602
C23   C     C_3   0.461568 0.274099 0.313214 0.317498
C24   C     C_R   0.298616 0.602732 0.904241 0.031719
C25   C     C_R   0.197146 0.549285 0.951511 0.002906
C26   C     C_R   0.258831 0.544570 0.022192 0.016042
C27   C     C_R   0.462061 0.648491 0.927133 -0.074684
C28   C     C_3   0.235264 0.787897 0.619553 0.280712
C29   C     C_R   0.524037 0.641996 0.996287 -0.077810
C30   C     C_R   0.422831 0.591383 0.044494 0.032017
C31   C     C_R   0.379794 0.543331 0.165212 -0.038239
C32   C     C_R   0.482811 0.588802 0.114886 -0.106068
C33   C     C_R   0.434227 0.548574 0.238146 0.004709
C34   C     C_3   0.469885 0.244387 0.231033 0.353020
C35   C     C_R   0.326031 0.507100 0.287264 -0.306945
C36   C     C_R   0.166600 0.453657 0.265639 0.058174
C37   C     C_R   0.767050 0.182562 0.528332 -0.277647
C38   C     C_R   0.428456 0.807391 0.469780 -0.290352
C39   C     C_R   0.402611 0.984694 0.444582 -0.100969
C40   C     C_3   0.240095 0.909858 0.634151 -0.343255
C41   C     C_R   0.337810 0.876061 0.440490 -0.013140
C42   C     C_R   0.578209 0.848150 0.508985 0.068911
C43   C     C_R   0.643473 0.960298 0.516565 -0.056119
C44   C     C_R   0.554813 0.028591 0.482580 -0.068279
C45   C     C_3   0.049572 0.242963 0.736552 0.386618
C46   C     C_R   0.618856 0.139675 0.488847 0.039936
C47   C     C_R   0.858834 0.116159 0.559247 -0.013664
C48   C     C_R   0.794997 0.006340 0.555718 -0.093720
C49   C     C_3   0.958375 0.211916 0.380774 0.296430
C50   C     C_3   0.949612 0.089562 0.365084 -0.279363
C51   C     C_3   0.730389 0.708329 0.683178 0.311177
C52   C     C_3   0.754264 0.747642 0.764644 -0.401816
C53   C     C_3   0.192881 0.233319 0.859141 -0.188132
C54   C     C_3   0.274148 0.131366 0.851097 -0.329930
C55   C     C_3   0.030118 0.214596 0.813167 -0.213479
C56   C     C_3   0.563799 0.177473 0.697778 0.336596
C57   C     C_3   0.629309 0.100944 0.742295 -0.426831
C58   C     C_R   0.993458 0.446033 0.047479 0.002919
H1    H     H_    0.726537 0.859537 0.342698 0.080752
H2    H     H_    0.846698 0.683992 0.662176 0.014547
H3    H     H_    0.629394 0.637827 0.673071 0.064146
H4    H     H_    0.545949 0.971380 0.293250 0.127346
H5    H     H_    0.860982 0.814377 0.776319 0.129558
H6    H     H_    0.778016 0.680586 0.792895 0.057961
H7    H     H_    0.641138 0.777911 0.785874 0.119462
H8    H     H_    0.520280 0.785900 0.323691 -0.042996
H9    H     H_    0.486618 0.866730 0.214986 0.137548
H10   H     H_    0.334286 0.286806 0.327163 0.013881
H11   H     H_    0.548384 0.350916 0.330686 -0.020634
H12   H     H_    0.318813 0.945621 0.683475 0.107912
H13   H     H_    0.453654 0.315561 0.205449 -0.131686
H14   H     H_    0.593561 0.222388 0.218006 0.022366
H15   H     H_    0.695960 0.937226 0.226963 0.147252
H16   H     H_    0.130196 0.709392 0.148122 0.049354
H17   H     H_    0.137811 0.319085 0.738535 0.083780
H18   H     H_    0.927125 0.257942 0.717749 -0.104153
H19   H     H_    0.947000 0.266854 0.842162 0.056710
H20   H     H_    0.967876 0.129421 0.809608 0.117697
H21   H     H_    0.669146 0.215434 0.669619 -0.037878
H22   H     H_    0.472615 0.129902 0.655375 0.077082
H23   H     H_    0.291408 0.945795 0.587763 0.083569
H24   H     H_    0.717714 0.055513 0.710785 0.095871
H25   H     H_    0.527888 0.041862 0.757405 0.110772
H26   H     H_    0.045211 0.682393 0.270133 0.085575
H27   H     H_    0.691861 0.148197 0.793176 0.119645
H28   H     H_    0.648702 0.305327 0.107117 0.082644
H29   H     H_    0.540455 0.316075 0.986170 0.075454
H30   H     H_    0.823779 0.479776 0.655561 0.069330
H31   H     H_    0.581299 0.370201 0.868731 0.096298
H32   H     H_    0.873313 0.344542 0.199011 0.101954
H33   H     H_    0.316152 0.653398 0.800819 0.096068
H34   H     H_    0.113474 0.929221 0.642772 0.131903
H35   H     H_    0.542667 0.688669 0.891320 0.063689
H36   H     H_    0.650870 0.677788 0.012385 0.078475
H37   H     H_    0.609698 0.624435 0.130002 0.109445
H38   H     H_    0.258145 0.747588 0.273162 -0.085957
H39   H     H_    0.368560 0.513788 0.343262 0.070302
H40   H     H_    0.329570 0.033876 0.419386 0.112055
H41   H     H_    0.866562 0.958564 0.582785 0.099733
H42   H     H_    0.815698 0.267736 0.531771 0.063612
H43   H     H_    0.377180 0.722549 0.465726 0.071079
H44   H     H_    0.973300 0.790896 0.177296 0.153856
H45   H     H_    0.835906 0.232231 0.394858 -0.018929
H46   H     H_    0.187296 0.852952 0.179075 0.183382
H47   H     H_    0.360246 0.769542 0.607774 0.006142
H48   H     H_    0.148763 0.754167 0.572004 0.074006
H49   H     H_    0.164302 0.216760 0.131245 0.322704
H50   H     H_    0.281229 0.097355 0.792955 0.177401
H51   H     H_    0.400749 0.151198 0.877072 0.122921
H52   H     H_    0.200595 0.069021 0.877829 0.122006
H53   H     H_    0.279458 0.302339 0.845136 0.146669
H54   H     H_    0.166551 0.255689 0.917336 0.105673
H55   H     H_    0.048798 0.244381 0.427032 0.064134
H56   H     H_    0.870916 0.055557 0.315367 0.130634
H57   H     H_    0.896506 0.052753 0.410803 0.051445
H58   H     H_    0.075510 0.068744 0.356929 0.170080
O1    O     O_2   0.873090 0.425890 0.325140 -0.478102
O2    O     O_2   0.201765 0.122329 0.556408 -0.486776
O3    O     O_3   0.103253 0.157683 0.689300 -0.604833
O4    O     O_3   0.122420 0.434370 0.414380 -0.501326
O5    O     O_3   0.578370 0.633800 0.536380 -0.489052
O6    O     O_2   0.341510 0.231850 0.465510 -0.470216
O7    O     O_3   0.507524 0.190039 0.345884 -0.640463
O8    O     O_2   0.412859 0.448880 0.756473 -0.505713
O9    O     O_3   0.485235 0.252389 0.743698 -0.596582
O10   O     O_3   0.659500 0.627100 0.368810 -0.471411
O11   O     O_2   0.776089 0.546779 0.243516 -0.504061
O12   O     O_3   0.690307 0.793456 0.650542 -0.642162
O13   O     O_3   0.003870 0.252976 0.317998 -0.582490
O14   O     O_3   0.703804 0.741583 0.251638 -0.598854
O15   O     O_2   0.848200 0.768190 0.534530 -0.473908
O16   O     O_3   0.081160 0.685950 0.404810 -0.491825
O17   O     O_2   0.999603 0.879533 0.448362 -0.490145
O18   O     O_2   0.277399 0.055727 0.245348 -0.283316
O19   O     O_2   0.372925 0.074565 0.124378 -0.308824
O20   O     O_3   0.139358 0.180623 0.173797 -0.499552
O21   O     O_3   0.088308 0.846229 0.314076 -0.576974
O22   O     O_2   0.316610 0.574140 0.674900 -0.470585
O23   O     O_3   0.067290 0.565720 0.585630 -0.496865
O24   O     O_3   0.530210 0.372990 0.631200 -0.463371
O25   O     O_3   0.185048 0.747122 0.681969 -0.639773
O26   O     O_3   0.611340 0.366290 0.463630 -0.476057
O27   O     O_3   0.108550 0.314140 0.595200 -0.478943
P1    P     P_3+3 0.041040 0.394770 0.336330 0.999227
P2    P     P_3+3 0.672880 0.754030 0.556100 0.969304
P3    P     P_3+3 0.127280 0.823807 0.402464 0.956583
P4    P     P_3+3 0.148670 0.605320 0.663680 0.971286
P5    P     P_3+3 0.067478 0.175596 0.599351 0.956062
P6    P     P_3+3 0.643034 0.613374 0.274699 0.948311
P7    P     P_3+3 0.522334 0.230335 0.440149 0.946609
P8    P     P_3+3 0.546530 0.383136 0.724729 0.947717
S1    S     S_3+6 0.313725 0.133577 0.193003 -0.073887

loop_
_geom_bond_atom_site_label_1
_geom_bond_atom_site_label_2
_ccdc_geom_bond_type
C53   C54   S    
C14   H30   S    
C28   H47   S    
Ba2   O26   S    
C55   H19   S    
Ba1   O10   S    
O9    P8    S    
C57   H25   S    
C34   S1    S    
C5    C6    A    
C52   H5    S    
C12   O14   S    
C51   C52   S    
O1    P1    D    
C24   C25   A    
C47   P5    S    
C4    H38   S    
C1    H9    S    
C22   C24   A    
O11   P6    D    
C56   H22   S    
C45   O3    S    
C19   C31   A    
C29   H36   S    
C20   C36   A    
C42   P2    S    
O3    P5    S    
O13   P1    S    
Ba1   Ba2   S    
Ba1   O1    S    
C4    O21   S    
C7    C11   A    
Ba1   O4    S    
C36   P1    S    
C23   O7    S    
C41   P3    S    
C31   C33   A    
C3    H28   S    
C9    C13   A    
C32   H37   S    
C38   C41   A    
C6    C7    A    
C39   C44   A    
C23   H11   S    
C18   C58   A    
C1    H15   S    
C54   H51   S    
O27   P5    S    
C21   H32   S    
C28   H48   S    
C50   H57   S    
O20   S1    S    
Ba2   P4    S    
C50   H56   S    
O6    P7    D    
C56   O9    S    
C19   C20   A    
C27   C29   A    
C39   C41   A    
C55   H20   S    
Ba1   P1    S    
C33   P6    S    
Ba1   O15   S    
C54   H50   S    
Ba2   O4    S    
C4    C16   S    
C44   C46   A    
O21   P3    S    
O23   P4    S    
C49   C50   S    
C26   C30   A    
C57   H24   S    
C34   H13   S    
C56   H21   S    
C3    C5    A    
C2    C21   A    
C49   O13   S    
C14   C15   A    
C52   H7    S    
C18   C26   A    
C56   C57   S    
C43   C44   A    
C12   H1    S    
C49   H55   S    
C28   O25   S    
H49   O20   S    
Ba2   O27   S    
C30   C32   A    
Ba1   O5    S    
C35   C36   A    
O7    P7    S    
C45   C55   S    
O18   S1    D    
C51   H2    S    
O10   P6    S    
C29   C30   A    
C38   C42   A    
C49   H45   S    
C2    C58   A    
C40   H12   S    
C31   C32   A    
C39   H40   S    
C16   H44   S    
C18   C19   A    
C1    C12   S    
C34   H14   S    
C48   H41   S    
O15   P2    D    
C37   C47   A    
O5    P2    S    
C8    H31   S    
O17   P3    D    
C53   C55   S    
Ba2   O24   S    
Ba1   P2    S    
C45   H17   S    
Ba1   O16   S    
C35   H39   S    
O16   P3    S    
C42   C43   A    
C37   H42   S    
C27   H35   S    
Ba2   O23   S    
C16   H16   S    
C33   C35   A    
O12   P2    S    
C40   H34   S    
C16   H46   S    
C15   P4    S    
C40   H23   S    
C51   O12   S    
C2    C3    A    
C9    C10   A    
C52   H6    S    
C53   H54   S    
Ba2   O6    S    
C53   H53   S    
O2    P5    D    
C4    H26   S    
C7    C58   A    
Ba2   O22   S    
C46   P7    S    
C17   C22   A    
O26   P7    S    
Ba1   O26   S    
C22   H33   S    
C38   H43   S    
C51   H3    S    
C43   C48   A    
C10   C17   A    
C15   C17   A    
O19   S1    D    
C28   C40   S    
O4    P1    S    
O24   P8    S    
C1    H4    S    
C57   H27   S    
C13   P8    S    
Ba1   O23   S    
C8    C9    A    
C23   C34   S    
O8    P8    D    
O25   P4    S    
C10   C11   A    
C24   C27   A    
C6    C8    A    
C47   C48   A    
C25   C26   A    
O14   P6    S    
C12   H8    S    
C20   C21   A    
C11   C25   A    
C23   H10   S    
C45   H18   S    
O22   P4    D    
C54   H52   S    
Ba2   O5    S    
C13   C14   A    
C50   H58   S    
C37   C46   A    
C5    H29   S    
