data_mof_unit_67393.cif
_audit_creation_date              2013-03-05T16:11:02-0500
_audit_creation_method            fapswitch 2.2
_symmetry_space_group_name_H-M    P1
_symmetry_Int_Tables_number       1
_space_group_crystal_system       triclinic
_cell_length_a                    16.902941
_cell_length_b                    27.862466
_cell_length_c                    8.901885
_cell_angle_alpha                 89.628562
_cell_angle_beta                  105.064194
_cell_angle_gamma                 91.119432
_cell_volume                      4047.56244289

loop_
_atom_site_label
_atom_site_type_symbol
_atom_site_description
_atom_site_fract_x
_atom_site_fract_y
_atom_site_fract_z
_atom_type_partial_charge
P1    P     P_3+3 0.171820 0.553000 0.158080 0.693353
P2    P     P_3+3 0.171820 0.447000 0.658080 0.686593
P3    P     P_3+3 0.671820 0.053000 0.158080 0.695865
P4    P     P_3+3 0.671820 0.947000 0.658080 0.687258
O1    O     O_2   0.163830 0.569270 0.980510 -0.257466
O2    O     O_2   0.163830 0.430730 0.480510 -0.264797
O3    O     O_2   0.663830 0.069270 0.980510 -0.253540
O4    O     O_2   0.663830 0.930730 0.480510 -0.263858
O5    O     O_3   0.095420 0.524330 0.188510 -0.336836
O6    O     O_3   0.095420 0.475670 0.688510 -0.331850
O7    O     O_3   0.595420 0.024330 0.188510 -0.331721
O8    O     O_3   0.595420 0.975670 0.688510 -0.331749
O9    O     O_3   0.028940 0.612400 0.656050 -0.361147
O10   O     O_3   0.028940 0.387600 0.156050 -0.377208
O11   O     O_3   0.528940 0.112400 0.656050 -0.370082
O12   O     O_3   0.528940 0.887600 0.156050 -0.375885
O13   O     O_2   0.175389 0.642895 0.824047 -0.214206
O14   O     O_2   0.160325 0.347078 0.332720 -0.259337
O15   O     O_2   0.670793 0.145810 0.811907 -0.193614
O16   O     O_2   0.659208 0.846942 0.336440 -0.262597
O17   O     O_3   0.274461 0.532751 0.219718 -0.564819
O18   O     O_3   0.275138 0.468352 0.717067 -0.565659
O19   O     O_3   0.774487 0.032848 0.220301 -0.571113
O20   O     O_3   0.774866 0.969010 0.718041 -0.566794
O21   O     O_3   0.087282 0.714301 0.699702 -0.567243
O22   O     O_3   0.061847 0.284572 0.152978 -0.589748
O23   O     O_3   0.569947 0.212967 0.700087 -0.547361
O24   O     O_3   0.561307 0.784493 0.154483 -0.592218
H1    H     H_    0.970385 0.694755 0.712413 0.079101
H2    H     H_    0.011332 0.301417 0.334873 0.095389
H3    H     H_    0.455461 0.188939 0.566061 0.001792
H4    H     H_    0.511017 0.801089 0.336884 0.096335
C1    C     C_3   0.987777 0.771981 0.722257 0.588286
C2    C     C_3   0.991627 0.225765 0.271043 0.590612
C3    C     C_3   0.444554 0.254786 0.686825 0.596025
C4    C     C_3   0.491422 0.725445 0.272873 0.591713
H5    H     H_    0.019119 0.774462 0.847063 0.087029
H6    H     H_    0.944991 0.221323 0.337647 0.105450
H7    H     H_    0.477386 0.255395 0.808995 0.090136
H8    H     H_    0.444424 0.720819 0.338652 0.106125
P5    P     P_3+3 0.829210 0.554130 0.532500 0.661422
P6    P     P_3+3 0.829210 0.445870 0.032500 0.651397
P7    P     P_3+3 0.329210 0.054130 0.532500 0.657363
P8    P     P_3+3 0.329210 0.945870 0.032500 0.647670
P9    P     P_3+3 0.898550 0.656625 0.023506 0.508317
P10   P     P_3+3 0.893033 0.345929 0.535099 0.465146
P11   P     P_3+3 0.399082 0.156073 0.036116 0.527083
P12   P     P_3+3 0.393387 0.845683 0.535669 0.468636
O25   O     O_2   0.837400 0.570350 0.710350 -0.354586
O26   O     O_2   0.837400 0.429650 0.210350 -0.356725
O27   O     O_2   0.337400 0.070350 0.710350 -0.360077
O28   O     O_2   0.337400 0.929650 0.210350 -0.363880
O29   O     O_3   0.972820 0.612580 0.035550 -0.381842
O30   O     O_3   0.972820 0.387420 0.535550 -0.375609
O31   O     O_3   0.472820 0.112580 0.035550 -0.346172
O32   O     O_3   0.472820 0.887420 0.535550 -0.375553
O33   O     O_2   0.834393 0.648502 0.866001 -0.372207
O34   O     O_2   0.829704 0.350157 0.375325 -0.354658
O35   O     O_2   0.329284 0.146196 0.887481 -0.350272
O36   O     O_2   0.330072 0.849485 0.375720 -0.352242
O37   O     O_3   0.735554 0.520804 0.475153 -0.460367
O38   O     O_3   0.735641 0.477329 0.973599 -0.467019
O39   O     O_3   0.234902 0.021323 0.475480 -0.471511
O40   O     O_3   0.236727 0.978379 0.980373 -0.472544
O41   O     O_3   0.943915 0.712743 0.000912 -0.499711
O42   O     O_3   0.934387 0.288620 0.536420 -0.564616
O43   O     O_3   0.438313 0.212724 0.002003 -0.501831
O44   O     O_3   0.435489 0.788537 0.538488 -0.563232
C5    C     C_3   0.021454 0.717990 0.109385 0.614784
C6    C     C_3   0.997891 0.282927 0.674924 0.657384
C7    C     C_3   0.517774 0.220414 0.100563 0.658813
C8    C     C_3   0.499243 0.783418 0.676946 0.660975
H9    H     H_    0.029975 0.693340 0.207907 0.066937
H10   H     H_    0.001480 0.311786 0.762581 -0.036589
H11   H     H_    0.523044 0.206566 0.219591 0.001540
H12   H     H_    0.502682 0.812555 0.763633 -0.040246
C9    C     C_3   0.038759 0.769973 0.170492 0.093657
C10   C     C_3   0.987746 0.235670 0.756731 0.161154
C11   C     C_3   0.543027 0.274159 0.107109 0.132573
C12   C     C_3   0.489684 0.736433 0.760573 0.159267
H13   H     H_    0.087333 0.787776 0.125374 0.128203
H14   H     H_    0.040329 0.231179 0.860556 0.136768
H15   H     H_    0.570682 0.284143 0.010703 0.118690
H16   H     H_    0.542484 0.732285 0.864120 0.134135
C13   C     C_3   0.747144 0.527333 0.973342 0.554009
C14   C     C_3   0.747405 0.471161 0.471385 0.561826
C15   C     C_3   0.251127 0.027871 0.969848 0.560008
C16   C     C_3   0.246659 0.971637 0.471656 0.563691
H17   H     H_    0.796141 0.537583 0.918116 0.047553
H18   H     H_    0.794663 0.462998 0.411374 0.058297
H19   H     H_    0.296513 0.034749 0.904285 0.067694
H20   H     H_    0.293600 0.963545 0.410579 0.049651
C17   C     C_3   0.667762 0.553606 0.888755 0.607629
C18   C     C_3   0.667474 0.443250 0.390011 0.598938
C19   C     C_3   0.171866 0.055378 0.891227 0.597078
C20   C     C_3   0.166869 0.943535 0.390792 0.599095
H21   H     H_    0.673472 0.591906 0.925099 0.012201
H22   H     H_    0.673842 0.404935 0.426241 0.011283
H23   H     H_    0.181906 0.094077 0.921447 0.016633
H24   H     H_    0.174246 0.905102 0.425195 0.007464
Ba1   Ba    Ba6+2 0.000400 0.534870 0.845190 1.803381
Ba2   Ba    Ba6+2 0.000400 0.465130 0.345190 1.805572
Ba3   Ba    Ba6+2 0.500400 0.034870 0.845190 1.809144
Ba4   Ba    Ba6+2 0.500400 0.965130 0.345190 1.807767
C21   C     C_3   0.297162 0.485046 0.203135 0.896100
C22   C     C_3   0.298387 0.516561 0.701971 0.899640
C23   C     C_3   0.797360 0.985190 0.203805 0.894854
C24   C     C_3   0.798014 0.017296 0.702477 0.899925
C25   C     C_3   0.390356 0.484098 0.273705 -0.629949
C26   C     C_3   0.391455 0.519098 0.771702 -0.633110
C27   C     C_3   0.890490 0.984299 0.275206 -0.630453
C28   C     C_3   0.891398 0.019962 0.772600 -0.635409
H25   H     H_    0.421830 0.508750 0.208258 0.253891
H26   H     H_    0.422393 0.495559 0.705009 0.254852
H27   H     H_    0.922142 0.009068 0.210423 0.253386
H28   H     H_    0.922554 0.996317 0.706631 0.253232
H29   H     H_    0.414016 0.447333 0.269553 0.283160
H30   H     H_    0.415552 0.556407 0.768836 0.282600
H31   H     H_    0.914262 0.947573 0.270877 0.282526
H32   H     H_    0.915573 0.057225 0.769144 0.283645
H33   H     H_    0.405780 0.495994 0.396938 0.255189
H34   H     H_    0.406812 0.506624 0.894478 0.259940
H35   H     H_    0.905568 0.996061 0.398550 0.255369
H36   H     H_    0.906922 0.007746 0.895638 0.258258
O45   O     O_3   0.904940 0.476110 0.001150 -0.353465
O46   O     O_3   0.904940 0.523890 0.501150 -0.346659
O47   O     O_3   0.404940 0.976110 0.001150 -0.348194
O48   O     O_3   0.404940 0.023890 0.501150 -0.344864
P13   P     P_3+3 0.103193 0.343416 0.166155 0.572626
P14   P     P_3+3 0.111183 0.654123 0.670688 0.640700
P15   P     P_3+3 0.602824 0.843335 0.169162 0.571916
P16   P     P_3+3 0.604554 0.156526 0.660414 0.591151
C29   C     C_3   0.002525 0.722519 0.658457 0.539128
C30   C     C_3   0.998744 0.279125 0.228671 0.576867
C31   C     C_3   0.492000 0.222524 0.600789 0.493737
C32   C     C_3   0.498405 0.778842 0.230655 0.575772
H37   H     H_    0.061873 0.769533 0.299212 0.122753
H38   H     H_    0.931581 0.237055 0.796364 0.165518
H39   H     H_    0.591616 0.281565 0.215030 0.122441
H40   H     H_    0.433762 0.737954 0.800815 0.164300
C33   C     C_2   0.870085 0.378318 0.814887 -0.252826
C34   C     C_2   0.870517 0.620577 0.299716 -0.241182
C35   C     C_2   0.369893 0.878408 0.814355 -0.256370
C36   C     C_2   0.380103 0.126408 0.326257 -0.409371
C37   C     C_R   0.135960 0.616801 0.390880 -0.351948
C38   C     C_R   0.136143 0.383007 0.894653 -0.356614
C39   C     C_R   0.631910 0.118726 0.383577 -0.378801
C40   C     C_R   0.635895 0.883640 0.898092 -0.355190
C41   C     C_2   0.746725 0.360281 0.908098 -0.157225
C42   C     C_2   0.751694 0.639388 0.399006 -0.142082
C43   C     C_2   0.247582 0.859781 0.909912 -0.141194
C44   C     C_2   0.249915 0.138002 0.397884 -0.097373
C45   C     C_2   0.819565 0.387592 0.926177 0.342297
C46   C     C_2   0.822014 0.611775 0.417220 0.239394
C47   C     C_2   0.319436 0.887678 0.925743 0.329356
C48   C     C_2   0.324080 0.113398 0.427257 0.279083
C49   C     C_2   0.841693 0.347572 0.695549 0.071671
C50   C     C_2   0.847394 0.654469 0.186453 0.144556
C51   C     C_2   0.341992 0.847264 0.696005 0.074774
C52   C     C_2   0.354529 0.157853 0.206792 0.142962
C53   C     C_3   0.780771 0.311908 0.711496 0.069550
C54   C     C_3   0.788699 0.689376 0.207078 0.033346
C55   C     C_3   0.282441 0.810967 0.714019 0.079916
C56   C     C_3   0.289865 0.190374 0.215377 0.030446
C57   C     C_3   0.715816 0.330923 0.772759 0.244541
C58   C     C_3   0.722222 0.667122 0.259576 0.275454
C59   C     C_3   0.217767 0.829171 0.777503 0.255278
C60   C     C_3   0.222690 0.165524 0.257620 0.266070
C61   C     C_2   0.749385 0.275801 0.581318 -0.242433
C62   C     C_2   0.758856 0.727782 0.083386 -0.254690
C63   C     C_2   0.251121 0.774258 0.585256 -0.287231
C64   C     C_2   0.259854 0.227393 0.086152 -0.231769
C65   C     C_2   0.254486 0.726191 0.613523 0.381827
C66   C     C_2   0.253844 0.274705 0.118907 0.424230
C67   C     C_2   0.750594 0.227709 0.608038 0.359618
C68   C     C_2   0.751540 0.774449 0.122299 0.428485
C69   C     C_R   0.256262 0.686191 0.355226 0.224338
C70   C     C_R   0.258807 0.317382 0.865620 0.396421
C71   C     C_R   0.756036 0.186502 0.354682 0.206254
C72   C     C_R   0.758509 0.818200 0.871745 0.415487
C73   C     C_R   0.219888 0.690561 0.487758 -0.264936
C74   C     C_R   0.220933 0.311364 0.996114 -0.284054
C75   C     C_R   0.715302 0.192819 0.480455 -0.197349
C76   C     C_R   0.720872 0.812276 0.002001 -0.294189
C77   C     C_R   0.235417 0.644215 0.250376 -0.103131
C78   C     C_R   0.236152 0.357961 0.756041 -0.106415
C79   C     C_R   0.737080 0.143754 0.253049 -0.101205
C80   C     C_R   0.736155 0.858464 0.760877 -0.101099
C81   C     C_R   0.177849 0.611542 0.263602 0.288418
C82   C     C_R   0.177722 0.388897 0.766583 0.282932
C83   C     C_R   0.677954 0.111725 0.263255 0.335989
C84   C     C_R   0.677539 0.889319 0.769590 0.273336
C85   C     C_R   0.160368 0.652244 0.506505 0.292733
C86   C     C_R   0.160243 0.348277 0.012667 0.266091
C87   C     C_R   0.652742 0.155786 0.494686 0.181053
C88   C     C_R   0.660047 0.848957 0.016939 0.268010
H41   H     H_    0.704929 0.369043 0.977535 0.182999
H42   H     H_    0.710252 0.631510 0.471030 0.226267
H43   H     H_    0.205755 0.868440 0.979406 0.183127
H44   H     H_    0.204732 0.126907 0.458750 0.221276
H45   H     H_    0.269743 0.639391 0.164655 0.214692
H46   H     H_    0.270440 0.363558 0.670082 0.216138
H47   H     H_    0.773650 0.137962 0.171640 0.208284
H48   H     H_    0.770627 0.863866 0.675141 0.219152
H49   H     H_    0.925187 0.399698 0.821054 0.146935
H50   H     H_    0.922643 0.598296 0.301236 0.170139
H51   H     H_    0.424776 0.899935 0.820002 0.149287
H52   H     H_    0.434128 0.105272 0.333525 0.169990
H53   H     H_    0.089631 0.590504 0.400798 0.169372
H54   H     H_    0.088581 0.407775 0.900781 0.162382
H55   H     H_    0.586069 0.092165 0.393791 0.164124
H56   H     H_    0.588091 0.908328 0.903413 0.164063
H57   H     H_    0.721512 0.289249 0.465194 0.175399
H58   H     H_    0.738455 0.716938 0.962246 0.178655
H59   H     H_    0.221600 0.787175 0.469184 0.159556
H60   H     H_    0.237752 0.215051 0.966839 0.186613
Cl1   Cl    Cl    0.579535 0.528663 0.935181 -0.423727
Cl2   Cl    Cl    0.579845 0.465478 0.440420 -0.412987
Cl3   Cl    Cl    0.084878 0.035242 0.953480 -0.419725
Cl4   Cl    Cl    0.079348 0.964476 0.444439 -0.411644
Cl5   Cl    Cl    0.648599 0.554889 0.684638 -0.444292
Cl6   Cl    Cl    0.646391 0.442313 0.185508 -0.472839
Cl7   Cl    Cl    0.145270 0.053318 0.686339 -0.440364
Cl8   Cl    Cl    0.144420 0.943734 0.186042 -0.473524
N1    N     N_R   0.279210 0.471434 0.041858 0.174657
O49   O     O_R   0.319428 0.436268 0.002714 -0.419291
O50   O     O_R   0.205046 0.478535 0.961239 -0.409205
N2    N     N_R   0.279997 0.530935 0.541200 0.173526
O51   O     O_R   0.319883 0.567469 0.502625 -0.413197
O52   O     O_R   0.205678 0.522497 0.461318 -0.413104
N3    N     N_R   0.779890 0.971702 0.042492 0.174522
O53   O     O_R   0.820405 0.936674 0.003388 -0.420762
O54   O     O_R   0.705917 0.978902 0.961091 -0.410963
N4    N     N_R   0.779628 0.031430 0.541480 0.174722
O55   O     O_R   0.819791 0.067762 0.502471 -0.410925
O56   O     O_R   0.705106 0.023253 0.462037 -0.411529
N5    N     N_R   0.255447 0.451347 0.282448 0.222808
O57   O     O_R   0.179386 0.440614 0.216009 -0.342762
O58   O     O_R   0.296719 0.424116 0.393935 -0.337877
N6    N     N_R   0.257138 0.548514 0.782757 0.224456
O59   O     O_R   0.298446 0.575600 0.896146 -0.337851
O60   O     O_R   0.180640 0.557059 0.718144 -0.342586
N7    N     N_R   0.755432 0.951404 0.282471 0.221630
O61   O     O_R   0.679362 0.940777 0.215752 -0.345038
O62   O     O_R   0.796578 0.923973 0.393482 -0.340194
N8    N     N_R   0.756569 0.049511 0.782602 0.227914
O63   O     O_R   0.797978 0.076868 0.895126 -0.336240
O64   O     O_R   0.680404 0.058677 0.716611 -0.328343
N9    N     N_R   0.970772 0.720533 0.490081 0.198801
O65   O     O_R   0.985111 0.683197 0.417986 -0.553952
O66   O     O_R   0.929197 0.754931 0.409703 -0.305518
N10   N     N_R   0.921072 0.293062 0.125101 0.212046
O67   O     O_R   0.854023 0.288930 0.170148 -0.371384
O68   O     O_R   0.915730 0.296126 0.977975 -0.473808
N11   N     N_R   0.501489 0.246789 0.461909 0.200998
O69   O     O_R   0.436932 0.251565 0.346900 -0.389365
O70   O     O_R   0.563920 0.275671 0.471317 -0.399819
N12   N     N_R   0.420640 0.792743 0.127469 0.212990
O71   O     O_R   0.353429 0.787805 0.171617 -0.366887
O72   O     O_R   0.415704 0.796971 0.980801 -0.474992
Cl9   Cl    Cl    0.881675 0.779527 0.702049 -0.490500
Cl10  Cl    Cl    0.960706 0.188271 0.103473 -0.468206
Cl11  Cl    Cl    0.344092 0.231487 0.673729 -0.510990
Cl12  Cl    Cl    0.461653 0.687977 0.105214 -0.465926
N13   N     N_R   0.290932 0.707793 0.766791 0.257316
O73   O     O_R   0.328027 0.666896 0.781781 -0.273909
O74   O     O_R   0.278330 0.727985 0.889692 -0.284184
N14   N     N_R   0.281394 0.291214 0.275869 0.288544
O75   O     O_R   0.321822 0.331722 0.305259 -0.220108
O76   O     O_R   0.255036 0.270160 0.384579 -0.270468
N15   N     N_R   0.787159 0.208645 0.760319 0.255858
O77   O     O_R   0.823898 0.167656 0.773260 -0.271876
O78   O     O_R   0.775814 0.228656 0.884557 -0.293837
N16   N     N_R   0.777064 0.789248 0.282014 0.293176
O79   O     O_R   0.817477 0.829549 0.318193 -0.214838
O80   O     O_R   0.754333 0.765023 0.389559 -0.275929
Cl13  Cl    Cl    0.026344 0.821148 0.630454 -0.481833
Cl14  Cl    Cl    0.086023 0.203966 0.384656 -0.459215
Cl15  Cl    Cl    0.438900 0.316966 0.633555 -0.405464
Cl16  Cl    Cl    0.585443 0.703758 0.387925 -0.468733
Cl17  Cl    Cl    0.099943 0.701228 0.024288 -0.671095
Cl18  Cl    Cl    0.093800 0.284062 0.630383 -0.626999
Cl19  Cl    Cl    0.590019 0.190077 0.026617 -0.637667
Cl20  Cl    Cl    0.595010 0.784554 0.631792 -0.636709
Cl21  Cl    Cl    0.951713 0.807711 0.118758 -0.445500
Cl22  Cl    Cl    0.979235 0.183834 0.637234 -0.437922
Cl23  Cl    Cl    0.459886 0.313807 0.094859 -0.431864
Cl24  Cl    Cl    0.481007 0.684257 0.642629 -0.438814
N17   N     N_R   0.770696 0.542654 0.132301 0.135134
O81   O     O_R   0.714322 0.554009 0.200288 -0.412459
O82   O     O_R   0.841558 0.529293 0.215040 -0.442973
N18   N     N_R   0.774063 0.454804 0.629082 0.135181
O83   O     O_R   0.718970 0.443853 0.702184 -0.423404
O84   O     O_R   0.847373 0.467210 0.707116 -0.438213
N19   N     N_R   0.282540 0.046097 0.124628 0.142000
O85   O     O_R   0.230296 0.053565 0.205322 -0.429494
O86   O     O_R   0.358613 0.038416 0.195059 -0.428391
N20   N     N_R   0.273925 0.955232 0.629413 0.134653
O87   O     O_R   0.219346 0.944886 0.704335 -0.420299
O88   O     O_R   0.347765 0.967146 0.705927 -0.443028

loop_
_geom_bond_atom_site_label_1
_geom_bond_atom_site_label_2
_geom_bond_distance
_ccdc_geom_bond_type
C40   C84   1.496966 S    
C11   H39   1.107197 S    
C16   C20   1.552937 S    
P8    O47   1.602136 S    
P1    O17   1.780104 S    
Ba1   Ba2   4.868140 S    
C17   H21   1.112211 S    
O39   C16   1.404309 S    
C6    C10   1.528756 S    
O10   Ba2   2.871236 S    
N8    O64   1.298269 A    
P4    C84   1.874318 S    
P3    O19   1.779884 S    
P15   C88   1.862496 S    
P5    O37   1.776936 S    
C74   C86   1.501204 S    
P4    O4    1.618120 D    
Ba2   O45   3.084663 S    
C33   C45   1.493017 S    
C66   C74   1.496406 S    
C7    C11   1.546366 S    
P13   C86   1.868831 S    
P8    Ba4   3.490126 S    
P7    O39   1.778413 S    
N19   O86   1.297034 A    
C7    H11   1.107466 S    
C1    Cl13  1.788012 S    
P8    O40   1.775463 S    
C28   H32   1.111491 S    
P3    Ba3   3.489223 S    
C63   C65   1.360638 D    
P9    O33   1.548305 D    
N9    O65   1.285365 A    
C3    Cl15  1.791044 S    
C53   C57   1.456459 A    
P1    O1    1.613850 D    
C4    Cl12  1.783221 S    
C17   Cl1   1.775908 S    
N18   O83   1.298103 A    
C9    H37   1.110442 S    
P10   O42   1.754305 S    
P3    O3    1.613850 D    
C40   H56   1.081814 S    
O25   Ba1   2.895002 S    
P4    O20   1.781575 S    
C69   C73   1.471939 S    
C23   N7    1.449883 S    
O43   C7    1.413617 S    
C71   C79   1.479265 S    
C2    C30   1.541582 S    
C19   H23   1.112038 S    
C3    Cl11  1.781445 S    
N7    O61   1.297753 A    
C42   C58   1.437728 A    
O31   Ba3   2.876554 S    
C18   Cl2   1.778712 S    
C8    C12   1.528299 S    
C69   C77   1.479943 S    
C44   H44   1.084488 S    
C27   H31   1.111159 S    
N16   O79   1.300604 A    
C49   C53   1.449885 A    
C77   H45   1.082371 S    
O12   P15   1.754116 S    
C41   C45   1.408130 A    
C4    Cl16  1.767256 S    
C14   C18   1.553192 S    
C78   H46   1.082208 S    
C44   C60   1.435795 A    
C54   C58   1.451701 A    
P9    O41   1.761383 S    
C5    C9    1.546035 S    
O12   Ba4   2.871236 S    
C5    Cl17  1.761629 S    
O11   P16   1.749297 S    
C44   C48   1.403827 A    
C39   C83   1.494314 S    
O5    Ba2   2.876929 S    
H2    C30   1.105753 S    
C15   C19   1.554971 S    
C6    H10   1.113881 S    
P16   C87   1.861727 S    
C75   C87   1.491381 S    
O9    P14   1.773578 S    
C5    H9    1.091801 S    
O7    Ba4   2.876929 S    
C8    Cl20  1.766058 S    
C30   N10   1.452785 S    
C36   C52   1.359856 D    
O21   C29   1.406415 S    
N13   O73   1.300711 A    
C26   H26   1.111709 S    
O40   C15   1.402367 S    
C37   C85   1.407602 A    
P6    O45   1.602136 S    
C12   H16   1.111109 S    
P6    O38   1.778156 S    
C79   H47   1.082402 S    
C53   C61   1.520258 S    
N11   O70   1.299978 A    
P8    O28   1.615292 D    
C34   H50   1.084878 S    
C2    Cl14  1.768819 S    
P11   O31   1.756235 S    
C65   C73   1.494100 S    
C28   H36   1.110672 S    
O3    Ba3   2.860532 S    
N5    O57   1.297757 A    
P10   O34   1.547259 D    
C12   H40   1.096070 S    
O23   P16   1.757961 S    
C26   H30   1.111607 S    
P2    O2    1.618120 D    
N4    O56   1.290944 A    
C34   C50   1.363191 D    
C39   H55   1.081532 S    
O21   P14   1.768497 S    
C10   H38   1.096798 S    
P11   O43   1.755276 S    
N2    O51   1.302916 A    
C38   H54   1.081895 S    
C64   C66   1.363318 D    
P12   O36   1.547352 D    
C37   H53   1.081946 S    
P11   C52   1.864176 S    
C43   C59   1.434618 A    
C11   Cl23  1.785101 S    
N1    O50   1.290688 A    
P12   C51   1.854889 S    
C35   H51   1.085040 S    
O23   C31   1.411888 S    
C12   Cl24  1.780071 S    
N9    O66   1.296314 A    
C23   N3    1.439701 S    
C2    Cl10  1.784172 S    
C27   H35   1.110806 S    
C71   C75   1.471944 S    
C16   H20   1.099451 S    
C4    H8    1.107863 S    
P6    C45   1.867726 S    
C14   N18   1.432599 S    
O32   Ba4   2.846145 S    
O8    Ba3   2.922912 S    
H3    C31   1.111116 S    
C14   H18   1.098021 S    
P14   C85   1.861260 S    
C3    C31   1.547302 S    
N19   O85   1.295350 A    
H4    C32   1.105251 S    
C13   H17   1.099882 S    
C62   C68   1.363953 D    
C55   C63   1.522785 S    
C20   Cl8   1.762549 S    
C20   Cl4   1.778082 S    
P10   C49   1.855237 S    
C42   C46   1.401768 A    
C13   N17   1.432286 S    
C80   H48   1.082095 S    
C19   Cl7   1.762420 S    
C24   C28   1.539662 S    
C36   C48   1.503792 S    
C2    H6    1.107442 S    
C78   C82   1.345239 D    
C3    H7    1.084974 S    
P7    C48   1.885604 S    
P2    O18   1.779403 S    
C25   H25   1.111706 S    
O22   C30   1.407367 S    
C43   H43   1.084757 S    
O4    Ba4   2.891299 S    
C10   H14   1.111613 S    
N10   O68   1.291561 A    
Ba1   O45   2.871099 S    
C13   C17   1.552198 S    
C54   C62   1.526113 S    
C56   C60   1.448412 A    
C55   C59   1.455401 A    
O44   C8    1.419182 S    
C1    Cl9   1.771882 S    
O19   C23   1.409370 S    
C68   C76   1.498154 S    
P10   O30   1.758280 S    
O22   P13   1.762206 S    
N6    O60   1.297368 A    
Ba1   O46   3.082347 S    
C61   C67   1.358996 D    
C41   C57   1.436108 A    
C77   C81   1.346482 D    
N3    O54   1.290602 A    
P12   O44   1.754070 S    
C39   C87   1.409422 A    
Ba3   O48   3.082347 S    
N13   O74   1.301014 A    
C33   H49   1.085135 S    
C70   C74   1.472142 S    
C67   N15   1.438656 S    
C79   C83   1.347109 D    
P6    O26   1.615292 D    
O20   C24   1.409782 S    
O10   P13   1.760434 S    
C27   H27   1.111715 S    
O18   C22   1.407561 S    
N3    O53   1.302737 A    
N14   O76   1.298331 A    
O26   Ba2   2.863385 S    
P1    Ba1   3.489223 S    
C21   N1    1.439855 S    
N5    O58   1.303188 A    
C32   N12   1.452312 S    
N2    O52   1.290469 A    
C51   C55   1.450419 A    
C56   C64   1.531753 S    
P4    O8    1.613725 S    
N4    O55   1.302817 A    
O16   P15   1.548003 D    
O9    Ba1   2.840469 S    
N11   O69   1.296061 A    
P2    O6    1.613725 S    
C52   C56   1.450712 A    
N12   O72   1.291221 A    
C28   H28   1.111569 S    
C72   C76   1.467417 S    
Ba3   O47   2.871099 S    
C67   C75   1.493396 S    
P5    C46   1.889165 S    
C22   C26   1.534162 S    
N17   O81   1.299384 A    
C33   C49   1.350347 D    
O15   P16   1.544145 D    
N15   O78   1.301230 A    
C21   C25   1.537448 S    
N8    O63   1.303411 A    
O28   Ba4   2.863385 S    
C21   N5    1.449683 S    
N1    O49   1.302748 A    
O13   P14   1.541751 D    
O24   C32   1.407794 S    
P8    C47   1.867409 S    
C23   C27   1.537482 S    
P5    O46   1.630098 S    
O30   Ba2   2.846145 S    
O6    Ba1   2.922912 S    
P9    C50   1.871936 S    
P2    C82   1.870737 S    
C9    Cl21  1.784504 S    
Ba2   O46   2.916950 S    
P7    Ba3   3.501940 S    
C68   N16   1.435056 S    
P7    O48   1.630098 S    
C6    Cl18  1.765861 S    
C17   Cl5   1.761097 S    
C25   H29   1.111219 S    
P4    Ba4   3.500366 S    
C35   C51   1.350158 D    
C62   H58   1.086256 S    
C34   C46   1.503651 S    
P12   O32   1.759187 S    
P5    O25   1.619517 D    
C61   H57   1.086127 S    
C80   C84   1.341957 D    
O29   Ba1   2.876554 S    
C43   C47   1.405237 A    
O1    Ba1   2.860532 S    
C38   C86   1.409159 A    
C35   C47   1.492924 S    
C4    C32   1.541941 S    
O24   P15   1.762833 S    
C7    Cl19  1.761924 S    
C10   Cl22  1.780579 S    
P1    O5    1.586787 S    
N18   O84   1.294775 A    
N12   O71   1.299712 A    
C63   H59   1.086438 S    
N20   O88   1.294889 A    
C76   C88   1.494373 S    
P6    Ba2   3.490126 S    
C11   H15   1.110287 S    
C25   H33   1.110824 S    
O42   C6    1.419041 S    
Ba4   O47   3.084663 S    
O27   Ba3   2.895002 S    
P7    O27   1.619517 D    
C8    H12   1.113945 S    
O41   C5    1.417046 S    
P9    O29   1.755574 S    
C20   H24   1.112274 S    
C24   N8    1.448374 S    
N6    O59   1.303395 A    
N17   O82   1.292677 A    
C72   C80   1.477754 S    
P5    Ba1   3.501940 S    
C1    H5    1.101541 S    
C15   H19   1.091526 S    
C22   N2    1.439254 S    
Ba4   O48   2.916950 S    
O2    Ba2   2.891299 S    
C65   N13   1.438820 S    
H1    C29   1.112945 S    
P3    C83   1.878123 S    
C15   N19   1.434052 S    
C36   H52   1.083839 S    
O11   Ba3   2.840469 S    
P3    O7    1.586787 S    
O37   C14   1.403341 S    
C50   C54   1.448686 A    
C66   N14   1.429166 S    
P11   O35   1.548843 D    
C70   C78   1.478175 S    
C1    C29   1.543073 S    
C19   Cl3   1.780750 S    
C16   N20   1.434207 S    
N14   O75   1.300009 A    
C40   C88   1.413306 A    
C9    H13   1.111019 S    
N20   O87   1.298443 A    
Ba3   Ba4   4.868140 S    
C18   Cl6   1.762046 S    
C24   N4    1.439320 S    
P2    Ba2   3.500366 S    
O38   C13   1.403018 S    
C38   C82   1.493383 S    
O14   P13   1.547680 D    
C22   N6    1.445364 S    
C73   C85   1.490903 S    
N7    O62   1.303124 A    
C31   N11   1.448879 S    
C64   H60   1.085976 S    
C29   N9    1.455845 S    
C42   H42   1.084229 S    
C26   H34   1.110775 S    
O17   C21   1.409849 S    
N15   O77   1.300795 A    
C37   C81   1.493218 S    
C41   H41   1.084643 S    
N10   O67   1.299622 A    
C18   H22   1.112312 S    
N16   O80   1.300926 A    
P1    C81   1.875358 S    
