data_mof_unit_65970.cif
_audit_creation_date              2012-12-10T19:39:56-0500
_audit_creation_method            fapswitch 2.2
_symmetry_space_group_name_H-M    P1
_symmetry_Int_Tables_number       1
_space_group_crystal_system       triclinic
_cell_length_a                    19.191801
_cell_length_b                    18.331116
_cell_length_c                    27.560187
_cell_angle_alpha                 90.05865
_cell_angle_beta                  89.992967
_cell_angle_gamma                 89.956849
_cell_volume                      9695.86239768

loop_
_atom_site_label
_atom_site_type_symbol
_atom_type_description
_atom_site_fract_x
_atom_site_fract_y
_atom_site_fract_z
_atom_type_partial_charge
C1    C     C_R   0.365168 0.500031 0.500249 0.976960
C2    C     C_R   0.634833 0.499971 0.500301 0.970626
C3    C     C_R   0.529439 0.482871 0.100649 -0.210583
C4    C     C_R   0.544218 0.473642 0.897770 -0.206868
C5    C     C_R   0.481611 0.436685 0.124495 -0.249995
C6    C     C_R   0.558678 0.538858 0.872543 -0.244113
C7    C     C_R   0.443469 0.385388 0.097424 0.663329
C8    C     C_R   0.576067 0.602206 0.898651 0.661673
C9    C     C_R   0.567295 0.535430 0.127128 -0.117427
C10   C     C_R   0.525680 0.409932 0.872122 -0.116808
C11   C     C_R   0.500876 0.499226 0.352685 -0.175679
C12   C     C_R   0.508660 0.499408 0.646535 -0.155069
C13   C     C_R   0.522484 0.410805 0.974278 -0.000320
C14   C     C_R   0.579619 0.529280 0.025438 0.002105
C15   C     C_R   0.571303 0.534425 0.974495 -0.163070
C16   C     C_R   0.506214 0.419817 0.024103 -0.163700
C17   C     C_R   0.546712 0.472676 0.948833 0.045689
C18   C     C_R   0.538861 0.476969 0.050122 0.045735
C19   C     C_R   0.514347 0.343993 0.948657 -0.286124
C20   C     C_R   0.625196 0.574577 0.052728 -0.280473
C21   C     C_R   0.513950 0.344663 0.897707 0.669656
C22   C     C_R   0.616970 0.578964 0.103237 0.665445
C23   C     C_R   0.499967 0.499887 0.405787 0.969154
C24   C     C_R   0.500019 0.500002 0.594064 0.942710
C25   C     C_R   0.455040 0.377601 0.047847 0.529472
C26   C     C_R   0.581522 0.600239 0.948930 0.531142
C27   C     C_R   0.253290 0.566303 0.501657 -0.157174
C28   C     C_R   0.746651 0.433763 0.504054 -0.231943
C29   C     C_R   0.746892 0.565805 0.499855 -0.114491
C30   C     C_R   0.253670 0.434582 0.509327 -0.164937
C31   C     C_R   0.181052 0.568012 0.506188 -0.060251
C32   C     C_R   0.819184 0.432225 0.505036 -0.053777
C33   C     C_R   0.819418 0.566950 0.500597 -0.061988
C34   C     C_R   0.181433 0.433774 0.514023 -0.050054
C35   C     C_R   0.145069 0.501078 0.512134 -0.082511
C36   C     C_R   0.855582 0.499522 0.503107 -0.085901
C37   C     C_R   0.289473 0.500210 0.503130 -0.083369
C38   C     C_R   0.710651 0.499855 0.501311 -0.083043
C39   C     C_R   0.930598 0.499663 0.505697 0.397480
C40   C     C_R   0.069977 0.500629 0.510156 0.392955
C41   C     C_R   0.455698 0.273754 0.470235 0.641668
C42   C     C_R   0.545463 0.726049 0.529039 0.647940
C43   C     C_R   0.544520 0.274010 0.529744 0.640294
C44   C     C_R   0.454514 0.726288 0.471151 0.635893
C45   C     C_R   0.453832 0.196601 0.469740 -0.250673
C46   C     C_R   0.547612 0.803206 0.529609 -0.258409
C47   C     C_R   0.546726 0.196863 0.530279 -0.250898
C48   C     C_R   0.452724 0.803443 0.470617 -0.244924
C49   C     C_R   0.500343 0.156765 0.500031 -0.223416
C50   C     C_R   0.500276 0.843268 0.500099 -0.224360
C51   C     C_R   0.500417 0.925369 0.500099 0.466021
C52   C     C_R   0.500455 0.074632 0.500065 0.465163
C53   C     C_R   0.472667 0.444209 0.174743 0.626363
C54   C     C_R   0.552636 0.539318 0.821902 0.621687
C55   C     C_R   0.556357 0.540601 0.177334 0.647707
C56   C     C_R   0.521225 0.413181 0.821318 0.642839
C57   C     C_R   0.554223 0.459311 0.277780 -0.119117
C58   C     C_R   0.460215 0.484763 0.726754 -0.102899
C59   C     C_R   0.553497 0.459628 0.328141 -0.055907
C60   C     C_R   0.449753 0.494741 0.677117 -0.080924
C61   C     C_R   0.448700 0.537120 0.326100 -0.159109
C62   C     C_R   0.577011 0.494516 0.665803 -0.102186
C63   C     C_R   0.450716 0.536130 0.274730 -0.046776
C64   C     C_R   0.586384 0.484335 0.716064 -0.042336
C65   C     C_R   0.504659 0.497694 0.251335 0.178851
C66   C     C_R   0.527200 0.479956 0.746122 0.166132
H1    H     H_    0.416052 0.482548 0.751232 0.188820
H2    H     H_    0.594765 0.430095 0.258395 0.175447
H3    H     H_    0.281725 0.616920 0.497293 0.229676
H4    H     H_    0.717800 0.383025 0.505278 0.235977
H5    H     H_    0.718314 0.616692 0.497662 0.222490
H6    H     H_    0.282409 0.383750 0.511080 0.219175
N1    N     N_R   0.509821 0.495438 0.199680 -0.366834
N2    N     N_R   0.534397 0.477143 0.797701 -0.369105
N3    N     N_R   0.031991 0.505942 0.551411 -0.073013
N4    N     N_R   0.968606 0.494435 0.464486 -0.083202
N5    N     N_R   0.962918 0.505484 0.549185 -0.107128
N6    N     N_R   0.037615 0.494885 0.466711 -0.111110
N7    N     N_R   0.500000 0.310560 0.500000 -0.210898
N8    N     N_R   0.500000 0.689440 0.500000 -0.210055
N9    N     N_R   0.492597 0.036553 0.542082 -0.113184
N10   N     N_R   0.508265 0.963434 0.458082 -0.113260
N11   N     N_R   0.508305 0.036362 0.458068 -0.113091
N12   N     N_R   0.492596 0.963623 0.542101 -0.112668
O1    O     O_R   0.398130 0.560830 0.500010 -0.573575
O2    O     O_R   0.601870 0.439170 0.499990 -0.593289
O3    O     O_R   0.601870 0.560830 0.499990 -0.578883
O4    O     O_R   0.398130 0.439170 0.500010 -0.595747
O5    O     O_R   0.500010 0.560810 0.428750 -0.587829
O6    O     O_R   0.499990 0.439190 0.571250 -0.596474
O7    O     O_R   0.499990 0.560810 0.571250 -0.534859
O8    O     O_R   0.500010 0.439190 0.428750 -0.567284
O9    O     O_2   0.428032 0.400445 0.198851 -0.422273
O10   O     O_2   0.564342 0.601243 0.796741 -0.427101
O11   O     O_2   0.503613 0.353416 0.795479 -0.412643
O12   O     O_2   0.591632 0.590172 0.203942 -0.417569
Zn1   Zn    Zn3+2 0.500000 0.581210 0.500000 1.120176
Zn2   Zn    Zn3+2 0.500000 0.418790 0.500000 1.098358
C67   C     C_2   0.392399 0.577548 0.351768 1.046070
O13   O     O_2   0.359687 0.548079 0.384389 -0.589682
O14   O     O_R   0.376466 0.649122 0.338200 -0.712266
H7    H     H_    0.336363 0.670272 0.357606 0.400952
C68   C     C_2   0.638478 0.497443 0.633167 0.967635
O15   O     O_2   0.647404 0.550438 0.607040 -0.548006
O16   O     O_R   0.686652 0.440203 0.633155 -0.729676
H8    H     H_    0.726889 0.449067 0.610083 0.358182
C69   C     C_2   0.145585 0.640542 0.503765 0.957083
O17   O     O_2   0.086660 0.648832 0.519708 -0.563039
O18   O     O_R   0.180647 0.700328 0.483808 -0.765295
H9    H     H_    0.151674 0.746600 0.484375 0.376046
C70   C     C_2   0.854141 0.359400 0.508658 0.959012
O19   O     O_2   0.916185 0.352262 0.499776 -0.567445
O20   O     O_R   0.815185 0.298034 0.521878 -0.760859
H10   H     H_    0.844202 0.251816 0.522968 0.377059
C71   C     C_2   0.854748 0.639616 0.498996 0.957645
O21   O     O_2   0.915913 0.645040 0.487148 -0.565641
O22   O     O_R   0.817066 0.702717 0.510455 -0.758222
H11   H     H_    0.846207 0.748669 0.507898 0.376734
C72   C     C_2   0.146363 0.361576 0.520085 0.961042
O23   O     O_2   0.087556 0.357376 0.536909 -0.563613
O24   O     O_R   0.181665 0.297593 0.507208 -0.762082
H12   H     H_    0.152946 0.252065 0.513167 0.376876
F1    F     F_    0.411343 0.312610 0.441936 -0.586451
F2    F     F_    0.590581 0.687007 0.556607 -0.566084
F3    F     F_    0.588777 0.313131 0.557976 -0.591343
F4    F     F_    0.408797 0.687506 0.443956 -0.612543
C73   C     C_2   0.401098 0.159780 0.438689 1.045305
O25   O     O_2   0.372005 0.104332 0.452708 -0.575975
O26   O     O_R   0.383391 0.189650 0.393672 -0.689585
H13   H     H_    0.346571 0.160101 0.376078 0.369881
C74   C     C_2   0.601402 0.839795 0.559919 1.046029
O27   O     O_2   0.629684 0.895629 0.545774 -0.576432
O28   O     O_R   0.621007 0.809298 0.604367 -0.681986
H14   H     H_    0.658396 0.838732 0.621457 0.371002
C75   C     C_2   0.599701 0.160345 0.561295 1.046005
O29   O     O_2   0.628751 0.104724 0.547383 -0.576152
O30   O     O_R   0.617708 0.190713 0.606141 -0.686341
H15   H     H_    0.654712 0.161368 0.623703 0.370260
C76   C     C_2   0.399066 0.840310 0.440369 1.043953
O31   O     O_2   0.370715 0.896083 0.454706 -0.576417
O32   O     O_R   0.379723 0.810174 0.395733 -0.709417
H16   H     H_    0.342356 0.839713 0.378699 0.365678
C77   C     C_2   0.395732 0.571834 0.244983 1.002338
O33   O     O_2   0.334319 0.564960 0.255899 -0.551490
O34   O     O_R   0.414122 0.612233 0.203938 -0.759056
H17   H     H_    0.372140 0.633110 0.186458 0.374859
C78   C     C_2   0.657355 0.480341 0.737780 0.998838
O35   O     O_2   0.669841 0.436020 0.769765 -0.577315
O36   O     O_R   0.709665 0.527857 0.722077 -0.734720
H18   H     H_    0.755430 0.519855 0.739661 0.374966
F5    F     F_    0.393623 0.343322 0.118375 -0.517692
F6    F     F_    0.586249 0.667109 0.875999 -0.516428
C79   C     C_2   0.376924 0.500298 0.658652 0.929833
O37   O     O_2   0.329057 0.473212 0.681775 -0.567387
O38   O     O_R   0.362353 0.537888 0.615724 -0.817376
H19   H     H_    0.310784 0.538478 0.607742 0.347383
C80   C     C_2   0.610590 0.420578 0.353561 0.953338
O39   O     O_2   0.631640 0.362166 0.337801 -0.567932
O40   O     O_R   0.642377 0.451667 0.394157 -0.824661
H20   H     H_    0.681597 0.420318 0.407285 0.348479
F7    F     F_    0.504578 0.280887 0.873322 -0.550558
F8    F     F_    0.659779 0.623524 0.129086 -0.556188
C81   C     C_2   0.515658 0.271908 0.973767 1.146250
O41   O     O_2   0.477794 0.222680 0.959774 -0.398739
O42   O     O_R   0.560131 0.258776 0.013027 -0.734235
H21   H     H_    0.593599 0.300318 0.019597 0.300580
C82   C     C_2   0.687638 0.609803 0.030558 1.138133
O43   O     O_2   0.705095 0.670858 0.043483 -0.399328
O44   O     O_R   0.727615 0.574072 0.995337 -0.737716
H22   H     H_    0.712898 0.521690 0.989741 0.301534
F9    F     F_    0.410670 0.334183 0.022611 -0.574679
F10   F     F_    0.589069 0.664800 0.972507 -0.571061

loop_
_geom_bond_atom_site_label_1
_geom_bond_atom_site_label_2
_ccdc_geom_bond_type
C77   O33   D    
C56   O11   S    
C63   C65   A    
C42   N8    A    
O42   H21   S    
C32   C70   S    
N8    Zn1   S    
C8    C26   A    
O44   H22   S    
C14   C18   A    
N7    Zn2   S    
C70   O19   D    
C43   F3    S    
O34   H17   S    
C42   F2    S    
C75   O29   D    
C82   O44   S    
C74   O28   S    
C81   O42   S    
C44   F4    S    
C80   O39   D    
C32   C36   A    
C5    C53   A    
C8    F6    S    
N4    N6    A    
O26   H13   S    
C22   F8    S    
C9    C22   A    
C57   C59   A    
C43   N7    A    
C71   O21   D    
C66   N2    S    
C29   C33   A    
C16   C25   A    
C33   C36   A    
C65   N1    S    
C3    C18   A    
C15   C17   A    
C34   C35   A    
C42   C46   A    
C61   C63   A    
C60   C79   S    
C62   C64   A    
C78   O35   D    
C54   N2    A    
O36   H18   S    
C58   C66   A    
C77   O34   S    
C81   O41   D    
C71   O22   S    
C29   C38   A    
C69   O17   D    
C23   O5    A    
C9    C55   A    
C45   C49   A    
C79   O38   S    
C10   C56   A    
O3    Zn1   S    
C27   H3    S    
C1    C37   S    
C25   F9    S    
C1    O4    A    
C48   C50   A    
C26   F10   S    
C80   O40   S    
C69   O18   S    
C61   C67   S    
C6    C54   A    
C11   C59   A    
C28   C32   A    
O38   H19   S    
C72   O24   S    
C10   C21   A    
C1    O1    A    
C28   H4    S    
C33   C71   S    
C56   N2    A    
C30   C34   A    
C27   C31   A    
C76   O32   S    
O14   H7    S    
C14   C20   A    
C44   N8    A    
C21   F7    S    
C4    C6    A    
C46   C74   S    
C5    C7    A    
C13   C19   A    
C15   C26   A    
C6    C8    A    
C3    C5    A    
C53   O9    S    
C45   C73   S    
C30   C37   A    
O5    Zn1   S    
C55   N1    A    
C52   N11   A    
C73   O26   S    
C3    C9    A    
C12   C62   A    
C2    C38   S    
O40   H20   S    
C28   C38   A    
C72   O23   D    
C49   C52   S    
C50   C51   S    
C2    O3    A    
C70   O20   S    
C19   C81   S    
C39   N4    A    
O7    Zn1   S    
N3    N5    A    
C51   N10   A    
O24   H12   S    
C7    F5    S    
C4    C17   A    
C67   O14   S    
C20   C22   A    
C64   C78   S    
O28   H14   S    
C68   O16   S    
C31   C35   A    
C57   H2    S    
C4    C10   A    
C73   O25   D    
C24   O7    A    
C39   N5    A    
C82   O43   D    
N9    N12   A    
O20   H10   S    
O30   H15   S    
C34   C72   S    
C75   O30   S    
C20   C82   S    
C46   C50   A    
C63   C77   S    
C48   C76   S    
C47   C75   S    
C14   C15   A    
C31   C69   S    
C36   C39   S    
C53   N1    A    
C57   C65   A    
C55   O12   S    
C11   C61   A    
C24   O6    A    
C41   N7    A    
C30   H6    S    
C76   O31   D    
C40   N3    A    
C47   C49   A    
C78   O36   S    
O16   H8    S    
C12   C24   S    
O22   H11   S    
C7    C25   A    
C67   O13   D    
C13   C17   A    
C41   F1    S    
C35   C40   S    
C62   C68   S    
O32   H16   S    
C59   C80   S    
C58   C60   A    
C27   C37   A    
C11   C23   S    
C2    O2    A    
C40   N6    A    
C52   N9    A    
O2    Zn2   S    
C54   O10   S    
O1    Zn1   S    
O8    Zn2   S    
C12   C60   A    
C44   C48   A    
C58   H1    S    
C16   C18   A    
N10   N11   A    
C13   C16   A    
C68   O15   D    
C41   C45   A    
C23   O8    A    
C29   H5    S    
C79   O37   D    
O18   H9    S    
C43   C47   A    
C51   N12   A    
O6    Zn2   S    
O4    Zn2   S    
C74   O27   D    
C64   C66   A    
C19   C21   A    
