data_mof_unit_35386.cif
_audit_creation_date              2012-12-11T14:21:04-0500
_audit_creation_method            fapswitch 2.2
_symmetry_space_group_name_H-M    P1
_symmetry_Int_Tables_number       1
_space_group_crystal_system       triclinic
_cell_length_a                    21.948702
_cell_length_b                    7.198063
_cell_length_c                    14.899462
_cell_angle_alpha                 89.999173
_cell_angle_beta                  106.995634
_cell_angle_gamma                 89.999929
_cell_volume                      2251.13481374

loop_
_atom_site_label
_atom_site_type_symbol
_atom_type_description
_atom_site_fract_x
_atom_site_fract_y
_atom_site_fract_z
_atom_type_partial_charge
O1    O     O_R   0.584770 0.505770 0.002090 -0.545585
O2    O     O_R   0.415230 0.005770 0.997910 -0.545586
O3    O     O_R   0.467060 0.173340 0.861950 -0.543025
O4    O     O_R   0.532940 0.673340 0.138050 -0.543024
C1    C     C_R   0.455382 0.344559 0.825847 0.678945
C2    C     C_R   0.544618 0.844556 0.174153 0.678950
O5    O     O_R   0.587510 0.175890 0.993210 -0.500617
O6    O     O_R   0.412490 0.675890 0.006790 -0.500612
O7    O     O_R   0.536540 0.008150 0.130100 -0.538914
O8    O     O_R   0.463460 0.508150 0.869900 -0.538917
C3    C     C_R   0.613114 0.344311 0.997457 0.754879
C4    C     C_R   0.386886 0.844311 0.002543 0.754883
O9    O     O_3   0.483140 0.340040 0.044760 -0.376539
O10   O     O_3   0.516860 0.840040 0.955240 -0.376551
V1    V     V_3+5 0.503130 0.064190 0.991700 1.460281
V2    V     V_3+5 0.496870 0.564190 0.008300 1.460290
C5    C     C_2   0.214378 0.728036 0.007618 -0.244255
C6    C     C_2   0.785621 0.228038 0.992377 -0.244236
C7    C     C_2   0.181784 0.888119 0.003884 -0.361768
C8    C     C_2   0.818216 0.388120 0.996118 -0.361778
H1    H     H_    0.188975 0.597605 0.004268 0.159608
H2    H     H_    0.811023 0.097605 0.995718 0.159618
H3    H     H_    0.205877 0.020856 0.009086 0.142365
H4    H     H_    0.794124 0.520859 0.990924 0.142372
C9    C     C_2   0.284629 0.713491 0.019981 0.449533
C10   C     C_2   0.715372 0.213493 0.980018 0.449526
C11   C     C_2   0.318621 0.856227 0.999245 -0.387656
C12   C     C_2   0.681379 0.356228 0.000754 -0.387670
H5    H     H_    0.295866 0.988953 0.977308 0.118659
H6    H     H_    0.704132 0.488955 0.022687 0.118660
C13   C     C_R   0.926453 0.879875 0.723932 -0.031268
C14   C     C_R   0.073546 0.379861 0.276068 -0.031275
C15   C     C_R   0.572294 0.854481 0.275831 -0.052060
C16   C     C_R   0.427706 0.354492 0.724169 -0.052067
C17   C     C_R   0.933394 0.765126 0.575157 -0.140851
C18   C     C_R   0.066610 0.265038 0.424834 -0.140850
C19   C     C_R   0.962779 0.812847 0.668201 -0.167259
C20   C     C_R   0.037224 0.312777 0.331793 -0.167252
C21   C     C_R   0.860622 0.903213 0.685896 -0.194599
C22   C     C_R   0.139375 0.403232 0.314108 -0.194606
C23   C     C_R   0.829127 0.851202 0.591949 0.077706
C24   C     C_R   0.170872 0.351192 0.408052 0.077706
C25   C     C_R   0.867013 0.779483 0.537388 0.065107
C26   C     C_R   0.132990 0.279425 0.462607 0.065110
C27   C     C_R   0.761548 0.863544 0.551268 0.008831
C28   C     C_R   0.238451 0.363551 0.448732 0.008828
C29   C     C_R   0.733361 0.807496 0.455808 -0.064230
C30   C     C_R   0.266640 0.307484 0.544190 -0.064222
C31   C     C_R   0.772550 0.714661 0.408646 0.385897
C32   C     C_R   0.227455 0.214615 0.591349 0.385898
C33   C     C_R   0.838387 0.711655 0.447515 -0.267688
C34   C     C_R   0.161619 0.211582 0.552477 -0.267694
C35   C     C_R   0.721026 0.925976 0.603454 -0.168206
C36   C     C_R   0.278970 0.426011 0.396548 -0.168212
C37   C     C_R   0.655587 0.937589 0.563616 -0.214322
C38   C     C_R   0.344409 0.437641 0.436386 -0.214324
C39   C     C_R   0.628122 0.898983 0.468896 0.142246
C40   C     C_R   0.371875 0.399024 0.531105 0.142242
C41   C     C_R   0.666807 0.840520 0.412707 0.082080
C42   C     C_R   0.333193 0.340525 0.587293 0.082083
C43   C     C_R   0.562257 0.924401 0.429158 -0.171518
C44   C     C_R   0.437739 0.424466 0.570845 -0.171516
C45   C     C_R   0.534422 0.900679 0.333134 -0.173532
C46   C     C_R   0.465575 0.400732 0.666868 -0.173531
C47   C     C_R   0.637776 0.828042 0.314753 -0.204369
C48   C     C_R   0.362225 0.328027 0.685246 -0.204372
H7    H     H_    0.867126 0.646221 0.408292 0.146381
H8    H     H_    0.132883 0.146118 0.591696 0.146377
H9    H     H_    0.665210 0.810394 0.266056 0.173300
H10   H     H_    0.334793 0.310351 0.733943 0.173305
H11   H     H_    0.962360 0.709587 0.533694 0.116929
H12   H     H_    0.037646 0.209460 0.466293 0.116930
H13   H     H_    0.013585 0.791415 0.697755 0.107974
H14   H     H_    0.986419 0.291317 0.302235 0.107978
H15   H     H_    0.835465 0.954238 0.733025 0.087390
H16   H     H_    0.164529 0.454304 0.266985 0.087397
H17   H     H_    0.738052 0.964702 0.676260 0.112114
H18   H     H_    0.261943 0.464743 0.323743 0.112115
H19   H     H_    0.532466 0.966389 0.472192 0.117580
H20   H     H_    0.467527 0.466484 0.527811 0.117580
O11   O     O_R   0.036450 0.233070 0.130130 -0.536985
O12   O     O_R   0.963550 0.733070 0.869870 -0.536983
O13   O     O_R   0.912470 0.560570 0.006790 -0.543454
O14   O     O_R   0.087530 0.060570 0.993210 -0.543455
C49   C     C_R   0.886726 0.392242 0.001354 0.761778
C50   C     C_R   0.113274 0.892242 0.998646 0.761776
O15   O     O_R   0.032920 0.562940 0.138050 -0.540694
O16   O     O_R   0.967080 0.062940 0.861950 -0.540695
O17   O     O_R   0.084790 0.730500 0.002090 -0.538784
O18   O     O_R   0.915210 0.230500 0.997910 -0.538784
C51   C     C_R   0.045021 0.393990 0.174588 0.682215
C52   C     C_R   0.954979 0.893993 0.825412 0.682217
O19   O     O_3   0.016820 0.396170 0.955260 -0.378343
O20   O     O_3   0.983180 0.896170 0.044740 -0.378343
V3    V     V_3+5 0.996880 0.672090 0.008300 1.416935
V4    V     V_3+5 0.003120 0.172090 0.991700 1.416934
O21   O     O_3   0.747818 0.616576 0.326287 -0.561715
C53   C     C_3   0.729857 0.437838 0.348507 0.084521
H21   H     H_    0.694657 0.445970 0.389235 0.127790
H22   H     H_    0.772366 0.358026 0.389626 0.127623
C54   C     C_3   0.698970 0.332843 0.258033 -0.671216
H23   H     H_    0.733107 0.319219 0.216159 0.222309
H24   H     H_    0.684731 0.191971 0.274569 0.179388
H25   H     H_    0.655921 0.408336 0.216028 0.216629
O22   O     O_3   0.252191 0.116526 0.673707 -0.561718
C55   C     C_3   0.270153 0.937793 0.651486 0.084518
H26   H     H_    0.305350 0.945931 0.610753 0.127789
H27   H     H_    0.227645 0.857977 0.610373 0.127624
C56   C     C_3   0.301047 0.832797 0.741960 -0.671211
H28   H     H_    0.266915 0.819171 0.783841 0.222305
H29   H     H_    0.315286 0.691927 0.725424 0.179392
H30   H     H_    0.344097 0.908291 0.783958 0.216628
O23   O     O_3   0.314200 0.542501 0.044481 -0.534323
C57   C     C_3   0.309108 0.485789 0.132829 0.095255
H31   H     H_    0.260329 0.433346 0.126187 0.106954
H32   H     H_    0.320769 0.601246 0.185069 0.099137
C58   C     C_3   0.355917 0.328330 0.170091 -0.686138
H33   H     H_    0.405427 0.377224 0.179773 0.224954
H34   H     H_    0.351543 0.279739 0.238667 0.162662
H35   H     H_    0.345687 0.210204 0.120003 0.218482
O24   O     O_3   0.685802 0.042502 0.955523 -0.534324
C59   C     C_3   0.690870 0.985837 0.867155 0.095277
H36   H     H_    0.739651 0.933453 0.873758 0.106937
H37   H     H_    0.679178 0.101305 0.814920 0.099129
C60   C     C_3   0.644073 0.828339 0.829918 -0.686104
H38   H     H_    0.594561 0.877178 0.820271 0.224964
H39   H     H_    0.648428 0.779777 0.761329 0.162645
H40   H     H_    0.654332 0.710204 0.880004 0.218466
H41   H     H_    0.483718 0.923347 0.303130 0.105615
H42   H     H_    0.516277 0.423423 0.696873 0.105615
H43   H     H_    0.626405 0.983969 0.606778 0.119852
H44   H     H_    0.373589 0.484044 0.393225 0.119858

loop_
_geom_bond_atom_site_label_1
_geom_bond_atom_site_label_2
_ccdc_geom_bond_type
C40   C44   A    
O16   V4    S    
O4    V2    S    
C54   H23   S    
O15   C51   A    
C11   H5    S    
C35   H17   S    
O1    C3    A    
C7    C50   S    
O2    C4    A    
C16   C48   A    
C2    O7    A    
C57   H31   S    
C15   C47   A    
C29   C31   A    
O5    C3    A    
C44   H20   S    
C17   C19   A    
O14   C50   A    
C58   H34   S    
C24   C28   A    
C39   C41   A    
C14   C51   S    
C55   H26   S    
C40   C42   A    
O21   C53   S    
O12   C52   A    
O14   V4    S    
C27   C29   A    
C43   C45   A    
C44   C46   A    
C6    C10   S    
C8    H4    S    
C13   C21   A    
C31   C33   A    
O15   V3    S    
C32   O22   S    
C32   C34   A    
C10   O24   S    
C14   C20   A    
C17   C25   A    
C34   H8    S    
O6    C4    A    
C26   C34   A    
C30   C32   A    
C42   C48   A    
O6    V2    S    
C1    C16   S    
C23   C25   A    
C24   C26   A    
C30   C42   A    
C28   C30   A    
C35   C37   A    
C36   C38   A    
C4    C11   S    
O16   C52   A    
C21   C23   A    
C56   H30   S    
O11   V4    S    
C31   O21   S    
C27   C35   A    
C5    H1    S    
C13   C19   A    
O17   V3    S    
C7    H3    S    
C9    O23   S    
C60   H40   S    
C15   C45   A    
O13   V3    S    
C8    C49   S    
C28   C36   A    
C16   C46   A    
O1    V2    S    
C33   H7    S    
C39   C43   A    
O2    V1    S    
O24   C59   S    
C38   H44   S    
O4    C2    A    
O13   C49   A    
C46   H42   S    
C53   H21   S    
O19   V4    S    
C21   H15   S    
C37   C39   A    
C60   H38   S    
C58   H35   S    
C59   H37   S    
C18   C20   A    
C14   C22   A    
O3    V1    S    
O23   C57   S    
C20   H14   S    
C19   H13   S    
O12   V3    S    
C6    H2    S    
C10   C12   D    
C22   C24   A    
O3    C1    A    
C50   O17   A    
C57   H32   S    
C49   O18   A    
O18   V4    S    
C9    C11   D    
C53   C54   S    
O22   C55   S    
C37   H43   S    
C2    C15   S    
C5    C9    S    
C59   C60   S    
C56   H29   S    
O7    V1    S    
C12   H6    S    
C17   H11   S    
O8    V2    S    
C56   H28   S    
C41   C47   A    
C25   C33   A    
C48   H10   S    
C55   H27   S    
C3    C12   S    
C43   H19   S    
C47   H9    S    
O5    V1    S    
C5    C7    D    
C38   C40   A    
C6    C8    D    
C45   H41   S    
O20   V3    S    
C53   H22   S    
C57   C58   S    
C18   C26   A    
C29   C41   A    
O11   C51   A    
C22   H16   S    
C1    O8    A    
C54   H24   S    
C13   C52   S    
O9    V2    S    
C60   H39   S    
C23   C27   A    
O10   V1    S    
C54   H25   S    
C59   H36   S    
C58   H33   S    
C18   H12   S    
C36   H18   S    
C55   C56   S    
