data_mof_unit_35045.cif
_audit_creation_date              2012-10-26T19:59:15-0400
_audit_creation_method            fapswitch 2.2
_symmetry_space_group_name_H-M    P1
_symmetry_Int_Tables_number       1
_space_group_crystal_system       triclinic
_cell_length_a                    7.506754
_cell_length_b                    8.72407
_cell_length_c                    15.862937
_cell_angle_alpha                 93.18507
_cell_angle_beta                  75.029285
_cell_angle_gamma                 101.859118
_cell_volume                      982.169940624

loop_
_atom_site_label
_atom_site_type_symbol
_atom_type_description
_atom_site_fract_x
_atom_site_fract_y
_atom_site_fract_z
_atom_type_partial_charge
C1    C     C_R   0.539161 0.798245 0.506154 0.528428
C2    C     C_R   0.614899 0.502376 0.333250 0.541854
C3    C     C_R   0.309883 0.484920 0.763428 -0.040695
C4    C     C_R   0.681953 0.500644 0.235722 -0.045349
C5    C     C_R   0.064987 0.379159 0.890260 0.368798
C6    C     C_R   0.908939 0.613664 0.105103 0.364126
C7    C     C_R   0.116745 0.441975 0.805429 -0.065793
C8    C     C_R   0.871420 0.557699 0.190131 -0.059513
C9    C     C_R   0.435574 0.523006 0.816245 0.387640
C10   C     C_R   0.546667 0.455914 0.186284 0.385947
C11   C     C_R   0.378630 0.489167 0.906187 0.019462
C12   C     C_R   0.458975 0.201885 0.496375 0.527632
C13   C     C_R   0.591086 0.493245 0.096558 0.009117
C14   C     C_R   0.200692 0.393133 0.938238 -0.038225
C15   C     C_R   0.765714 0.593939 0.062035 -0.034804
C16   C     C_R   0.499174 0.534085 0.962796 0.034010
C17   C     C_R   0.462726 0.450650 0.042272 0.020973
C18   C     C_3   0.036662 0.561197 0.227773 -0.189502
C19   C     C_3   0.105276 0.723542 0.260044 -0.383932
C20   C     C_3   0.971308 0.492507 0.769124 -0.192566
C21   C     C_3   0.022108 0.671616 0.755724 -0.291324
C22   C     C_3   0.574083 0.017938 0.613876 -0.261428
C23   C     C_R   0.302199 0.327290 0.062226 0.415291
C24   C     C_3   0.783425 0.062357 0.609888 -0.379039
C25   C     C_3   0.388317 0.977824 0.399305 -0.255657
C26   C     C_3   0.172888 0.940697 0.422793 -0.353139
C27   C     C_R   0.651551 0.662803 0.943876 0.416614
C28   C     C_R   0.164842 0.310699 0.015732 -0.051493
C29   C     C_R   0.790871 0.682549 0.988182 -0.052852
C30   C     C_2   0.536739 0.960287 0.525977 0.003349
C31   C     C_2   0.458187 0.039638 0.478971 0.001348
C32   C     C_R   0.383840 0.492788 0.666571 0.533581
Cu1   Cu    Cu3+1 0.322120 0.483240 0.490330 1.121698
Cu2   Cu    Cu3+1 0.677880 0.516760 0.509670 1.115925
F1    F     F_    0.367151 0.393729 0.228689 -0.577380
F2    F     F_    0.615562 0.584341 0.777801 -0.627026
F3    F     F_    0.883257 0.311056 0.926996 -0.637826
F4    F     F_    0.085466 0.689103 0.064360 -0.645087
F5    F     F_    0.280653 0.215660 0.122177 -0.553269
F6    F     F_    0.660508 0.776839 0.887200 -0.572315
F7    F     F_    0.026181 0.655823 0.569667 -0.593494
F8    F     F_    0.975796 0.347607 0.427588 -0.550359
H1    H     H_    0.036149 0.224443 0.036934 0.202464
H2    H     H_    0.919700 0.714386 0.728754 0.280565
H3    H     H_    0.956873 0.429661 0.707875 0.194657
H4    H     H_    0.831915 0.461942 0.815916 0.240864
H5    H     H_    0.845062 0.955743 0.602800 0.191920
H6    H     H_    0.858536 0.143079 0.554782 0.207366
H7    H     H_    0.802997 0.121854 0.671526 0.154709
H8    H     H_    0.506533 0.118489 0.640041 0.145455
H9    H     H_    0.508068 0.923657 0.663204 0.160824
H10   H     H_    0.121687 0.984162 0.370774 0.171117
H11   H     H_    0.110529 0.996995 0.484497 0.181865
H12   H     H_    0.912850 0.775951 0.968530 0.194825
H13   H     H_    0.120486 0.813044 0.431274 0.194416
H14   H     H_    0.439707 0.069624 0.347830 0.177336
H15   H     H_    0.446525 0.875591 0.368153 0.140247
H16   H     H_    0.987944 0.761480 0.309119 0.150780
H17   H     H_    0.223861 0.719606 0.288956 0.151034
H18   H     H_    0.156662 0.809084 0.205615 0.236792
H19   H     H_    0.005206 0.472668 0.279607 0.247610
H20   H     H_    0.153382 0.528874 0.176302 0.222470
H21   H     H_    0.161216 0.708888 0.709375 0.161219
H22   H     H_    0.028012 0.732473 0.818350 0.154994
N1    N     N_2   0.945180 0.542040 0.524240 0.161015
N2    N     N_2   0.054820 0.457960 0.475760 0.173679
O1    O     O_R   0.384450 0.714270 0.493720 -0.480725
O2    O     O_R   0.615550 0.285730 0.506280 -0.473650
O3    O     O_R   0.684880 0.742590 0.510050 -0.505730
O4    O     O_R   0.315120 0.257410 0.489950 -0.500044
O5    O     O_R   0.265540 0.477900 0.617090 -0.514426
O6    O     O_R   0.734460 0.522100 0.382910 -0.506913
O7    O     O_R   0.565970 0.506210 0.633420 -0.431007
O8    O     O_R   0.434030 0.493790 0.366580 -0.429456

loop_
_geom_bond_atom_site_label_1
_geom_bond_atom_site_label_2
_ccdc_geom_bond_type
C25   C31   S    
C9    F2    S    
C2    C4    S    
C6    F4    S    
C18   H19   S    
C10   F1    S    
C3    C9    A    
C5    F3    S    
C19   H18   S    
C27   C29   A    
C21   H2    S    
C9    C11   A    
C11   C16   A    
C28   H1    S    
C20   H3    S    
C2    O8    A    
C25   H14   S    
C13   C17   A    
C27   F6    S    
C22   H8    S    
C19   H17   S    
C26   H13   S    
C16   C27   A    
C8    C18   S    
Cu1   Cu2   S    
C25   C26   S    
C19   H16   S    
C23   C28   A    
N1    N2    D    
C12   O2    A    
Cu2   O3    S    
C7    C20   S    
C5    C14   A    
C17   C23   A    
C25   H15   S    
Cu1   O4    S    
C2    O6    A    
Cu2   N1    S    
C1    C30   S    
C1    O1    A    
Cu1   N2    S    
C15   C29   A    
C32   O5    A    
C3    C7    A    
C13   C15   A    
C12   C31   S    
F7    N1    S    
C3    C32   S    
C11   C14   A    
C20   H4    S    
C21   H21   S    
C16   C17   A    
C29   H12   S    
Cu1   O5    S    
Cu2   O7    S    
C4    C10   A    
C24   H6    S    
C26   H11   S    
Cu2   O6    S    
Cu1   O8    S    
C24   H7    S    
C20   C21   S    
Cu1   O1    S    
C4    C8    A    
C5    C7    A    
C18   C19   S    
C22   C24   S    
Cu2   O2    S    
C32   O7    A    
F8    N2    S    
C12   O4    A    
C30   C31   D    
C18   H20   S    
C21   H22   S    
C6    C8    A    
C22   C30   S    
C14   C28   A    
C6    C15   A    
C24   H5    S    
C23   F5    S    
C26   H10   S    
C1    O3    A    
C22   H9    S    
C10   C13   A    
