data_mof_unit_15727.cif
_audit_creation_date              2012-10-26T18:32:19-0400
_audit_creation_method            fapswitch 2.2
_symmetry_space_group_name_H-M    P1
_symmetry_Int_Tables_number       1
_space_group_crystal_system       triclinic
_cell_length_a                    12.344485
_cell_length_b                    13.118325
_cell_length_c                    15.864797
_cell_angle_alpha                 77.426504
_cell_angle_beta                  101.427937
_cell_angle_gamma                 116.611137
_cell_volume                      2226.93190803

loop_
_atom_site_label
_atom_site_type_symbol
_atom_type_description
_atom_site_fract_x
_atom_site_fract_y
_atom_site_fract_z
_atom_type_partial_charge
C1    C     C_R   0.854885 0.287063 0.502713 0.553707
C2    C     C_R   0.227790 0.838385 0.477735 -0.040634
C3    C     C_R   0.816814 0.081512 0.527053 -0.204839
C4    C     C_R   0.999746 0.499584 0.659564 0.537343
C5    C     C_R   0.737378 0.964807 0.543675 0.277050
C6    C     C_R   0.611557 0.931944 0.532529 0.348470
C7    C     C_R   0.563114 0.012758 0.488402 -0.068556
C8    C     C_R   0.644890 0.129362 0.465811 -0.090926
C9    C     C_R   0.435911 0.983584 0.470808 -0.100602
C10   C     C_R   0.394574 0.071057 0.455795 -0.083126
C11   C     C_R   0.474096 0.183153 0.422446 0.296740
C12   C     C_3   0.020558 0.392043 0.072836 0.472613
C13   C     C_R   0.595068 0.206664 0.416628 0.292451
C14   C     C_R   0.348251 0.871304 0.462614 0.221036
C15   C     C_R   0.192435 0.924445 0.486061 0.165295
C16   C     C_R   0.145144 0.714341 0.488357 0.579949
C17   C     C_R   0.771606 0.164988 0.495334 -0.059124
C18   C     C_R   0.350326 0.330907 0.641982 0.293586
C19   C     C_R   0.755726 0.640185 0.378857 0.425111
C20   C     C_R   0.645905 0.646874 0.339859 -0.124196
C21   C     C_R   0.537891 0.582189 0.378986 0.229393
C22   C     C_R   0.541960 0.517193 0.462428 0.071734
C23   C     C_3   0.995245 0.496576 0.082573 0.049604
C24   C     C_R   0.650763 0.500721 0.493560 0.088057
C25   C     C_R   0.441180 0.462836 0.514217 -0.030969
C26   C     C_R   0.446363 0.382099 0.589501 0.013733
C27   C     C_R   0.548869 0.356937 0.612598 0.247592
C28   C     C_R   0.000186 0.500317 0.340421 0.537667
C29   C     C_R   0.648934 0.418588 0.566563 -0.054563
C30   C     C_R   0.338280 0.490064 0.497390 0.065608
C31   C     C_R   0.253432 0.361537 0.622197 0.408860
C32   C     C_3   0.044390 0.403241 0.975630 0.547049
C33   C     C_3   0.860334 0.460252 0.933606 0.530526
C34   C     C_3   0.097363 0.611815 0.043875 0.131993
C35   C     C_3   0.866922 0.485196 0.030563 0.451701
C36   C     C_1   0.999210 0.499160 0.250957 -0.049398
C37   C     C_3   0.997441 0.495112 0.917867 0.054795
C38   C     C_3   0.209472 0.434029 0.898306 -0.050032
C39   C     C_3   0.389716 0.266826 0.303529 -0.068213
C40   C     C_3   0.137361 0.124075 0.414786 -0.069750
C41   C     C_3   0.370347 0.816466 0.343883 -0.107035
C42   C     C_3   0.022620 0.210473 0.984318 -0.088509
C43   C     C_3   0.691893 0.272170 0.294256 -0.102357
C44   C     C_3   0.558017 0.184295 0.666639 -0.114997
C45   C     C_3   0.085202 0.619924 0.942759 0.455388
C46   C     C_3   0.881911 0.813895 0.303652 -0.171949
C47   C     C_3   0.695110 0.505038 0.856727 -0.026075
C48   C     C_3   0.684828 0.268051 0.949235 -0.032444
C49   C     C_3   0.842361 0.622178 0.096823 -0.103830
C50   C     C_3   0.274414 0.777440 0.913022 -0.044603
C51   C     C_1   0.997265 0.498025 0.175329 -0.016698
C52   C     C_1   0.998757 0.496707 0.824937 0.061674
C53   C     C_1   0.999008 0.498296 0.749175 0.013612
C54   C     C_R   0.273272 0.042036 0.468128 0.303954
Cu1   Cu    Cu3+1 0.098280 0.475420 0.519630 0.982342
Cu2   Cu    Cu3+1 0.901720 0.524580 0.480370 1.047271
H1    H     H_    0.087221 0.686530 0.058085 0.132155
H2    H     H_    0.102952 0.363309 0.189917 0.312718
H3    H     H_    0.018589 0.859145 0.469899 0.339871
H4    H     H_    0.324991 0.178611 0.289476 0.070003
H5    H     H_    0.466106 0.303121 0.263093 0.143372
H6    H     H_    0.339606 0.322036 0.284033 0.175932
H7    H     H_    0.128177 0.087360 0.355248 0.063887
H8    H     H_    0.145144 0.213198 0.393253 0.144096
H9    H     H_    0.053489 0.074864 0.447755 0.149042
H10   H     H_    0.395164 0.756535 0.321351 0.164827
H11   H     H_    0.434987 0.905655 0.319891 0.100824
H12   H     H_    0.913926 0.107561 0.544678 0.135792
H13   H     H_    0.275265 0.800206 0.314707 0.089531
H14   H     H_    0.478361 0.830000 0.599239 0.319822
H15   H     H_    0.870676 0.918592 0.583328 0.335322
H16   H     H_    0.095978 0.236704 0.039228 0.151439
H17   H     H_    0.057779 0.189006 0.934636 0.132537
H18   H     H_    0.945826 0.130395 0.008929 0.127248
H19   H     H_    0.611301 0.204594 0.262081 0.085856
H20   H     H_    0.765726 0.242941 0.318037 0.120362
H21   H     H_    0.726844 0.348838 0.244239 0.177111
H22   H     H_    0.088304 0.299570 0.649047 0.362310
H23   H     H_    0.332098 0.556498 0.446044 0.232254
H24   H     H_    0.642207 0.203684 0.638891 0.114670
H25   H     H_    0.475829 0.141588 0.621352 0.126517
H26   H     H_    0.553934 0.121936 0.727007 0.144841
H27   H     H_    0.337180 0.180784 0.691626 0.345796
H28   H     H_    0.855662 0.855150 0.345689 0.103064
H29   H     H_    0.833301 0.817489 0.236985 0.108058
H30   H     H_    0.980797 0.865268 0.298205 0.120803
H31   H     H_    0.440588 0.616319 0.273160 0.324105
H32   H     H_    0.658245 0.493202 0.918179 0.113584
H33   H     H_    0.645819 0.428912 0.822073 0.179624
H34   H     H_    0.642672 0.697767 0.276636 0.077424
H35   H     H_    0.679063 0.576927 0.813567 0.159577
H36   H     H_    0.703348 0.221088 0.013341 0.201821
H37   H     H_    0.632333 0.201474 0.906029 0.138111
H38   H     H_    0.624167 0.307850 0.952417 0.078423
H39   H     H_    0.698514 0.409649 0.060136 0.306810
H40   H     H_    0.932444 0.680030 0.126742 0.115114
H41   H     H_    0.796423 0.548259 0.146285 0.145167
H42   H     H_    0.786110 0.671661 0.078314 0.140272
H43   H     H_    0.371303 0.794308 0.915285 0.132952
H44   H     H_    0.266939 0.810557 0.969449 0.143880
H45   H     H_    0.724193 0.398335 0.591154 0.186800
H46   H     H_    0.250257 0.825982 0.851422 0.122691
H47   H     H_    0.034083 0.708663 0.839714 0.349828
H48   H     H_    0.230306 0.647038 0.138555 0.304729
H49   H     H_    0.943481 0.227297 0.123594 0.309169
H50   H     H_    0.258699 0.520937 0.862318 0.170479
H51   H     H_    0.134702 0.381716 0.852766 0.151688
H52   H     H_    0.274341 0.393549 0.917968 0.128374
N1    N     N_R   0.246300 0.438200 0.549400 -0.291762
N2    N     N_R   0.754300 0.561180 0.451130 -0.214251
O1    O     O_R   0.972520 0.318130 0.524690 -0.545708
O2    O     O_3   0.173528 0.444264 0.974625 -0.484192
O3    O     O_3   0.125053 0.391934 0.129631 -0.651179
O4    O     O_3   0.083581 0.896248 0.515500 -0.684594
O5    O     O_3   0.433871 0.269049 0.392565 -0.510375
O6    O     O_3   0.241110 0.128981 0.473849 -0.510640
O7    O     O_3   0.379297 0.795440 0.435479 -0.503955
O8    O     O_3   0.541025 0.823678 0.572835 -0.597484
O9    O     O_3   0.780358 0.882188 0.579690 -0.636921
O10   O     O_3   0.977686 0.294159 0.944584 -0.533192
O11   O     O_3   0.660739 0.304603 0.361944 -0.526749
O12   O     O_R   0.806530 0.359650 0.491530 -0.474254
O13   O     O_3   0.168916 0.313948 0.680832 -0.668440
O14   O     O_3   0.559886 0.284055 0.688179 -0.552379
O15   O     O_3   0.348035 0.250050 0.714064 -0.632594
O16   O     O_3   0.862058 0.699119 0.338802 -0.532284
O17   O     O_3   0.427389 0.572115 0.332358 -0.735282
O18   O     O_3   0.821515 0.536335 0.869281 -0.518539
O19   O     O_3   0.794845 0.343829 0.913961 -0.519517
O20   O     O_3   0.773227 0.395949 0.076561 -0.722362
O21   O     O_3   0.855923 0.592021 0.020159 -0.545103
O22   O     O_3   0.201801 0.657623 0.914212 -0.524427
O23   O     O_R   0.083030 0.479240 0.637150 -0.497318
O24   O     O_3   0.033824 0.698557 0.903545 -0.665920
O25   O     O_3   0.213772 0.619719 0.081699 -0.626185
O26   O     O_R   0.917040 0.520750 0.603990 -0.515906
O27   O     O_R   0.193470 0.640350 0.508470 -0.452213
O28   O     O_R   0.027480 0.681870 0.475310 -0.462745
O29   O     O_R   0.082960 0.479250 0.396010 -0.507677
O30   O     O_R   0.916970 0.520760 0.362850 -0.431293
O31   O     O_3   0.917118 0.288770 0.094380 -0.687723

loop_
_geom_bond_atom_site_label_1
_geom_bond_atom_site_label_2
_ccdc_geom_bond_type
Cu1   Cu2   S    
C8    C13   A    
H48   O25   S    
C4    C53   S    
C27   C29   A    
C16   O27   A    
C18   C26   A    
H31   O17   S    
Cu1   O29   S    
C7    C8    A    
C41   H11   S    
C49   O21   S    
C12   C23   S    
C45   O24   S    
C40   H7    S    
C48   H38   S    
C5    O9    S    
H47   O24   S    
H27   O15   S    
C44   H26   S    
C18   O15   S    
H49   O31   S    
C5    C6    A    
Cu2   O30   S    
C50   H43   S    
C25   C30   A    
C13   O11   S    
C12   O31   S    
C38   H51   S    
C1    O12   A    
C28   O30   A    
C49   H42   S    
C24   C29   A    
C3    H12   S    
C22   C25   A    
C54   O6    S    
H39   O20   S    
C21   O17   S    
C11   O5    S    
C9    C10   A    
C43   O11   S    
C4    O26   A    
C46   H29   S    
C14   O7    S    
C21   C22   A    
C12   C32   S    
C47   H33   S    
C28   O29   A    
C32   O10   S    
C2    C14   A    
Cu2   N2    S    
Cu2   O26   S    
H2    O3    S    
C43   H19   S    
C39   H5    S    
C42   H18   S    
C48   H37   S    
C30   N1    A    
C15   C54   A    
C44   H24   S    
C24   N2    A    
C44   H25   S    
C37   C52   S    
C25   C26   A    
Cu1   O23   S    
C20   H34   S    
C44   O14   S    
C33   O18   S    
C33   C37   S    
Cu2   O12   S    
C38   H50   S    
C9    C14   A    
H22   O13   S    
C34   H1    S    
Cu2   O28   S    
C23   C51   S    
C23   C34   S    
C42   H16   S    
C31   N1    A    
C15   O4    S    
C29   H45   S    
C34   C45   S    
C32   C37   S    
C2    C15   A    
C35   O20   S    
C41   H10   S    
C36   C51   T    
C50   O22   S    
C46   H28   S    
C30   H23   S    
C50   H46   S    
C39   O5    S    
C40   H9    S    
C26   C27   A    
C22   C24   A    
C48   O19   S    
C38   O2    S    
C35   O21   S    
C2    C16   S    
C52   C53   T    
C41   H13   S    
C12   O3    S    
C19   N2    A    
C33   O19   S    
C43   H20   S    
C7    C9    A    
C39   H6    S    
C42   H17   S    
C32   O2    S    
Cu1   O1    S    
C47   H35   S    
C46   O16   S    
C16   O28   A    
C3    C5    A    
C40   H8    S    
C27   O14   S    
C6    C7    A    
C18   C31   A    
C43   H21   S    
C19   O16   S    
C1    C17   S    
C8    C17   A    
Cu1   O27   S    
H15   O9    S    
C47   H32   S    
C19   C20   A    
C31   O13   S    
C1    O1    A    
C11   C13   A    
C42   O10   S    
C40   O6    S    
C34   O25   S    
H14   O8    S    
H3    O4    S    
C39   H4    S    
C33   C35   S    
C3    C17   A    
C49   H40   S    
C38   H52   S    
C10   C54   A    
C23   C35   S    
C50   H44   S    
C10   C11   A    
C49   H41   S    
C20   C21   A    
C28   C36   S    
C45   O22   S    
C48   H36   S    
C47   O18   S    
C41   O7    S    
C37   C45   S    
C6    O8    S    
Cu1   N1    S    
C4    O23   A    
C46   H30   S    
