data_mof_unit_28798.cif
_audit_creation_date              2012-12-10T19:11:32-0500
_audit_creation_method            fapswitch 2.2
_symmetry_space_group_name_H-M    P1
_symmetry_Int_Tables_number       1
_space_group_crystal_system       triclinic
_cell_length_a                    7.783017
_cell_length_b                    9.09408
_cell_length_c                    17.326658
_cell_angle_alpha                 90.070071
_cell_angle_beta                  85.257585
_cell_angle_gamma                 90.028054
_cell_volume                      1222.17055892

loop_
_atom_site_label
_atom_site_type_symbol
_atom_type_description
_atom_site_fract_x
_atom_site_fract_y
_atom_site_fract_z
_atom_type_partial_charge
C1    C     C_R   0.500032 0.779975 0.499918 0.830950
C2    C     C_R   0.499981 0.220019 0.499950 0.850325
C3    C     C_1   0.500029 0.934620 0.499866 -0.178309
C4    C     C_1   0.499965 0.065362 0.499883 -0.169266
C5    C     C_R   0.476752 0.497896 0.650229 0.865707
C6    C     C_R   0.523256 0.504254 0.349667 0.835872
C7    C     C_R   0.461754 0.496212 0.734557 -0.185517
C8    C     C_R   0.538552 0.518071 0.265335 -0.214076
C9    C     C_R   0.581482 0.417549 0.774863 0.485903
C10   C     C_R   0.406312 0.584948 0.227024 0.487403
C11   C     C_R   0.567530 0.421914 0.855720 -0.329767
C12   C     C_R   0.420303 0.591539 0.146568 -0.292629
C13   C     C_R   0.440311 0.508238 0.895909 0.006071
C14   C     C_R   0.565287 0.533530 0.103391 -0.001897
C15   C     C_R   0.318147 0.583625 0.855784 0.538134
C16   C     C_R   0.701954 0.474646 0.141741 0.530647
C17   C     C_R   0.330688 0.578102 0.774851 -0.374297
C18   C     C_R   0.688524 0.468867 0.222631 -0.336538
C19   C     C_2   0.430799 0.516893 0.980438 -0.147554
C20   C     C_2   0.573247 0.529687 0.018366 -0.181550
Cu1   Cu    Cu3+1 0.330920 0.500000 0.500000 1.014272
Cu2   Cu    Cu3+1 0.669080 0.500000 0.500000 1.019416
H1    H     H_    0.317195 0.643611 0.118459 0.185207
H2    H     H_    0.654320 0.356205 0.887206 0.167212
H3    H     H_    0.793936 0.422653 0.251781 0.199966
H4    H     H_    0.242159 0.642028 0.743347 0.179580
H5    H     H_    0.699033 0.530087 0.986226 0.176137
H6    H     H_    0.303627 0.514483 0.011218 0.188802
N1    N     N_1   0.923170 0.500000 0.500010 -0.045419
N2    N     N_1   0.076830 0.500000 0.499990 -0.045041
O1    O     O_R   0.357240 0.711600 0.500000 -0.580585
O2    O     O_R   0.642760 0.288400 0.500000 -0.571741
O3    O     O_R   0.642760 0.711600 0.500000 -0.580365
O4    O     O_R   0.357240 0.288400 0.500000 -0.585643
O5    O     O_R   0.340660 0.500000 0.613590 -0.603969
O6    O     O_R   0.659340 0.500000 0.386410 -0.591503
O7    O     O_R   0.626230 0.500000 0.613600 -0.558129
O8    O     O_R   0.373770 0.500000 0.386400 -0.535444
O9    O     O_3   0.201527 0.676985 0.895664 -0.569763
C21   C     C_3   0.033386 0.621321 0.892105 -0.325966
H7    H     H_    0.944389 0.686887 0.931840 0.204681
H8    H     H_    0.023381 0.504685 0.911594 0.156046
H9    H     H_    0.989904 0.633441 0.833017 0.155045
O10   O     O_3   0.851231 0.427311 0.100299 -0.583940
C22   C     C_3   0.844469 0.273032 0.093222 -0.342264
H10   H     H_    0.730123 0.237586 0.063285 0.165051
H11   H     H_    0.844732 0.218523 0.150678 0.167768
H12   H     H_    0.961175 0.235815 0.057439 0.196359
O11   O     O_3   0.698627 0.324308 0.735065 -0.566965
C23   C     C_3   0.867590 0.375896 0.742013 -0.258287
H13   H     H_    0.907079 0.357815 0.801410 0.138545
H14   H     H_    0.881621 0.493819 0.725357 0.152644
H15   H     H_    0.957474 0.312296 0.701693 0.199792
O12   O     O_3   0.259510 0.639418 0.267588 -0.549680
C24   C     C_3   0.284131 0.790582 0.281148 -0.271645
H16   H     H_    0.299596 0.853221 0.225855 0.148720
H17   H     H_    0.396642 0.809851 0.315627 0.137504
H18   H     H_    0.168136 0.833787 0.315275 0.193990

loop_
_geom_bond_atom_site_label_1
_geom_bond_atom_site_label_2
_ccdc_geom_bond_type
C2    C4    S    
C24   H16   S    
C6    O8    A    
N1    N2    T    
Cu1   O5    S    
C20   H5    S    
C5    O7    A    
C8    C18   A    
C9    C11   A    
Cu1   N2    S    
C16   O10   S    
C23   H14   S    
C19   C20   D    
C13   C15   A    
C21   H9    S    
C2    O4    A    
C24   H17   S    
C23   H13   S    
C1    O3    A    
C16   C18   A    
C22   H10   S    
C19   H6    S    
C11   C13   A    
C12   H1    S    
C15   O9    S    
Cu1   O1    S    
C18   H3    S    
C10   C12   A    
C17   H4    S    
C5    O5    A    
C21   H8    S    
C21   H7    S    
Cu2   N1    S    
C12   C14   A    
C5    C7    S    
C22   H11   S    
C10   O12   S    
C14   C16   A    
C22   H12   S    
C23   H15   S    
C13   C19   S    
C3    C4    T    
C7    C9    A    
C11   H2    S    
C1    O1    A    
Cu2   O2    S    
C9    O11   S    
O10   C22   S    
C14   C20   S    
C2    O2    A    
O11   C23   S    
C24   H18   S    
O9    C21   S    
C15   C17   A    
Cu2   O3    S    
O12   C24   S    
C6    C8    S    
Cu1   O4    S    
C1    C3    S    
Cu1   Cu2   S    
Cu2   O7    S    
C8    C10   A    
Cu2   O6    S    
Cu1   O8    S    
C6    O6    A    
C7    C17   A    
