data_mof_unit_25427.cif
_audit_creation_date              2012-12-10T19:59:19-0500
_audit_creation_method            fapswitch 2.2
_symmetry_space_group_name_H-M    P1
_symmetry_Int_Tables_number       1
_space_group_crystal_system       triclinic
_cell_length_a                    14.913104
_cell_length_b                    14.261508
_cell_length_c                    10.684073
_cell_angle_alpha                 90.897242
_cell_angle_beta                  91.441406
_cell_angle_gamma                 90.200801
_cell_volume                      2271.30962918

loop_
_atom_site_label
_atom_site_type_symbol
_atom_type_description
_atom_site_fract_x
_atom_site_fract_y
_atom_site_fract_z
_atom_type_partial_charge
C1    C     C_R   0.327924 0.500103 0.501688 0.860600
C2    C     C_R   0.672189 0.500276 0.500287 0.878755
C3    C     C_R   0.189145 0.435378 0.582775 -0.216502
C4    C     C_R   0.815876 0.428180 0.450197 -0.204085
C5    C     C_R   0.096684 0.436280 0.588752 -0.197555
C6    C     C_R   0.908392 0.427983 0.459570 -0.216248
C7    C     C_R   0.048509 0.504691 0.524022 0.118198
C8    C     C_R   0.952601 0.502035 0.522198 0.108728
C9    C     C_R   0.440924 0.101248 0.426073 -0.313660
C10   C     C_R   0.563663 0.104781 0.572719 -0.325879
C11   C     C_R   0.438588 0.200122 0.428815 0.109554
C12   C     C_R   0.561732 0.204016 0.572898 0.110640
C13   C     C_R   0.502996 0.051579 0.498704 0.103378
C14   C     C_R   0.581318 0.893710 0.520182 -0.268834
C15   C     C_R   0.421938 0.894121 0.479085 -0.283299
C16   C     C_R   0.578643 0.795135 0.520704 0.013774
C17   C     C_R   0.422382 0.795583 0.479263 0.014366
C18   C     C_R   0.502246 0.945482 0.499153 0.162868
C19   C     C_R   0.499965 0.499742 0.259843 0.898007
C20   C     C_R   0.496299 0.500933 0.739574 0.881745
C21   C     C_R   0.495222 0.585899 0.065246 0.072950
C22   C     C_R   0.489792 0.587805 0.937529 0.033911
C23   C     C_R   0.490307 0.500937 0.127385 -0.092259
C24   C     C_R   0.481513 0.503710 0.870040 -0.099946
C25   C     C_R   0.467465 0.419293 0.060294 -0.240181
C26   C     C_R   0.459489 0.421291 0.931541 -0.229314
C27   C     C_3   0.556361 0.666890 0.929672 -0.240209
C28   C     C_3   0.562799 0.664224 0.073002 -0.240227
C29   C     C_R   0.091548 0.573022 0.455008 -0.187990
C30   C     C_R   0.905544 0.576175 0.575808 -0.193978
C31   C     C_R   0.183799 0.571379 0.447686 -0.201333
C32   C     C_R   0.812991 0.575639 0.568239 -0.211990
C33   C     C_R   0.232221 0.501479 0.509694 0.002451
C34   C     C_R   0.768322 0.501391 0.505864 0.014261
H1    H     H_    0.461503 0.353451 0.105786 0.173047
H2    H     H_    0.442856 0.357240 0.880772 0.156991
H3    H     H_    0.645275 0.928741 0.534731 0.125958
H4    H     H_    0.358416 0.929402 0.465784 0.126863
H5    H     H_    0.640085 0.756833 0.537246 0.121291
H6    H     H_    0.360116 0.757711 0.463547 0.123604
H7    H     H_    0.618212 0.645340 0.880791 0.152309
H8    H     H_    0.533732 0.727059 0.119932 0.159314
H9    H     H_    0.053526 0.625653 0.404631 0.126329
H10   H     H_    0.940514 0.633834 0.623105 0.134179
H11   H     H_    0.217177 0.623321 0.392155 0.138581
H12   H     H_    0.776409 0.632580 0.611442 0.138138
H13   H     H_    0.226887 0.383450 0.634641 0.135220
H14   H     H_    0.781588 0.372179 0.398610 0.139954
H15   H     H_    0.062644 0.383861 0.642704 0.128913
H16   H     H_    0.945615 0.371714 0.415868 0.131142
H17   H     H_    0.392968 0.063358 0.366379 0.144265
H18   H     H_    0.611411 0.069634 0.633802 0.139884
N1    N     N_R   0.500000 0.252470 0.500000 -0.127315
N2    N     N_R   0.500000 0.747550 0.500000 -0.090188
O1    O     O_R   0.369060 0.579480 0.500010 -0.638842
O2    O     O_R   0.630940 0.579480 0.499990 -0.634155
O3    O     O_R   0.369050 0.420520 0.500010 -0.620787
O4    O     O_R   0.630950 0.420520 0.499990 -0.618727
O5    O     O_R   0.499990 0.579490 0.316780 -0.616871
O6    O     O_R   0.500010 0.579490 0.683220 -0.621575
O7    O     O_R   0.499980 0.420540 0.316780 -0.622584
O8    O     O_R   0.500020 0.420540 0.683220 -0.621504
Zn1   Zn    Zn3+2 0.500000 0.606140 0.500000 0.938206
Zn2   Zn    Zn3+2 0.500000 0.393860 0.500000 0.947190
C35   C     C_R   0.519276 0.759169 0.882635 0.175729
C36   C     C_R   0.431334 0.768235 0.832806 -0.093132
C37   C     C_R   0.399739 0.855693 0.794538 -0.157090
C38   C     C_R   0.455395 0.934573 0.804334 -0.093088
C39   C     C_R   0.543104 0.926070 0.851447 -0.144375
C40   C     C_R   0.574944 0.838884 0.890318 -0.182366
H19   H     H_    0.386692 0.708417 0.823934 0.129972
H20   H     H_    0.332069 0.862257 0.756765 0.123850
H21   H     H_    0.430830 0.002125 0.774272 0.125267
H22   H     H_    0.586392 0.987115 0.858115 0.125311
H23   H     H_    0.642930 0.833498 0.927569 0.128922
C41   C     C_R   0.654657 0.637624 0.125557 0.164232
C42   C     C_R   0.700676 0.557652 0.082420 -0.174107
C43   C     C_R   0.785949 0.536454 0.131135 -0.162991
C44   C     C_R   0.826278 0.594653 0.222754 -0.094410
C45   C     C_R   0.780884 0.673400 0.267239 -0.142674
C46   C     C_R   0.695498 0.694804 0.219111 -0.129379
H24   H     H_    0.670856 0.511887 0.010964 0.138558
H25   H     H_    0.820934 0.475036 0.097526 0.124625
H26   H     H_    0.892505 0.578425 0.259873 0.136946
H27   H     H_    0.811907 0.717936 0.339087 0.125276
H28   H     H_    0.661487 0.756356 0.254465 0.117081
C47   C     C_R   0.364476 0.241715 0.355564 0.181905
C48   C     C_R   0.366884 0.238588 0.224569 -0.192211
C49   C     C_R   0.292062 0.265111 0.152104 -0.145979
C50   C     C_R   0.212482 0.289798 0.210134 -0.114841
C51   C     C_R   0.207110 0.285332 0.340206 -0.148236
C52   C     C_R   0.282350 0.259581 0.412528 -0.117550
H29   H     H_    0.426248 0.213157 0.178772 0.114719
H30   H     H_    0.295261 0.264549 0.050993 0.127367
H31   H     H_    0.154262 0.309534 0.154178 0.121670
H32   H     H_    0.144235 0.300237 0.384642 0.137947
H33   H     H_    0.276572 0.252315 0.512696 0.111320
C53   C     C_R   0.625064 0.251823 0.660524 0.175066
C54   C     C_R   0.601693 0.265756 0.785702 -0.130457
C55   C     C_R   0.663344 0.305205 0.872341 -0.157643
C56   C     C_R   0.750183 0.326751 0.835662 -0.136590
C57   C     C_R   0.775952 0.306565 0.713332 -0.139278
C58   C     C_R   0.713980 0.267723 0.626481 -0.137274
H34   H     H_    0.536149 0.244602 0.816022 0.105321
H35   H     H_    0.644249 0.317714 0.968224 0.136802
H36   H     H_    0.798084 0.356902 0.902730 0.120748
H37   H     H_    0.844116 0.320286 0.686178 0.140690
H38   H     H_    0.735041 0.249847 0.532935 0.114824

loop_
_geom_bond_atom_site_label_1
_geom_bond_atom_site_label_2
_ccdc_geom_bond_type
C15   C18   A    
C47   C48   A    
C56   C57   A    
C7    C29   A    
C14   C18   A    
C9    H17   S    
C10   H18   S    
C1    C33   S    
C7    C8    S    
C42   C43   A    
C55   H35   S    
C13   C18   S    
O6    Zn1   S    
C24   C26   A    
C44   H26   S    
N1    Zn2   S    
N2    Zn1   S    
C3    C33   A    
C53   C58   A    
C37   H20   S    
C3    H13   S    
C49   H30   S    
C9    C13   A    
O8    Zn2   S    
C51   H32   S    
C43   H25   S    
C36   H19   S    
C11   C47   S    
C38   C39   A    
O1    Zn1   S    
C31   C33   A    
C58   H38   S    
C20   O6    A    
C12   C53   S    
C46   H28   S    
C11   N1    A    
C2    C34   S    
C36   C37   A    
C21   C22   A    
C29   H9    S    
C20   O8    A    
C30   H10   S    
C57   C58   A    
C52   H33   S    
O4    Zn2   S    
C4    C34   A    
C37   C38   A    
C20   C24   S    
C50   H31   S    
C41   C42   A    
C4    C6    A    
C51   C52   A    
C5    C7    A    
C43   C44   A    
C6    C8    A    
C19   O5    A    
C25   C26   A    
C17   H6    S    
C32   C34   A    
O7    Zn2   S    
C19   C23   S    
C15   H4    S    
C45   H27   S    
C27   C35   S    
C1    O3    A    
C27   H7    S    
C54   C55   A    
O2    Zn1   S    
C57   H37   S    
C6    H16   S    
C9    C11   A    
C10   C12   A    
C25   H1    S    
C26   H2    S    
C21   C28   S    
C35   C36   A    
C22   C27   S    
C21   C23   A    
C14   C16   A    
C28   C41   S    
C40   H23   S    
O3    Zn2   S    
C4    H14   S    
C56   H36   S    
C15   C17   A    
C48   H29   S    
C32   H12   S    
C12   N1    A    
C45   C46   A    
C3    C5    A    
C10   C13   A    
C41   C46   A    
C2    O4    A    
O5    Zn1   S    
C8    C30   A    
C38   H21   S    
C29   C31   A    
C2    O2    A    
C14   H3    S    
C30   C32   A    
C50   C51   A    
C42   H24   S    
C19   O7    A    
C28   H8    S    
C55   C56   A    
C54   H34   S    
C22   C24   A    
C23   C25   A    
C1    O1    A    
C39   C40   A    
C16   N2    A    
C5    H15   S    
C16   H5    S    
C44   C45   A    
C48   C49   A    
C53   C54   A    
C31   H11   S    
C27   C28   S    
C39   H22   S    
C49   C50   A    
C47   C52   A    
C17   N2    A    
C35   C40   A    
