data_mof_unit_41423.cif
_audit_creation_date              2012-12-10T17:38:47-0500
_audit_creation_method            fapswitch 2.2
_symmetry_space_group_name_H-M    P1
_symmetry_Int_Tables_number       1
_space_group_crystal_system       triclinic
_cell_length_a                    12.313559
_cell_length_b                    13.294731
_cell_length_c                    23.493231
_cell_angle_alpha                 77.28914
_cell_angle_beta                  100.618238
_cell_angle_gamma                 116.795538
_cell_volume                      3332.83902614

loop_
_atom_site_label
_atom_site_type_symbol
_atom_type_description
_atom_site_fract_x
_atom_site_fract_y
_atom_site_fract_z
_atom_type_partial_charge
C1    C     C_R   0.854804 0.286466 0.507241 0.771429
C2    C     C_R   0.919608 0.280623 0.048316 -0.171516
C3    C     C_R   0.922361 0.282878 0.989099 -0.169249
C4    C     C_R   0.946184 0.384301 0.949098 -0.003098
C5    C     C_R   0.965952 0.484841 0.968747 -0.041174
C6    C     C_R   0.989578 0.587759 0.928566 -0.044618
C7    C     C_R   0.006866 0.687350 0.950060 0.078746
C8    C     C_R   0.003868 0.681652 0.010145 -0.193672
C9    C     C_R   0.950824 0.387177 0.889730 0.526045
C10   C     C_R   0.995089 0.585320 0.869033 0.515594
C11   C     C_R   0.075069 0.473193 0.773379 -0.110394
C12   C     C_R   0.998360 0.498790 0.608928 0.788308
C13   C     C_R   0.081362 0.476971 0.714178 -0.217986
C14   C     C_R   0.992951 0.495138 0.671524 -0.038432
C15   C     C_R   0.897823 0.508581 0.689245 -0.231282
C16   C     C_R   0.891551 0.504402 0.748360 -0.106198
C17   C     C_R   0.980276 0.487128 0.790648 0.366010
C18   C     C_R   0.871940 0.426662 0.240392 -0.111882
C19   C     C_R   0.882826 0.434527 0.299505 -0.252690
C20   C     C_R   0.997414 0.495049 0.328924 -0.050219
C21   C     C_R   0.103035 0.548689 0.297861 0.058614
C22   C     C_R   0.090126 0.539204 0.238441 -0.133864
C23   C     C_R   0.145251 0.712726 0.493247 0.786981
C24   C     C_R   0.975485 0.479616 0.209675 0.333440
C25   C     C_R   0.283421 0.993780 0.545059 -0.186836
C26   C     C_R   0.228538 0.830932 0.498370 -0.041786
C27   C     C_R   0.814811 0.105405 0.477020 -0.180792
C28   C     C_R   0.734518 0.998601 0.462645 -0.147452
C29   C     C_R   0.611881 0.951859 0.472519 -0.178329
C30   C     C_R   0.567900 0.009490 0.499774 0.084256
C31   C     C_R   0.653635 0.112805 0.519745 0.086144
C32   C     C_R   0.442247 0.968817 0.508109 0.075809
C33   C     C_R   0.406963 0.028644 0.538706 0.159472
C34   C     C_R   0.001342 0.501023 0.391143 0.788680
C35   C     C_R   0.495693 0.119480 0.565127 -0.216547
C36   C     C_R   0.617691 0.160046 0.556485 -0.195925
C37   C     C_R   0.350453 0.869590 0.488253 -0.243037
C38   C     C_R   0.194269 0.895593 0.524531 -0.189908
C39   C     C_R   0.774681 0.164995 0.504040 -0.094950
C40   C     C_R   0.354224 0.345002 0.600421 -0.314477
C41   C     C_R   0.759898 0.642205 0.419080 0.064391
C42   C     C_R   0.663288 0.674489 0.400488 0.052383
C43   C     C_R   0.559797 0.620076 0.431570 -0.258093
C44   C     C_R   0.553315 0.537624 0.481683 -0.018197
C45   C     C_R   0.983380 0.577095 0.109813 0.538503
C46   C     C_R   0.655042 0.510323 0.498923 0.284915
C47   C     C_R   0.449939 0.480870 0.515346 -0.015134
C48   C     C_R   0.454197 0.403642 0.567089 0.182863
C49   C     C_R   0.557781 0.384356 0.584903 -0.304669
C50   C     C_R   0.652841 0.431974 0.549829 -0.181280
C51   C     C_R   0.342054 0.497297 0.500413 0.025785
C52   C     C_R   0.249907 0.363049 0.582503 0.076269
C53   C     C_R   0.941801 0.379917 0.128769 0.532361
C54   C     C_R   0.940475 0.379712 0.068890 -0.008280
C55   C     C_R   0.962774 0.481805 0.029004 -0.019573
C56   C     C_R   0.983060 0.580798 0.049601 -0.043009
Cu1   Cu    Cu3+1 0.098270 0.475410 0.513370 0.937902
Cu2   Cu    Cu3+1 0.901730 0.524590 0.486630 0.926159
H1    H     H_    0.901988 0.201155 0.077952 0.185410
H2    H     H_    0.801230 0.393007 0.322489 0.163675
H3    H     H_    0.168979 0.581061 0.213505 0.133396
H4    H     H_    0.100328 0.865644 0.533184 0.155270
H5    H     H_    0.469859 0.157320 0.593392 0.145795
H6    H     H_    0.256381 0.040129 0.567915 0.138096
H7    H     H_    0.371444 0.816960 0.467439 0.143705
H8    H     H_    0.907517 0.143329 0.465020 0.156708
H9    H     H_    0.554853 0.870012 0.459126 0.121336
H10   H     H_    0.766638 0.953408 0.441800 0.145455
H11   H     H_    0.906549 0.204834 0.974847 0.185730
H12   H     H_    0.685002 0.226130 0.580253 0.129549
H13   H     H_    0.172390 0.319013 0.608163 0.127107
H14   H     H_    0.563910 0.328671 0.625449 0.146681
H15   H     H_    0.356659 0.285416 0.639857 0.137041
H16   H     H_    0.332256 0.557441 0.463372 0.111878
H17   H     H_    0.840716 0.681100 0.395959 0.130410
H18   H     H_    0.486388 0.645213 0.416078 0.128072
H19   H     H_    0.722798 0.404233 0.563761 0.197071
H20   H     H_    0.019211 0.757782 0.026330 0.184372
H21   H     H_    0.144313 0.460310 0.805842 0.139819
H22   H     H_    0.155533 0.466156 0.701856 0.158885
H23   H     H_    0.828030 0.522275 0.657533 0.165283
H24   H     H_    0.817932 0.515057 0.761393 0.139212
H25   H     H_    0.782832 0.380882 0.218222 0.147062
N1    N     N_R   0.964559 0.478110 0.148010 -0.462245
N2    N     N_R   0.975413 0.486415 0.851352 -0.463129
N3    N     N_R   0.246280 0.438190 0.533650 -0.181587
N4    N     N_R   0.754320 0.561190 0.466710 -0.223203
O1    O     O_R   0.972510 0.318130 0.516820 -0.579098
O2    O     O_2   0.922699 0.283515 0.167545 -0.550122
O3    O     O_2   0.930368 0.291287 0.870262 -0.550832
O4    O     O_2   0.021516 0.680276 0.828762 -0.562730
O5    O     O_R   0.806530 0.359650 0.494230 -0.582666
O6    O     O_R   0.082990 0.479200 0.593420 -0.580569
O7    O     O_R   0.917010 0.520720 0.570830 -0.605194
O8    O     O_R   0.193470 0.640350 0.505770 -0.576082
O9    O     O_R   0.027490 0.681870 0.483180 -0.590224
O10   O     O_R   0.082990 0.479280 0.429170 -0.583441
O11   O     O_R   0.917010 0.520800 0.406580 -0.584835
O12   O     O_2   0.002899 0.671811 0.130189 -0.549036
C57   C     C_3   0.228412 0.622989 0.324429 -0.418290
C58   C     C_3   0.235505 0.737752 0.331791 -0.324445
C59   C     C_3   0.367877 0.824780 0.341627 -0.868951
H26   H     H_    0.416617 0.789797 0.379015 0.233037
H27   H     H_    0.415558 0.846344 0.301821 0.259761
H28   H     H_    0.370417 0.903956 0.351269 0.254286
H29   H     H_    0.191479 0.772565 0.291822 0.237941
H30   H     H_    0.186392 0.725688 0.369708 0.200579
H31   H     H_    0.252440 0.578185 0.366790 0.200630
H32   H     H_    0.298852 0.639352 0.295628 0.197646
C60   C     C_3   0.664553 0.765363 0.348220 -0.429483
C61   C     C_3   0.785035 0.830041 0.319471 -0.389125
C62   C     C_3   0.778681 0.923699 0.269869 -0.765736
H33   H     H_    0.703816 0.886372 0.235601 0.250322
H34   H     H_    0.762572 0.986810 0.287039 0.256239
H35   H     H_    0.866476 0.968567 0.249660 0.254032
H36   H     H_    0.861390 0.870082 0.352660 0.217730
H37   H     H_    0.803925 0.769931 0.301081 0.225555
H38   H     H_    0.589398 0.724344 0.314772 0.208976
H39   H     H_    0.644143 0.828437 0.362995 0.203118
C63   C     C_3   0.028863 0.801947 0.912151 -0.341531
C64   C     C_3   0.164348 0.871359 0.901739 -0.300676
C65   C     C_3   0.184736 0.981492 0.859053 -0.810211
H40   H     H_    0.133190 0.961878 0.815777 0.269164
H41   H     H_    0.154348 0.034888 0.876435 0.252328
H42   H     H_    0.283525 0.030530 0.852992 0.239243
H43   H     H_    0.219183 0.893125 0.944179 0.205750
H44   H     H_    0.198299 0.821036 0.884089 0.253025
H45   H     H_    0.967537 0.791604 0.870782 0.239056
H46   H     H_    0.002814 0.852748 0.934225 0.171494

loop_
_geom_bond_atom_site_label_1
_geom_bond_atom_site_label_2
_ccdc_geom_bond_type
C58   H30   S    
C30   C32   A    
C55   C56   A    
C10   N2    A    
C58   C59   S    
C24   N1    S    
C41   C42   A    
C19   C20   A    
Cu2   O11   S    
C51   H16   S    
C34   O11   A    
C12   O7    A    
Cu2   N4    S    
C60   H38   S    
C62   H34   S    
C7    C8    A    
C15   H23   S    
C53   C54   A    
C23   O9    A    
C53   N1    A    
C18   C24   A    
C28   C29   A    
C28   H10   S    
C64   H44   S    
C5    C6    A    
C15   C16   A    
C58   H29   S    
C34   O10   A    
C40   H15   S    
C59   H28   S    
C18   C19   A    
C23   C26   S    
Cu2   O9    S    
C60   C61   S    
C9    N2    A    
C29   H9    S    
C35   C36   A    
C45   C56   A    
C36   H12   S    
C16   C17   A    
C49   H14   S    
C37   H7    S    
Cu1   N3    S    
C61   H36   S    
C44   C47   A    
C20   C34   S    
C1    O1    A    
C13   H22   S    
C57   H32   S    
Cu1   O6    S    
C21   C22   A    
C8    H20   S    
C8    C56   A    
C51   N3    A    
C62   H33   S    
C44   C46   A    
C41   N4    A    
C57   H31   S    
C63   H46   S    
C45   O12   S    
C27   C39   A    
C21   C57   S    
C2    H1    S    
C26   C38   A    
C47   C51   A    
C40   C52   A    
C25   H6    S    
C60   H39   S    
C43   C44   A    
C29   C30   A    
C25   C38   A    
C41   H17   S    
C47   C48   A    
C31   C39   A    
Cu1   O10   S    
C16   H24   S    
C18   H25   S    
C32   C37   A    
C59   H27   S    
C64   C65   S    
C11   H21   S    
C48   C49   A    
C12   C14   S    
C10   O4    S    
C1    O5    A    
C2    C54   A    
C17   N2    S    
C12   O6    A    
C45   N1    A    
C42   C43   A    
C65   H41   S    
C3    C4    A    
C50   H19   S    
C63   C64   S    
C46   N4    A    
C43   H18   S    
C40   C48   A    
C54   C55   A    
C11   C17   A    
C61   C62   S    
C3    H11   S    
C31   C36   A    
C7    C63   S    
C5    C55   A    
C4    C5    A    
C9    O3    S    
C6    C10   A    
C63   H45   S    
C26   C37   A    
C65   H40   S    
C6    C7    A    
C19   H2    S    
C46   C50   A    
Cu1   O1    S    
C61   H37   S    
C32   C33   A    
C65   H42   S    
C52   N3    A    
C2    C3    A    
Cu2   O7    S    
C64   H43   S    
C27   H8    S    
C22   H3    S    
C53   O2    S    
C11   C13   A    
Cu1   Cu2   S    
C30   C31   A    
C57   C58   S    
C33   C35   A    
C23   O8    A    
C22   C24   A    
C42   C60   S    
C59   H26   S    
C1    C39   S    
C20   C21   A    
C49   C50   A    
Cu1   O8    S    
C27   C28   A    
C52   H13   S    
C14   C15   A    
C35   H5    S    
C4    C9    A    
C13   C14   A    
Cu2   O5    S    
C62   H35   S    
C25   C33   A    
C38   H4    S    
