data_mof_unit_55902.cif
_audit_creation_date              2013-03-05T15:55:21-0500
_audit_creation_method            fapswitch 2.2
_symmetry_space_group_name_H-M    P1
_symmetry_Int_Tables_number       1
_space_group_crystal_system       triclinic
_cell_length_a                    27.687806
_cell_length_b                    10.638992
_cell_length_c                    9.914633
_cell_angle_alpha                 87.504056
_cell_angle_beta                  91.981335
_cell_angle_gamma                 93.988606
_cell_volume                      2909.26064476

loop_
_atom_site_label
_atom_site_type_symbol
_atom_site_description
_atom_site_fract_x
_atom_site_fract_y
_atom_site_fract_z
_atom_type_partial_charge
O1    O     O_R   0.500000 0.316780 0.614690 -0.660335
O2    O     O_R   0.500000 0.316750 0.385360 -0.616650
C1    C     C_R   0.501576 0.258335 0.503656 0.948287
O3    O     O_R   0.428760 0.500030 0.614650 -0.646719
O4    O     O_R   0.428750 0.500010 0.385320 -0.555308
C2    C     C_R   0.406292 0.502862 0.497947 0.939346
Zn1   Zn    Zn3+2 0.500000 0.500020 0.653130 0.972635
Zn2   Zn    Zn3+2 0.500000 0.499980 0.346870 1.021794
O5    O     O_R   0.500000 0.683250 0.614640 -0.627295
O6    O     O_R   0.500000 0.683220 0.385310 -0.607118
O7    O     O_R   0.571250 0.499990 0.614680 -0.591873
O8    O     O_R   0.571240 0.499970 0.385350 -0.624391
C3    C     C_R   0.509518 0.738477 0.497794 0.889293
C4    C     C_R   0.593918 0.495758 0.502394 0.920212
C5    C     C_R   0.176409 0.477648 0.387500 0.529481
O9    O     O_2   0.198352 0.410568 0.297781 -0.524281
N1    N     N_R   0.203503 0.545694 0.480327 -0.358222
C6    C     C_R   0.182646 0.615896 0.571769 0.520539
C7    C     C_R   0.282580 0.589053 0.379344 -0.078510
C8    C     C_R   0.332233 0.576865 0.382929 -0.121408
C9    C     C_R   0.326306 0.464246 0.600948 -0.187423
C10   C     C_R   0.276636 0.476083 0.596951 -0.077656
C11   C     C_R   0.254736 0.538136 0.486037 0.283700
C12   C     C_R   0.103550 0.542802 0.483931 -0.056479
C13   C     C_R   0.125881 0.475018 0.387392 -0.032488
C14   C     C_R   0.097346 0.406456 0.293353 -0.118301
C15   C     C_R   0.132196 0.616065 0.575140 -0.023603
C16   C     C_R   0.354187 0.513448 0.493204 -0.025101
H1    H     H_    0.342821 0.415521 0.687059 0.170685
H2    H     H_    0.255009 0.436117 0.679218 0.160188
H3    H     H_    0.113575 0.358553 0.213897 0.201266
C17   C     C_R   0.646946 0.492669 0.505785 -0.142230
C18   C     C_R   0.973868 0.434808 0.425175 -0.049548
C19   C     C_R   0.979130 0.615056 0.573191 0.013044
C20   C     C_R   0.950966 0.523434 0.499185 0.058319
C21   C     C_R   0.946005 0.328005 0.376910 0.211163
C22   C     C_R   0.895090 0.324234 0.377051 -0.135819
C23   C     C_R   0.871741 0.423504 0.433523 -0.109585
C24   C     C_R   0.899846 0.520186 0.499917 -0.069268
C25   C     C_R   0.876882 0.613893 0.567075 -0.134636
C26   C     C_R   0.826047 0.605315 0.570173 0.559090
N2    N     N_R   0.799718 0.515637 0.499824 -0.355748
C27   C     C_R   0.820920 0.427994 0.429790 0.564787
C28   C     C_R   0.724879 0.471312 0.621327 -0.117394
C29   C     C_R   0.674339 0.460412 0.624699 -0.051377
C30   C     C_R   0.671173 0.530887 0.386791 -0.198581
C31   C     C_R   0.721291 0.540241 0.385486 -0.064897
C32   C     C_R   0.748123 0.510681 0.502582 0.259458
O10   O     O_2   0.792458 0.346082 0.357050 -0.521104
C33   C     C_R   0.024314 0.454173 0.405699 0.063560
C34   C     C_R   0.052552 0.536565 0.489739 0.084770
C35   C     C_R   0.030182 0.612638 0.579246 0.074301
C36   C     C_R   0.047257 0.397697 0.301227 -0.122117
H4    H     H_    0.746554 0.445974 0.710263 0.179344
H5    H     H_    0.026784 0.348648 0.222600 0.193658
O11   O     O_2   0.210725 0.684781 0.659192 -0.536517
C37   C     C_R   0.109926 0.685444 0.669006 -0.111970
H6    H     H_    0.353527 0.618115 0.300544 0.183591
H7    H     H_    0.265663 0.637623 0.293864 0.157807
H8    H     H_    0.131192 0.740910 0.741707 0.199309
C38   C     C_R   0.955594 0.708760 0.635656 -0.242229
C39   C     C_R   0.905447 0.710957 0.631044 0.339584
O12   O     O_2   0.802664 0.684361 0.643695 -0.466884
C40   C     C_R   0.059747 0.684393 0.670798 -0.190254
H9    H     H_    0.975646 0.787088 0.681932 0.187321
H10   H     H_    0.651406 0.556886 0.294737 0.199971
H11   H     H_    0.739404 0.570587 0.293389 0.175446
H12   H     H_    0.044975 0.737299 0.748183 0.162852
H13   H     H_    0.503949 0.123520 0.289098 0.174311
C41   C     C_R   0.529984 0.101084 0.759727 -0.123962
H14   H     H_    0.517192 0.188249 0.787248 0.185778
C42   C     C_R   0.552285 0.033656 0.865262 -0.155554
H15   H     H_    0.555354 0.071270 0.965199 0.165914
C43   C     C_R   0.574431 0.924440 0.840017 -0.178769
H16   H     H_    0.596433 0.881754 0.919557 0.203525
C44   C     C_R   0.570946 0.876262 0.710661 -0.035340
C45   C     C_R   0.540366 0.932571 0.610797 0.045326
C46   C     C_R   0.525732 0.054900 0.627495 0.094947
C47   C     C_R   0.509725 0.124238 0.508996 -0.126754
C48   C     C_R   0.509818 0.069353 0.382594 -0.181801
C49   C     C_R   0.518149 0.944610 0.372665 0.020275
C50   C     C_R   0.525506 0.872194 0.491548 -0.153305
H17   H     H_    0.550898 0.653651 0.122439 0.195607
C51   C     C_R   0.442368 0.303190 0.135233 0.254243
C52   C     C_R   0.428017 0.194321 0.061582 -0.127443
C53   C     C_R   0.427493 0.204934 0.921768 -0.288310
H18   H     H_    0.411075 0.130193 0.861026 0.223725
C54   C     C_R   0.445183 0.314835 0.857289 -0.204705
H19   H     H_    0.438073 0.322051 0.751347 0.224979
C55   C     C_R   0.472725 0.407304 0.927531 0.147831
C56   C     C_R   0.472197 0.404861 0.072139 0.050270
N3    N     N_R   0.499540 0.498800 0.142780 -0.122067
C57   C     C_R   0.527494 0.585772 0.070121 -0.090774
H20   H     H_    0.548953 0.657736 0.873205 0.165427
C58   C     C_R   0.527002 0.586666 0.927423 -0.066743
N4    N     N_R   0.499520 0.498720 0.857170 -0.118600
N5    N     N_R   0.884764 0.816687 0.686321 0.256968
O13   O     O_R   0.861307 0.893458 0.606809 -0.282474
O14   O     O_R   0.898162 0.851266 0.806994 -0.319092
C59   C     C_2   0.607533 0.789426 0.672809 0.901952
O15   O     O_2   0.627358 0.723280 0.759017 -0.611645
O16   O     O_R   0.622705 0.792644 0.539601 -0.789207
H21   H     H_    0.652718 0.745168 0.529744 0.357035
C60   C     C_2   0.524996 0.897420 0.237620 0.920999
O17   O     O_2   0.564279 0.860661 0.211244 -0.637338
O18   O     O_R   0.487549 0.898994 0.139671 -0.801263
H22   H     H_    0.496638 0.862950 0.051810 0.334602
N6    N     N_R   0.407433 0.331784 0.229150 0.232418
O19   O     O_R   0.401353 0.262661 0.339634 -0.380638
O20   O     O_R   0.372468 0.399846 0.184969 -0.388703
C61   C     C_2   0.403386 0.078193 0.124479 1.061458
O21   O     O_2   0.412069 0.046996 0.242319 -0.579465
O22   O     O_R   0.371166 0.001400 0.047028 -0.783966
H23   H     H_    0.357334 0.924469 0.100312 0.354910
C62   C     C_2   0.652356 0.411067 0.752210 0.990234
O23   O     O_2   0.668621 0.449444 0.860267 -0.578535
O24   O     O_R   0.614604 0.316949 0.749826 -0.793076
H24   H     H_    0.602984 0.291802 0.843652 0.335965
C63   C     C_2   0.867275 0.208937 0.331372 1.105152
O25   O     O_2   0.864198 0.187028 0.211238 -0.531766
O26   O     O_R   0.843804 0.127182 0.426024 -0.708160
H25   H     H_    0.825461 0.052760 0.382743 0.375785
N7    N     N_R   0.969068 0.214465 0.351419 0.190352
O27   O     O_R   0.998161 0.166667 0.442759 -0.343350
O28   O     O_R   0.962012 0.160066 0.236681 -0.338664

loop_
_geom_bond_atom_site_label_1
_geom_bond_atom_site_label_2
_geom_bond_distance
_ccdc_geom_bond_type
C28   C32   1.395589 A    
C12   C13   1.407678 A    
C41   C46   1.418270 A    
C26   N2    1.361699 A    
C20   C24   1.413674 A    
C58   N4    1.364066 A    
C12   C15   1.407193 A    
C1    C47   1.458230 S    
C60   O18   1.396344 S    
C49   C50   1.396595 A    
N7    O27   1.301527 A    
C61   O22   1.399600 S    
C45   C46   1.407889 A    
Zn1   O7    2.022176 S    
Zn1   N4    2.022923 S    
N1    C11   1.425434 S    
C43   C44   1.399535 A    
C40   H12   1.078927 S    
C21   C22   1.407548 A    
C30   H10   1.083317 S    
C23   C24   1.417416 A    
C48   C49   1.371034 A    
O7    C4    1.300742 A    
C53   C54   1.375711 A    
N7    O28   1.301335 A    
O18   H22   1.013355 S    
C5    O9    1.350078 S    
H17   C57   1.074602 S    
C18   C21   1.419559 A    
C25   C39   1.415242 A    
N6    O19   1.301711 A    
C5    N1    1.366975 A    
C19   C20   1.419028 A    
C17   C29   1.422042 A    
O5    C3    1.302709 A    
N3    C57   1.361999 A    
C51   N6    1.422363 S    
C2    C16   1.453848 S    
C7    C8    1.388920 A    
C62   O24   1.396632 S    
C41   H14   1.065023 S    
Zn2   N3    2.023657 S    
C51   C56   1.447741 A    
C38   C39   1.389416 A    
C6    O11   1.349920 S    
C12   C34   1.412016 A    
C36   H5    1.079382 S    
C14   H3    1.083308 S    
C57   C58   1.414019 A    
C9    C10   1.388749 A    
H20   C58   1.073935 S    
O3    Zn1   1.996054 S    
C31   H11   1.083039 S    
C60   O17   1.221510 D    
N5    O14   1.301169 A    
N5    O13   1.301033 A    
C63   O26   1.397138 S    
C33   C36   1.410759 A    
C43   H16   1.083188 S    
C34   C35   1.412972 A    
C21   N7    1.440779 S    
C51   C52   1.422059 A    
C42   C43   1.387029 A    
C15   C37   1.397841 A    
C4    C17   1.470085 S    
C56   N3    1.407673 A    
C53   H18   1.083563 S    
C27   O10   1.349254 S    
C37   H8    1.083440 S    
C8    C16   1.402479 A    
C7    H7    1.082940 S    
C18   C33   1.416269 A    
C52   C53   1.385537 A    
C9    H1    1.083578 S    
C3    C50   1.459530 S    
C19   C38   1.405028 A    
O1    C1    1.291173 A    
C7    C11   1.398264 A    
C22   C23   1.420688 A    
C28   H4    1.084231 S    
C39   N5    1.434793 S    
C29   C62   1.481647 S    
C31   C32   1.392743 A    
C22   C63   1.481792 S    
Zn2   O8    1.996050 S    
C59   O16   1.397971 S    
N1    C6    1.366904 A    
C33   C34   1.413198 A    
N2    C32   1.427001 S    
C44   C45   1.420207 A    
O26   H25   1.013686 S    
O3    C2    1.294793 A    
C25   C26   1.405432 A    
C9    C16   1.401136 A    
O8    C4    1.300731 A    
C35   C40   1.413803 A    
N2    C27   1.362692 A    
C26   O12   1.348882 S    
C8    H6    1.083285 S    
C14   C36   1.388162 A    
C24   C25   1.420149 A    
C28   C29   1.397492 A    
C37   C40   1.389352 A    
O22   H23   1.014083 S    
Zn1   O5    1.970008 S    
C30   C31   1.384765 A    
C10   H2    1.082970 S    
C61   O21   1.221017 D    
O1    Zn1   2.002616 S    
C17   C30   1.407887 A    
O2    Zn2   1.970006 S    
C6    C15   1.398519 A    
C54   C55   1.397472 A    
C42   H15   1.083098 S    
C52   C61   1.491798 S    
O6    C3    1.293847 A    
O4    Zn2   2.022178 S    
C63   O25   1.222572 D    
C55   N4    1.363553 A    
C44   C59   1.485677 S    
C19   C35   1.414704 A    
O2    C1    1.304030 A    
C13   C14   1.397754 A    
C23   C27   1.410398 A    
O24   H24   1.013658 S    
C46   C47   1.433508 A    
C55   C56   1.433404 A    
O4    C2    1.299257 A    
C45   C50   1.405530 A    
C59   O15   1.223099 D    
C18   C20   1.416035 A    
N6    O20   1.301531 A    
O16   H21   1.011695 S    
C5    C13   1.397287 A    
C47   C48   1.405602 A    
C38   H9    1.079127 S    
C54   H19   1.062405 S    
Zn2   O6    2.002616 S    
C10   C11   1.399701 A    
H13   C48   1.083463 S    
C41   C42   1.393661 A    
C62   O23   1.223292 D    
C49   C60   1.473108 S    
