data_mof_unit_25287.cif
_audit_creation_date              2012-12-10T17:43:35-0500
_audit_creation_method            fapswitch 2.2
_symmetry_space_group_name_H-M    P1
_symmetry_Int_Tables_number       1
_space_group_crystal_system       triclinic
_cell_length_a                    14.952238
_cell_length_b                    10.635937
_cell_length_c                    9.926579
_cell_angle_alpha                 89.78261
_cell_angle_beta                  89.25281
_cell_angle_gamma                 91.304704
_cell_volume                      1578.07770818

loop_
_atom_site_label
_atom_site_type_symbol
_atom_type_description
_atom_site_fract_x
_atom_site_fract_y
_atom_site_fract_z
_atom_type_partial_charge
C1    C     C_R   0.502597 0.260657 0.500270 0.852562
C2    C     C_R   0.911438 0.612535 0.429052 0.096516
C3    C     C_R   0.947694 0.345993 0.668467 -0.208622
C4    C     C_R   0.040417 0.343105 0.669968 -0.217836
C5    C     C_R   0.090700 0.427608 0.589975 0.127844
C6    C     C_R   0.047942 0.517862 0.509743 0.067149
C7    C     C_R   0.098769 0.603247 0.429337 0.124614
C8    C     C_R   0.056921 0.695768 0.354982 -0.223229
C9    C     C_R   0.964406 0.701873 0.356372 -0.233793
C10   C     C_R   0.183245 0.422945 0.587676 -0.270583
C11   C     C_R   0.232171 0.504787 0.503564 -0.050653
C12   C     C_R   0.327203 0.499613 0.500928 0.873542
C13   C     C_R   0.190992 0.594751 0.425020 -0.255566
C14   C     C_R   0.647577 0.134270 0.634503 -0.179425
C15   C     C_R   0.716059 0.070566 0.697592 -0.135203
C16   C     C_R   0.717157 0.939877 0.694793 -0.136121
C17   C     C_R   0.649561 0.872555 0.629438 -0.208741
C18   C     C_R   0.578832 0.935819 0.566639 0.095612
C19   C     C_R   0.578112 0.067569 0.568472 0.104760
C20   C     C_R   0.508722 0.128328 0.500488 -0.089696
C21   C     C_R   0.443656 0.062479 0.428817 -0.219627
C22   C     C_R   0.443917 0.934058 0.428049 -0.200709
C23   C     C_R   0.502791 0.739325 0.499636 0.855591
C24   C     C_R   0.509441 0.871696 0.498548 -0.099305
C25   C     C_R   0.386135 0.331129 0.142333 -0.144864
C26   C     C_R   0.330128 0.248136 0.073396 -0.193145
C27   C     C_R   0.329858 0.248779 0.933966 -0.193260
C28   C     C_R   0.385752 0.332219 0.862653 -0.146696
C29   C     C_R   0.444445 0.416246 0.929006 0.167704
C30   C     C_R   0.444673 0.415889 0.073537 0.173297
C31   C     C_R   0.549650 0.583941 0.070041 -0.134546
C32   C     C_R   0.550815 0.582868 0.927114 -0.101875
C33   C     C_R   0.673114 0.506017 0.499283 0.853744
C34   C     C_R   0.816958 0.610824 0.424140 0.027518
C35   C     C_R   0.769280 0.517150 0.499584 -0.090439
C36   C     C_R   0.812914 0.433262 0.582814 -0.284205
C37   C     C_R   0.904887 0.433754 0.587422 0.118559
C38   C     C_R   0.954600 0.521637 0.508792 0.024896
H1    H     H_    0.650241 0.235575 0.636724 0.151818
H2    H     H_    0.768850 0.122818 0.747678 0.125552
H3    H     H_    0.770881 0.890513 0.742455 0.136101
H4    H     H_    0.654312 0.771344 0.626947 0.141842
H5    H     H_    0.391640 0.882891 0.375090 0.150326
H6    H     H_    0.587850 0.654544 0.122801 0.162755
H7    H     H_    0.380281 0.327486 0.249121 0.197700
H8    H     H_    0.285839 0.184007 0.128730 0.143292
H9    H     H_    0.285342 0.185218 0.880557 0.143585
H10   H     H_    0.380003 0.329529 0.756010 0.198848
H11   H     H_    0.774800 0.365377 0.643057 0.146265
H12   H     H_    0.592372 0.650879 0.872531 0.148849
H13   H     H_    0.909417 0.278854 0.729596 0.139208
H14   H     H_    0.072732 0.274051 0.732189 0.144831
H15   H     H_    0.217259 0.354348 0.648579 0.133954
H16   H     H_    0.231042 0.659218 0.362796 0.145504
H17   H     H_    0.095791 0.763431 0.295305 0.146388
H18   H     H_    0.935904 0.776219 0.297654 0.162816
H19   H     H_    0.391332 0.110725 0.376070 0.138655
N1    N     N_R   0.499150 0.498800 0.142780 -0.122252
N2    N     N_R   0.499120 0.498720 0.857170 -0.123286
O1    O     O_R   0.500000 0.316780 0.614690 -0.644080
O2    O     O_R   0.499990 0.316750 0.385360 -0.628550
O3    O     O_R   0.367850 0.499980 0.614680 -0.629581
O4    O     O_R   0.367840 0.499960 0.385350 -0.638432
O5    O     O_R   0.500010 0.683250 0.614640 -0.613563
O6    O     O_R   0.500000 0.683220 0.385310 -0.621481
O7    O     O_R   0.632160 0.500040 0.614650 -0.630486
O8    O     O_R   0.632150 0.500020 0.385320 -0.610984
Zn1   Zn    Zn3+2 0.500010 0.500020 0.653130 0.932682
Zn2   Zn    Zn3+2 0.499990 0.499980 0.346870 0.934336
C39   C     C_3   0.768381 0.710469 0.344015 -0.409218
C40   C     C_3   0.774491 0.685311 0.191748 -0.321133
C41   C     C_3   0.746928 0.800126 0.110598 -0.910952
H20   H     H_    0.680635 0.833386 0.145115 0.268440
H21   H     H_    0.797123 0.877745 0.122580 0.263072
H22   H     H_    0.743209 0.775502 0.002157 0.246749
H23   H     H_    0.843295 0.660808 0.159886 0.224033
H24   H     H_    0.731065 0.602941 0.167038 0.232054
H25   H     H_    0.696917 0.716210 0.373854 0.198308
H26   H     H_    0.796635 0.804988 0.368743 0.200267

loop_
_geom_bond_atom_site_label_1
_geom_bond_atom_site_label_2
_ccdc_geom_bond_type
C8    C9    A    
O7    Zn1   S    
C39   H25   S    
C35   C36   A    
C7    C8    A    
C26   C27   A    
C29   C30   A    
C4    H14   S    
C18   C24   A    
O5    Zn1   S    
C31   N1    A    
C36   C37   A    
C34   C35   A    
C5    C6    A    
C27   H9    S    
C15   C16   A    
C18   C19   A    
C10   H15   S    
C17   H4    S    
C14   H1    S    
C28   H10   S    
C29   N2    A    
C16   C17   A    
C23   C24   S    
C6    C38   A    
C39   C40   S    
C34   C39   S    
C2    C34   A    
C21   C22   A    
C41   H22   S    
C8    H17   S    
C33   O7    A    
C31   H6    S    
O4    Zn2   S    
C41   H21   S    
C1    O1    A    
C12   O4    A    
C3    H13   S    
C4    C5    A    
C25   C26   A    
O8    Zn2   S    
C21   H19   S    
C37   C38   A    
N2    Zn1   S    
C12   O3    A    
C2    C38   A    
C31   C32   A    
C17   C18   A    
C9    H18   S    
C32   H12   S    
C23   O5    A    
C22   C24   A    
C3    C4    A    
C25   H7    S    
C40   H24   S    
C33   O8    A    
C13   H16   S    
O2    Zn2   S    
C25   C30   A    
C28   C29   A    
C1    C20   S    
C39   H26   S    
C14   C19   A    
C41   H20   S    
C1    O2    A    
C11   C12   S    
N1    Zn2   S    
C6    C7    A    
O3    Zn1   S    
C23   O6    A    
C19   C20   A    
C5    C10   A    
C11   C13   A    
C40   H23   S    
O6    Zn2   S    
C30   N1    A    
C33   C35   S    
C15   H2    S    
C10   C11   A    
C26   H8    S    
C7    C13   A    
C40   C41   S    
C20   C21   A    
O1    Zn1   S    
C27   C28   A    
C14   C15   A    
C32   N2    A    
C2    C9    A    
C16   H3    S    
C22   H5    S    
C36   H11   S    
C3    C37   A    
