data_mof_unit_34284.cif
_audit_creation_date              2012-12-10T16:32:40-0500
_audit_creation_method            fapswitch 2.2
_symmetry_space_group_name_H-M    P1
_symmetry_Int_Tables_number       1
_space_group_crystal_system       triclinic
_cell_length_a                    16.872508
_cell_length_b                    16.865471
_cell_length_c                    16.87001
_cell_angle_alpha                 64.558157
_cell_angle_beta                  64.52938
_cell_angle_gamma                 64.590495
_cell_volume                      3733.77781577

loop_
_atom_site_label
_atom_site_type_symbol
_atom_type_description
_atom_site_fract_x
_atom_site_fract_y
_atom_site_fract_z
_atom_type_partial_charge
C1    C     C_R   0.577912 0.037069 0.605349 -0.143117
C2    C     C_R   0.821769 0.557798 0.047711 0.898314
C3    C     C_R   0.265318 0.702678 0.804365 -0.097194
C4    C     C_R   0.357535 0.656673 0.768759 -0.115230
C5    C     C_R   0.413090 0.603893 0.826692 -0.200049
C6    C     C_R   0.291054 0.997198 0.611029 0.167499
C7    C     C_R   0.265258 0.930723 0.695594 -0.035533
C8    C     C_R   0.172506 0.938419 0.743623 -0.181968
C9    C     C_R   0.104844 0.010748 0.707095 -0.131144
C10   C     C_R   0.129866 0.076444 0.623342 -0.060557
C11   C     C_R   0.222405 0.070371 0.575317 -0.176092
C12   C     C_R   0.621668 0.081723 0.403998 0.152654
C13   C     C_R   0.429619 0.978025 0.177740 0.983768
C14   C     C_R   0.713723 0.047505 0.355054 -0.113535
C15   C     C_R   0.769538 0.105466 0.303561 -0.151225
C16   C     C_R   0.733851 0.198140 0.299904 -0.096436
C17   C     C_R   0.641557 0.233649 0.345836 -0.142693
C18   C     C_R   0.585687 0.175856 0.397649 -0.178198
C19   C     C_R   0.609801 0.291885 0.996002 0.135925
C20   C     C_R   0.694281 0.266789 0.929181 -0.069840
C21   C     C_R   0.742624 0.174222 0.936296 -0.135452
C22   C     C_R   0.706704 0.106034 0.008618 -0.124972
C23   C     C_R   0.623207 0.130363 0.074859 -0.072119
C24   C     C_R   0.557874 0.047624 0.821756 0.916892
C25   C     C_R   0.574696 0.222723 0.069149 -0.140923
C26   C     C_R   0.403413 0.621044 0.084443 0.168072
C27   C     C_R   0.354509 0.713159 0.050426 -0.123078
C28   C     C_R   0.303179 0.768804 0.108513 -0.148729
C29   C     C_R   0.299622 0.732887 0.201162 -0.097127
C30   C     C_R   0.345682 0.640592 0.236451 -0.152213
C31   C     C_R   0.397373 0.584906 0.178503 -0.157345
C32   C     C_R   0.994686 0.612382 0.292088 0.183793
C33   C     C_R   0.927778 0.696914 0.267533 -0.034195
C34   C     C_R   0.934705 0.745891 0.175077 -0.184527
C35   C     C_R   0.570235 0.822221 0.022181 0.986578
C36   C     C_R   0.006527 0.710297 0.106471 -0.116632
C37   C     C_R   0.072619 0.626584 0.130232 -0.074314
C38   C     C_R   0.067441 0.577669 0.222498 -0.188146
C39   C     C_R   0.079069 0.403826 0.622635 0.138247
C40   C     C_R   0.044906 0.354648 0.714673 -0.097979
C41   C     C_R   0.103174 0.302061 0.770019 -0.162547
C42   C     C_R   0.195987 0.297933 0.733977 -0.091900
C43   C     C_R   0.231420 0.344080 0.641700 -0.131304
C44   C     C_R   0.173415 0.396685 0.586222 -0.203328
C45   C     C_R   0.442172 0.178270 0.952368 0.915679
C46   C     C_R   0.020974 0.570724 0.822562 0.942357
C47   C     C_R   0.952245 0.442157 0.178260 0.883943
C48   C     C_R   0.822301 0.022002 0.570321 0.991293
C49   C     C_R   0.178260 0.952425 0.442077 0.890699
C50   C     C_R   0.524111 0.021107 0.562298 -0.020164
C51   C     C_R   0.393436 0.964299 0.422205 -0.062413
C52   C     C_R   0.437069 0.979493 0.476024 0.020288
C53   C     C_R   0.020349 0.562348 0.524673 0.024006
C54   C     C_R   0.977424 0.476882 0.437825 0.011166
C55   C     C_R   0.561409 0.523514 0.022988 -0.033537
C56   C     C_R   0.475117 0.438028 0.979533 0.021816
C57   C     C_R   0.563325 0.020439 0.469387 -0.041919
C58   C     C_R   0.389347 0.994277 0.564391 -0.031823
C59   C     C_R   0.017633 0.470043 0.564713 0.044699
C60   C     C_R   0.992759 0.565032 0.390075 -0.031846
C61   C     C_R   0.468328 0.562748 0.023016 -0.057921
C62   C     C_R   0.037998 0.604619 0.577892 -0.064234
C63   C     C_R   0.563301 0.389837 0.994389 -0.095351
C64   C     C_R   0.529936 0.980334 0.436313 -0.066125
C65   C     C_R   0.436059 0.005790 0.610662 -0.085620
C66   C     C_R   0.434848 0.530231 0.982470 0.046904
C67   C     C_R   0.609560 0.435719 0.007068 -0.066136
C68   C     C_R   0.977436 0.437414 0.530947 -0.084201
C69   C     C_R   0.005311 0.610778 0.436571 -0.112914
C70   C     C_R   0.534741 0.085471 0.671776 0.417051
C71   C     C_R   0.418005 0.997739 0.323433 0.367062
C72   C     C_R   0.086203 0.671247 0.534853 0.384517
C73   C     C_R   0.962818 0.422813 0.393958 -0.062736
C74   C     C_R   0.996538 0.324042 0.418537 0.362843
C75   C     C_R   0.671731 0.534414 0.086105 0.419731
C76   C     C_R   0.324067 0.418463 0.998053 0.406554
C77   C     C_R   0.328093 0.915171 0.465675 0.429453
C78   C     C_R   0.676588 0.003206 0.581019 0.403390
C79   C     C_R   0.464973 0.328880 0.913976 0.379483
C80   C     C_R   0.580566 0.676112 0.004206 0.399417
C81   C     C_R   0.914225 0.465967 0.328274 0.428274
C82   C     C_R   0.002008 0.581680 0.675793 0.406127
C83   C     C_R   0.587084 0.078739 0.721871 -0.076822
C84   C     C_R   0.604877 0.577404 0.038321 -0.144586
C85   C     C_R   0.391350 0.965366 0.276115 -0.096183
C86   C     C_R   0.078561 0.721884 0.587244 -0.089694
C87   C     C_R   0.964859 0.276339 0.391574 -0.098252
C88   C     C_R   0.721928 0.587009 0.078799 -0.088884
C89   C     C_R   0.275419 0.390273 0.968087 -0.195525
C90   C     C_R   0.278247 0.920558 0.413243 -0.198801
C91   C     C_R   0.724017 0.034774 0.608359 -0.104485
C92   C     C_R   0.412593 0.278153 0.921752 -0.076248
C93   C     C_R   0.608180 0.723821 0.035193 -0.096246
C94   C     C_R   0.920260 0.413291 0.278289 -0.198057
C95   C     C_R   0.421941 0.395595 0.962035 -0.068803
C96   C     C_R   0.032045 0.609765 0.724481 -0.186884
C97   C     C_R   0.678024 0.072326 0.679697 -0.416537
C98   C     C_R   0.320569 0.926931 0.322287 -0.368239
C99   C     C_R   0.070469 0.680474 0.678555 -0.377656
C100  C     C_R   0.926836 0.322275 0.320569 -0.368462
C101  C     C_R   0.679810 0.678003 0.072254 -0.428527
C102  C     C_R   0.321313 0.319468 0.929860 -0.368424
C103  C     C_R   0.389910 0.003221 0.708969 0.134803
C104  C     C_R   0.305544 0.069779 0.734850 -0.078000
C105  C     C_R   0.257540 0.061977 0.827637 -0.134060
C106  C     C_R   0.977859 0.177832 0.429686 0.988323
C107  C     C_R   0.293778 0.989287 0.895305 -0.124028
C108  C     C_R   0.377254 0.923424 0.870232 -0.071654
C109  C     C_R   0.425371 0.929741 0.777633 -0.141029
C110  C     C_R   0.595061 0.919279 0.377711 0.146370
C111  C     C_R   0.644252 0.953666 0.285757 -0.116415
C112  C     C_R   0.695904 0.895897 0.229802 -0.145475
C113  C     C_R   0.699422 0.803258 0.265211 -0.100417
C114  C     C_R   0.653186 0.767569 0.357392 -0.132485
C115  C     C_R   0.601217 0.825171 0.413416 -0.166796
C116  C     C_R   0.003695 0.708796 0.390229 0.132345
C117  C     C_R   0.047773 0.821776 0.557747 0.902042
C118  C     C_R   0.070540 0.734062 0.305785 -0.076084
C119  C     C_R   0.063368 0.826669 0.257445 -0.132698
C120  C     C_R   0.990906 0.894751 0.293291 -0.125460
C121  C     C_R   0.924643 0.870268 0.376744 -0.074969
C122  C     C_R   0.930456 0.777856 0.425302 -0.135144
C123  C     C_R   0.916131 0.378906 0.595748 0.164939
C124  C     C_R   0.950169 0.286865 0.644844 -0.122618
C125  C     C_R   0.892142 0.231119 0.696359 -0.149266
C126  C     C_R   0.799548 0.266844 0.699872 -0.096247
C127  C     C_R   0.764257 0.359045 0.653548 -0.156206
C128  C     C_R   0.177409 0.429294 0.979049 0.945548
C129  C     C_R   0.822138 0.414837 0.601687 -0.146621
C130  C     C_R   0.707550 0.388736 0.005267 0.153700
C131  C     C_R   0.732298 0.304065 0.071985 -0.072379
C132  C     C_R   0.824749 0.255105 0.064769 -0.140245
C133  C     C_R   0.893220 0.290749 0.992701 -0.109755
C134  C     C_R   0.869310 0.374527 0.926704 -0.081564
C135  C     C_R   0.777013 0.423528 0.932288 -0.156872
C136  C     C_R   0.376824 0.596493 0.921120 0.134114
C137  C     C_R   0.284850 0.645560 0.955437 -0.101467
C138  C     C_R   0.229426 0.698279 0.897254 -0.157289
H1    H     H_    0.715216 0.083268 0.711101 0.210680
H2    H     H_    0.405457 0.868584 0.922752 0.205623
H3    H     H_    0.489513 0.877303 0.759531 0.143688
H4    H     H_    0.640251 0.025672 0.256763 0.136685
H5    H     H_    0.732433 0.923113 0.158620 0.101483
H6    H     H_    0.738418 0.758991 0.221375 0.136687
H7    H     H_    0.656599 0.695575 0.385128 0.156087
H8    H     H_    0.563889 0.796907 0.484298 0.147557
H9    H     H_    0.127275 0.681821 0.277001 0.130109
H10   H     H_    0.113494 0.845942 0.191955 0.114305
H11   H     H_    0.986511 0.966391 0.256479 0.090513
H12   H     H_    0.289530 0.915394 0.285189 0.207897
H13   H     H_    0.869863 0.923075 0.404622 0.204979
H14   H     H_    0.877724 0.760204 0.489415 0.151344
H15   H     H_    0.022083 0.257669 0.640955 0.136184
H16   H     H_    0.919128 0.159874 0.732784 0.103217
H17   H     H_    0.755016 0.223238 0.738873 0.160017
H18   H     H_    0.692348 0.386996 0.656806 0.152479
H19   H     H_    0.794161 0.485742 0.564341 0.149085
H20   H     H_    0.679775 0.275523 0.128603 0.127828
H21   H     H_    0.843623 0.189290 0.114566 0.114808
H22   H     H_    0.964746 0.253479 0.988337 0.088758
H23   H     H_    0.081288 0.711929 0.715810 0.205870
H24   H     H_    0.922601 0.402065 0.872249 0.174949
H25   H     H_    0.759692 0.487814 0.879703 0.131248
H26   H     H_    0.255519 0.640773 0.027640 0.146953
H27   H     H_    0.158266 0.734859 0.924344 0.104062
H28   H     H_    0.221849 0.742192 0.759813 0.135795
H29   H     H_    0.385663 0.660893 0.696549 0.154436
H30   H     H_    0.484017 0.566811 0.798424 0.122561
H31   H     H_    0.317195 0.873756 0.724559 0.140921
H32   H     H_    0.152802 0.888634 0.809266 0.122706
H33   H     H_    0.033112 0.015409 0.743559 0.095780
H34   H     H_    0.915781 0.284977 0.289349 0.208630
H35   H     H_    0.077387 0.130972 0.594833 0.207175
H36   H     H_    0.240482 0.122628 0.510919 0.141934
H37   H     H_    0.742876 0.975491 0.359145 0.136295
H38   H     H_    0.840822 0.078363 0.267297 0.102169
H39   H     H_    0.777542 0.242591 0.261018 0.157942
H40   H     H_    0.613610 0.305640 0.342373 0.148428
H41   H     H_    0.514726 0.203974 0.434792 0.122521
H42   H     H_    0.723062 0.319113 0.872486 0.129899
H43   H     H_    0.808148 0.155062 0.886204 0.114395
H44   H     H_    0.743484 0.034438 0.012890 0.090656
H45   H     H_    0.711394 0.715367 0.082757 0.207489
H46   H     H_    0.595195 0.077512 0.129512 0.204900
H47   H     H_    0.510533 0.240260 0.121840 0.149475
H48   H     H_    0.358440 0.742498 0.978473 0.135322
H49   H     H_    0.266963 0.840121 0.081517 0.102939
H50   H     H_    0.260777 0.776414 0.245742 0.159334
H51   H     H_    0.342384 0.612490 0.308403 0.149366
H52   H     H_    0.434555 0.513936 0.206468 0.124793
H53   H     H_    0.871128 0.725183 0.320185 0.140432
H54   H     H_    0.884788 0.811602 0.156301 0.122976
H55   H     H_    0.010584 0.747521 0.034959 0.094439
H56   H     H_    0.284063 0.287936 0.919132 0.209932
H57   H     H_    0.126815 0.598961 0.076888 0.176993
H58   H     H_    0.120043 0.513401 0.239707 0.131201
H59   H     H_    0.972769 0.359220 0.744094 0.146264
H60   H     H_    0.076206 0.265390 0.841232 0.104187
H61   H     H_    0.240632 0.258533 0.777359 0.156936
H62   H     H_    0.303543 0.340143 0.613460 0.147858
H63   H     H_    0.201550 0.433882 0.515249 0.120626
H64   H     H_    0.431334 0.166769 0.626253 0.319638
H65   H     H_    0.449510 0.100661 0.312267 0.326268
H66   H     H_    0.167336 0.625999 0.431181 0.317121
H67   H     H_    0.276544 0.126773 0.682929 0.127467
H68   H     H_    0.098819 0.313536 0.450506 0.324968
H69   H     H_    0.626617 0.430725 0.167886 0.320228
H70   H     H_    0.220494 0.445959 0.102714 0.322490
H71   H     H_    0.273642 0.825455 0.571014 0.323106
H72   H     H_    0.687417 0.900351 0.549649 0.330829
H73   H     H_    0.568581 0.374220 0.832625 0.317624
H74   H     H_    0.548899 0.686519 0.901756 0.328777
H75   H     H_    0.824817 0.570995 0.273360 0.324241
H76   H     H_    0.897121 0.554577 0.779180 0.321092
H77   H     H_    0.192052 0.111856 0.847364 0.114148
H78   H     H_    0.257284 0.984434 0.967085 0.090383
O1    O     O_R   0.982940 0.138950 0.510160 -0.599101
O2    O     O_R   0.982940 0.510160 0.138950 -0.622367
O3    O     O_R   0.861050 0.017060 0.489840 -0.603545
O4    O     O_R   0.138950 0.982940 0.510160 -0.612782
O5    O     O_R   0.867700 0.025880 0.612340 -0.643315
O6    O     O_R   0.132300 0.974120 0.387660 -0.621320
O7    O     O_R   0.025880 0.612340 0.867700 -0.620044
O8    O     O_R   0.974120 0.387660 0.132300 -0.619813
O9    O     O_R   0.612340 0.867700 0.025880 -0.645096
O10   O     O_R   0.387660 0.132300 0.974120 -0.639798
O11   O     O_R   0.387660 0.974120 0.132300 -0.646435
O12   O     O_R   0.017060 0.861050 0.489840 -0.589921
O13   O     O_R   0.612340 0.025880 0.867700 -0.637922
O14   O     O_R   0.132300 0.387660 0.974120 -0.621650
O15   O     O_R   0.867700 0.612340 0.025880 -0.642855
O16   O     O_R   0.974120 0.132300 0.387660 -0.646514
O17   O     O_R   0.025880 0.867700 0.612340 -0.646142
O18   O     O_3   0.447160 0.145986 0.683676 -0.775735
O19   O     O_3   0.461074 0.065340 0.272276 -0.806520
O20   O     O_3   0.146762 0.683284 0.447220 -0.778061
O21   O     O_3   0.063878 0.273279 0.461816 -0.807124
O22   O     O_3   0.684100 0.446705 0.146455 -0.777395
O23   O     O_R   0.138950 0.510160 0.982940 -0.623509
O24   O     O_3   0.279393 0.460599 0.066406 -0.796985
O25   O     O_3   0.318714 0.857303 0.554563 -0.787836
O26   O     O_3   0.727498 0.935641 0.537955 -0.807211
O27   O     O_3   0.552578 0.316856 0.853406 -0.775123
O28   O     O_3   0.537358 0.726760 0.936800 -0.809469
O29   O     O_3   0.856252 0.554784 0.318662 -0.785622
O30   O     O_3   0.933582 0.539625 0.720453 -0.796723
O31   O     O_R   0.861050 0.489840 0.017060 -0.600920
O32   O     O_R   0.510160 0.982940 0.138950 -0.602344
O33   O     O_R   0.489840 0.017060 0.861050 -0.596869
O34   O     O_R   0.489840 0.861050 0.017060 -0.603706
O35   O     O_R   0.510160 0.138950 0.982940 -0.595407
O36   O     O_R   0.017060 0.489840 0.861050 -0.625726
Zn1   Zn    Zn3+2 0.004880 0.004880 0.583590 0.937144
Zn2   Zn    Zn3+2 0.995120 0.995120 0.416410 0.951765
Zn3   Zn    Zn3+2 0.004880 0.583590 0.004880 0.927929
Zn4   Zn    Zn3+2 0.995120 0.416410 0.995120 0.943355
Zn5   Zn    Zn3+2 0.583590 0.004880 0.004880 0.950201
Zn6   Zn    Zn3+2 0.416410 0.995120 0.995120 0.949797

loop_
_geom_bond_atom_site_label_1
_geom_bond_atom_site_label_2
_ccdc_geom_bond_type
C17   H40   S    
C56   C95   S    
C47   O8    A    
C117  O12   A    
C126  C127  A    
C105  H77   S    
O3    Zn2   S    
C49   O6    A    
C5    C136  A    
C41   H60   S    
C41   C42   A    
C6    C58   S    
C83   C97   A    
C130  C135  A    
C49   C90   S    
C80   C84   A    
C53   C69   A    
O10   Zn6   S    
C129  H19   S    
C114  C115  A    
C53   C59   A    
C7    C8    A    
C69   C116  S    
C54   C60   A    
C23   C25   A    
C125  H16   S    
C128  O23   A    
C21   H43   S    
C105  C107  A    
C115  H8    S    
C28   C29   A    
C26   C27   A    
C78   O26   S    
C116  C122  A    
C15   H38   S    
C138  H27   S    
C77   O25   S    
C37   H57   S    
C112  H5    S    
C118  H9    S    
C24   C83   S    
C13   O32   A    
C33   H53   S    
C113  C114  A    
O14   Zn4   S    
C32   C38   A    
C76   C95   A    
C98   H12   S    
C30   C31   A    
C89   C102  A    
C75   C84   A    
C30   H51   S    
C100  H34   S    
C40   H59   S    
C15   C16   A    
C96   C99   A    
C108  C109  A    
C17   C18   A    
C70   O18   S    
C5    H30   S    
C45   C92   S    
C36   H55   S    
C112  C113  A    
C85   C98   A    
C103  C104  A    
C111  H4    S    
C110  C111  A    
C61   C66   A    
C107  H78   S    
C111  C112  A    
C19   C63   S    
C16   C17   A    
C48   C91   S    
C107  C108  A    
C2    C88   S    
C43   H62   S    
C71   O19   S    
C74   C87   A    
C86   C117  S    
O15   Zn3   S    
C9    C10   A    
O33   Zn6   S    
H69   O22   S    
C92   C102  A    
C76   C89   A    
O36   Zn4   S    
C126  H17   S    
C10   H35   S    
C35   C93   S    
C62   C82   A    
C26   C31   A    
C99   H23   S    
C21   C22   A    
C123  C129  A    
C1    C78   A    
O11   Zn6   S    
H70   O24   S    
C51   C71   A    
C127  C129  A    
O35   Zn5   S    
C102  H56   S    
C68   C123  S    
C73   C81   A    
C104  C105  A    
C8    H32   S    
C88   C101  A    
O5    Zn1   S    
O6    Zn2   S    
C73   C74   A    
C47   O2    A    
C63   C67   A    
C77   C90   A    
C132  H21   S    
C82   C96   A    
C82   O30   S    
C49   O4    A    
C51   C52   S    
C81   O29   S    
C123  C124  A    
O16   Zn2   S    
H72   O26   S    
C20   H42   S    
C24   O13   A    
C52   C64   A    
C28   H49   S    
H71   O25   S    
C6    C11   A    
C108  H2    S    
C8    C9    A    
C134  H24   S    
C119  H10   S    
C35   O34   A    
C71   C85   A    
C46   O7    A    
C72   O20   S    
C27   H48   S    
C122  H14   S    
C79   C95   A    
C37   C38   A    
C131  H20   S    
C2    O31   A    
C51   C77   A    
H66   O20   S    
H65   O19   S    
C29   C30   A    
C70   C83   A    
H73   O27   S    
C59   C68   A    
H64   O18   S    
C54   C73   S    
C25   H47   S    
C53   C62   S    
C58   C65   A    
C64   C110  S    
C31   H52   S    
C94   C100  A    
O2    Zn3   S    
C39   C59   S    
O4    Zn1   S    
C133  C134  A    
C12   C18   A    
C118  C119  A    
C120  H11   S    
C56   C63   A    
C62   C72   A    
H76   O30   S    
C3    C138  A    
O1    Zn1   S    
C104  H67   S    
C91   C97   A    
H75   O29   S    
C86   C99   A    
C46   O36   A    
C79   C92   A    
C39   C44   A    
C52   C58   A    
C2    O15   A    
C116  C118  A    
O12   Zn2   S    
C12   C57   S    
C89   C128  S    
C40   C41   A    
C46   C96   S    
C12   C14   A    
C18   H41   S    
C79   O27   S    
C7    H31   S    
C43   C44   A    
O23   Zn3   S    
C125  C126  A    
C66   C136  S    
C9    H33   S    
C67   C130  S    
C42   C43   A    
C32   C60   S    
C93   C101  A    
C3    C4    A    
C39   C40   A    
C97   H1    S    
C120  C121  A    
O8    Zn4   S    
C57   C64   A    
C87   C100  A    
C1    C50   S    
C113  H6    S    
C14   H37   S    
C36   C37   A    
C11   H36   S    
C128  O14   A    
C35   O9    A    
C50   C57   A    
C135  H25   S    
C26   C61   S    
C22   C23   A    
C114  H7    S    
C90   C98   A    
C136  C137  A    
C101  H45   S    
C127  H18   S    
C13   O11   A    
C137  H26   S    
C55   C67   A    
C119  C120  A    
C121  C122  A    
C6    C7    A    
O17   Zn1   S    
C78   C91   A    
C24   O33   A    
C137  C138  A    
C134  C135  A    
C1    C70   A    
C4    H29   S    
C76   O24   S    
C103  C109  A    
C133  H22   S    
C32   C33   A    
C19   C20   A    
C34   H54   S    
C130  C131  A    
C55   C84   S    
O9    Zn5   S    
C23   H46   S    
C22   H44   S    
O31   Zn4   S    
O7    Zn3   S    
C81   C94   A    
C117  O17   A    
C44   H63   S    
C87   C106  S    
C60   C69   A    
C74   O21   S    
C56   C66   A    
C55   C61   A    
C47   C94   S    
C33   C34   A    
C132  C133  A    
H68   O21   S    
C34   C36   A    
C45   O10   A    
C38   H58   S    
C16   H39   S    
C19   C25   A    
C50   C65   A    
C10   C11   A    
O32   Zn5   S    
C80   O28   S    
C75   C88   A    
C4    C5    A    
C106  O1    A    
C54   C68   A    
C20   C21   A    
H74   O28   S    
C48   O5    A    
C13   C85   S    
C27   C28   A    
C106  O16   A    
C29   H50   S    
C65   C103  S    
C14   C15   A    
C75   O22   S    
C109  H3    S    
C72   C86   A    
C42   H61   S    
C80   C93   A    
C124  H15   S    
C121  H13   S    
C110  C115  A    
O34   Zn6   S    
C45   O35   A    
C131  C132  A    
C3    H28   S    
C124  C125  A    
C48   O3    A    
O13   Zn5   S    
