data_mof_unit_29809.cif
_audit_creation_date              2012-12-10T17:01:12-0500
_audit_creation_method            fapswitch 2.2
_symmetry_space_group_name_H-M    P1
_symmetry_Int_Tables_number       1
_space_group_crystal_system       triclinic
_cell_length_a                    15.311346
_cell_length_b                    15.805358
_cell_length_c                    10.024466
_cell_angle_alpha                 89.782679
_cell_angle_beta                  59.928439
_cell_angle_gamma                 89.978989
_cell_volume                      2099.3853423

loop_
_atom_site_label
_atom_site_type_symbol
_atom_type_description
_atom_site_fract_x
_atom_site_fract_y
_atom_site_fract_z
_atom_type_partial_charge
C1    C     C_R   0.372473 0.118124 0.561304 0.844645
C2    C     C_R   0.629690 0.883850 0.438130 0.851065
C3    C     C_R   0.627132 0.118582 0.438597 0.846275
C4    C     C_R   0.369927 0.883970 0.562234 0.849576
C5    C     C_R   0.872477 0.618128 0.561302 0.844641
C6    C     C_R   0.129683 0.383844 0.438131 0.851124
C7    C     C_R   0.127134 0.618579 0.438596 0.846285
C8    C     C_R   0.869919 0.383978 0.562236 0.849510
C9    C     C_2   0.513597 0.009310 0.915584 0.028343
C10   C     C_2   0.487768 0.012085 0.082309 0.034201
C11   C     C_2   0.013599 0.509276 0.915585 0.028185
C12   C     C_2   0.987772 0.512102 0.082306 0.034237
C13   C     C_2   0.287661 0.825449 0.598089 -0.361246
C14   C     C_2   0.701793 0.184589 0.402818 -0.332375
C15   C     C_2   0.711792 0.825631 0.402398 -0.353154
C16   C     C_2   0.296117 0.182346 0.597209 -0.334888
C17   C     C_2   0.787639 0.325474 0.598089 -0.361212
C18   C     C_2   0.201806 0.684577 0.402815 -0.332322
C19   C     C_2   0.211774 0.325611 0.402394 -0.353157
C20   C     C_2   0.796137 0.682363 0.597206 -0.334903
C21   C     C_2   0.283567 0.785719 0.483961 -0.175729
C22   C     C_2   0.699338 0.230622 0.515657 -0.139838
C23   C     C_2   0.712145 0.780953 0.515192 -0.179657
C24   C     C_2   0.297853 0.228224 0.484394 -0.135925
C25   C     C_2   0.783536 0.285753 0.483959 -0.175635
C26   C     C_2   0.199359 0.730603 0.515655 -0.139861
C27   C     C_2   0.212103 0.280904 0.515178 -0.179696
C28   C     C_2   0.797882 0.728251 0.484395 -0.135909
Cu1   Cu    Cu3+1 0.522650 1.000000 0.349410 0.981601
Cu2   Cu    Cu3+1 0.477350 1.000000 0.650590 0.980941
Cu3   Cu    Cu3+1 0.022650 0.500000 0.349410 0.981607
Cu4   Cu    Cu3+1 0.977350 0.500000 0.650590 0.980939
H1    H     H_    0.636821 0.224996 0.633065 0.182662
H2    H     H_    0.344590 0.792007 0.365293 0.199761
H3    H     H_    0.361456 0.224588 0.367645 0.185640
H4    H     H_    0.647588 0.782177 0.631613 0.190046
H5    H     H_    0.136838 0.724984 0.633061 0.182613
H6    H     H_    0.844551 0.292051 0.365286 0.199845
H7    H     H_    0.861475 0.724601 0.367639 0.185677
H8    H     H_    0.147524 0.282098 0.631579 0.189941
H9    H     H_    0.761735 0.193063 0.283996 0.160138
H10   H     H_    0.228224 0.817487 0.717249 0.157206
H11   H     H_    0.235379 0.189238 0.715769 0.158568
H12   H     H_    0.774768 0.822847 0.285025 0.157081
H13   H     H_    0.261750 0.693046 0.283993 0.160059
H14   H     H_    0.728197 0.317520 0.717246 0.157187
H15   H     H_    0.735406 0.689264 0.715769 0.158626
H16   H     H_    0.274763 0.322840 0.285028 0.157070
N1    N     N_2   0.443290 1.000000 0.876860 -0.265510
N2    N     N_2   0.556710 1.000000 0.123140 -0.266590
N3    N     N_2   0.943290 0.500000 0.876860 -0.265480
N4    N     N_2   0.056710 0.500000 0.123140 -0.266613
O1    O     O_R   0.422430 0.089640 0.419570 -0.584514
O2    O     O_R   0.577570 0.910360 0.580430 -0.598505
O3    O     O_R   0.577570 0.089640 0.580430 -0.582511
O4    O     O_R   0.422430 0.910360 0.419570 -0.597519
O5    O     O_R   0.922430 0.589640 0.419570 -0.584534
O6    O     O_R   0.077570 0.410360 0.580430 -0.598483
O7    O     O_R   0.077570 0.589640 0.580430 -0.582500
O8    O     O_R   0.922430 0.410360 0.419570 -0.597503
O9    O     O_R   0.384170 0.089650 0.673910 -0.565795
O10   O     O_R   0.615830 0.910350 0.326090 -0.564905
O11   O     O_R   0.615830 0.089650 0.326090 -0.568164
O12   O     O_R   0.384170 0.910350 0.673910 -0.564355
O13   O     O_R   0.884170 0.589650 0.673910 -0.565747
O14   O     O_R   0.115830 0.410350 0.326090 -0.564915
O15   O     O_R   0.115830 0.589650 0.326090 -0.568199
O16   O     O_R   0.884170 0.410350 0.673910 -0.564378
C29   C     C_2   0.635267 0.941058 0.036458 1.030867
O17   O     O_2   0.721138 0.956646 0.007841 -0.604805
O18   O     O_R   0.613284 0.863761 0.991954 -0.781267
H17   H     H_    0.675275 0.826926 0.933519 0.305482
C30   C     C_2   0.359987 0.945833 0.969497 1.029421
O19   O     O_2   0.276744 0.963049 0.988347 -0.600601
O20   O     O_R   0.374252 0.871171 0.031766 -0.785511
H18   H     H_    0.309413 0.837847 0.093392 0.306927
C31   C     C_2   0.135180 0.440975 0.036547 1.030878
O21   O     O_2   0.221095 0.456518 0.007773 -0.604850
O22   O     O_R   0.113063 0.363653 0.992310 -0.781248
H19   H     H_    0.174997 0.326753 0.933923 0.305476
C32   C     C_2   0.859882 0.445944 0.969574 1.029417
O23   O     O_2   0.776690 0.463247 0.988302 -0.600562
O24   O     O_R   0.873981 0.371286 0.032040 -0.785578
H20   H     H_    0.809071 0.338057 0.093710 0.306934
C33   C     C_R   0.386311 0.048973 0.187991 0.156091
C34   C     C_R   0.360654 0.126667 0.147105 -0.212551
C35   C     C_R   0.259766 0.151372 0.212868 -0.097036
C36   C     C_R   0.183469 0.102156 0.328017 -0.056493
C37   C     C_R   0.207475 0.025499 0.370933 -0.165363
C38   C     C_R   0.307531 0.997764 0.297212 -0.078689
H21   H     H_    0.418118 0.165442 0.056401 0.120372
H22   H     H_    0.240605 0.208278 0.173032 0.140775
H23   H     H_    0.105572 0.122130 0.380324 0.119473
H24   H     H_    0.147901 0.985078 0.454389 0.136757
H25   H     H_    0.321167 0.933143 0.313625 0.163287
C39   C     C_R   0.618391 0.037819 0.803632 0.156037
C40   C     C_R   0.652711 0.115896 0.827461 -0.197773
C41   C     C_R   0.755896 0.134788 0.751567 -0.088705
C42   C     C_R   0.825811 0.078395 0.644802 -0.068074
C43   C     C_R   0.793256 0.000415 0.621501 -0.159754
C44   C     C_R   0.690949 0.979223 0.705107 -0.078913
H26   H     H_    0.600203 0.160220 0.911361 0.114297
H27   H     H_    0.781991 0.192481 0.777669 0.138702
H28   H     H_    0.905462 0.093670 0.585043 0.118082
H29   H     H_    0.847845 0.954337 0.545962 0.140187
H30   H     H_    0.670133 0.914422 0.705479 0.162184
C45   C     C_R   0.886347 0.549054 0.187946 0.156119
C46   C     C_R   0.860752 0.626744 0.146951 -0.212648
C47   C     C_R   0.759882 0.651493 0.212651 -0.097089
C48   C     C_R   0.683544 0.602333 0.327856 -0.056402
C49   C     C_R   0.707491 0.525688 0.370901 -0.165467
C50   C     C_R   0.807527 0.497905 0.297243 -0.078671
H31   H     H_    0.918249 0.665475 0.056203 0.120414
H32   H     H_    0.740768 0.708388 0.172723 0.140777
H33   H     H_    0.605661 0.622340 0.380114 0.119499
H34   H     H_    0.647884 0.485312 0.454410 0.136729
H35   H     H_    0.821112 0.433289 0.313774 0.163340
C51   C     C_R   0.118424 0.537683 0.803578 0.156034
C52   C     C_R   0.152834 0.615767 0.827206 -0.197515
C53   C     C_R   0.256039 0.634591 0.751210 -0.088665
C54   C     C_R   0.325885 0.578107 0.644579 -0.068241
C55   C     C_R   0.293239 0.500111 0.621510 -0.159602
C56   C     C_R   0.190911 0.479002 0.705198 -0.078911
H36   H     H_    0.100379 0.660159 0.911005 0.114232
H37   H     H_    0.282206 0.692302 0.777131 0.138709
H38   H     H_    0.405553 0.593326 0.584747 0.118095
H39   H     H_    0.347773 0.453968 0.546082 0.140218
H40   H     H_    0.170009 0.414207 0.705746 0.162105

loop_
_geom_bond_atom_site_label_1
_geom_bond_atom_site_label_2
_ccdc_geom_bond_type
Cu3   O8    S    
Cu3   O14   S    
C35   C36   A    
Cu1   O11   S    
C10   C33   S    
Cu2   O12   S    
C30   O19   D    
C6    O6    A    
C49   C50   A    
C18   C26   D    
C24   C27   S    
Cu4   O6    S    
Cu3   N4    S    
C21   C26   S    
C32   O23   D    
C38   H25   S    
C5    C20   S    
C52   H36   S    
Cu3   O15   S    
C6    C19   S    
Cu2   O2    S    
C43   H29   S    
N2    C29   S    
C15   H12   S    
C34   H21   S    
C33   C34   A    
C50   H35   S    
C41   H27   S    
C41   C42   A    
C37   H24   S    
C46   C47   A    
C45   C50   A    
C4    C13   S    
C29   O18   S    
C1    O1    A    
C51   C52   A    
C19   H16   S    
C12   N4    D    
C48   C49   A    
C3    O3    A    
C42   C43   A    
C22   C25   S    
C45   C46   A    
C49   H34   S    
C19   C27   D    
C9    C10   S    
N3    C32   S    
C40   H26   S    
Cu4   O16   S    
C15   C23   D    
C42   H28   S    
C16   C24   D    
C35   H22   S    
C4    O4    A    
C30   O20   S    
C7    O7    A    
C13   H10   S    
C32   O24   S    
C40   C41   A    
Cu1   N2    S    
C31   O22   S    
C24   H3    S    
C9    N1    D    
C17   H14   S    
C5    O13   A    
C2    O2    A    
C36   H23   S    
C53   H37   S    
C21   H2    S    
C20   C28   D    
C28   H7    S    
C31   O21   D    
C46   H31   S    
O20   H18   S    
Cu4   N3    S    
Cu1   Cu2   S    
C25   H6    S    
O24   H20   S    
C9    C39   S    
C27   H8    S    
C11   C12   S    
C7    C18   S    
C39   C40   A    
C13   C21   D    
C1    C16   S    
C23   C28   S    
C52   C53   A    
C2    C15   S    
C16   H11   S    
C54   C55   A    
C3    C14   S    
C47   H32   S    
C14   H9    S    
Cu2   N1    S    
C8    O16   A    
N1    C30   S    
N4    C31   S    
C10   N2    D    
C18   H13   S    
C53   C54   A    
C44   H30   S    
C22   H1    S    
Cu1   O10   S    
C34   C35   A    
Cu3   Cu4   S    
C1    O9    A    
C12   C45   S    
C33   C38   A    
C26   H5    S    
Cu1   O4    S    
C3    O11   A    
Cu2   O3    S    
C4    O12   A    
C8    C17   S    
C5    O5    A    
C17   C25   D    
C14   C22   D    
C55   C56   A    
C54   H38   S    
C47   C48   A    
C8    O8    A    
Cu3   O5    S    
C56   H40   S    
Cu1   O1    S    
C43   C44   A    
C51   C56   A    
C29   O17   D    
C20   H15   S    
C11   N3    D    
C7    O15   A    
O22   H19   S    
C6    O14   A    
O18   H17   S    
C36   C37   A    
C55   H39   S    
C23   H4    S    
Cu2   O9    S    
Cu4   O7    S    
C37   C38   A    
C39   C44   A    
C11   C51   S    
C48   H33   S    
C2    O10   A    
Cu4   O13   S    
