data_mof_unit_32941.cif
_audit_creation_date              2012-12-11T15:08:41-0500
_audit_creation_method            fapswitch 2.2
_symmetry_space_group_name_H-M    P1
_symmetry_Int_Tables_number       1
_space_group_crystal_system       triclinic
_cell_length_a                    26.791523
_cell_length_b                    7.079479
_cell_length_c                    11.999901
_cell_angle_alpha                 89.992122
_cell_angle_beta                  103.65049
_cell_angle_gamma                 89.974829
_cell_volume                      2211.73139268

loop_
_atom_site_label
_atom_site_type_symbol
_atom_type_description
_atom_site_fract_x
_atom_site_fract_y
_atom_site_fract_z
_atom_type_partial_charge
O1    O     O_R   0.437360 0.505910 0.042120 -0.532962
O2    O     O_R   0.562640 0.005910 0.957880 -0.532850
O3    O     O_R   0.542480 0.176660 0.157100 -0.531222
O4    O     O_R   0.457520 0.676660 0.842900 -0.531077
C1    C     C_R   0.556244 0.344586 0.198378 0.701637
C2    C     C_R   0.443765 0.844666 0.801621 0.701280
O5    O     O_R   0.436520 0.176250 0.054800 -0.545764
O6    O     O_R   0.563480 0.676250 0.945200 -0.545695
O7    O     O_R   0.455920 0.005040 0.854840 -0.544111
O8    O     O_R   0.544080 0.505040 0.145160 -0.544241
C3    C     C_R   0.417545 0.344558 0.063551 0.695314
C4    C     C_R   0.582457 0.844491 0.936458 0.695059
O9    O     O_3   0.506490 0.338900 0.934520 -0.375735
O10   O     O_3   0.493510 0.838900 0.065480 -0.375950
V1    V     V_3+5 0.498800 0.064400 0.012150 1.452678
V2    V     V_3+5 0.501200 0.564400 0.987850 1.452872
C5    C     C_R   0.680616 0.866690 0.759114 -0.157202
C6    C     C_R   0.319394 0.369590 0.240827 -0.156738
H1    H     H_    0.774189 0.882299 0.722099 0.155331
H2    H     H_    0.225819 0.386286 0.277792 0.155090
H3    H     H_    0.681068 0.877282 0.669231 0.142434
H4    H     H_    0.318944 0.381555 0.330647 0.142498
C7    C     C_R   0.631832 0.850825 0.904228 -0.034656
C8    C     C_R   0.368174 0.351149 0.095794 -0.034753
C9    C     C_R   0.868533 0.844233 0.211346 -0.278129
C10   C     C_R   0.131469 0.342522 0.788758 -0.278022
C11   C     C_R   0.822987 0.822825 0.247223 0.033034
C12   C     C_R   0.177017 0.320381 0.752968 0.032997
C13   C     C_R   0.776072 0.814756 0.165231 -0.152009
C14   C     C_R   0.223932 0.312822 0.834992 -0.153045
C15   C     C_R   0.773552 0.837082 0.046638 0.024906
C16   C     C_R   0.226453 0.336586 0.953483 0.024714
C17   C     C_R   0.820570 0.855082 0.011485 0.066132
C18   C     C_R   0.179434 0.355478 0.988556 0.066244
C19   C     C_R   0.725949 0.843061 0.961840 0.070910
C20   C     C_R   0.274058 0.343231 0.038247 0.070622
C21   C     C_R   0.726712 0.859271 0.844062 0.136014
C22   C     C_R   0.273296 0.361179 0.155937 0.136123
C23   C     C_R   0.773373 0.870155 0.811732 -0.205613
C24   C     C_R   0.226634 0.372866 0.188221 -0.205374
C25   C     C_R   0.819534 0.869798 0.893923 -0.204388
C26   C     C_R   0.180471 0.371723 0.106045 -0.204384
C27   C     C_R   0.677425 0.837749 0.989574 -0.199072
C28   C     C_R   0.322581 0.337023 0.010541 -0.199763
C29   C     C_R   0.633481 0.863885 0.789136 -0.195303
C30   C     C_R   0.366528 0.366090 0.210809 -0.195288
C31   C     C_R   0.867857 0.857834 0.094851 -0.068687
C32   C     C_R   0.132146 0.357523 0.905188 -0.068688
H5    H     H_    0.673443 0.825580 0.076474 0.139993
H6    H     H_    0.326563 0.323497 0.923713 0.140017
H7    H     H_    0.904947 0.847980 0.274423 0.096556
H8    H     H_    0.095052 0.345751 0.725670 0.096532
C33   C     C_R   0.091794 0.859865 0.311276 -0.032633
C34   C     C_R   0.908238 0.360254 0.688683 -0.032661
C35   C     C_R   0.409778 0.850551 0.686637 -0.043709
C36   C     C_R   0.590227 0.350150 0.313383 -0.044099
C37   C     C_R   0.105893 0.851963 0.517246 -0.180402
C38   C     C_R   0.894141 0.355609 0.482675 -0.180285
C39   C     C_R   0.072426 0.862151 0.409375 -0.183047
C40   C     C_R   0.927597 0.364770 0.590593 -0.183032
C41   C     C_R   0.144825 0.850852 0.321021 -0.212077
C42   C     C_R   0.855219 0.350091 0.678898 -0.212011
C43   C     C_R   0.179843 0.839988 0.429799 0.103360
C44   C     C_R   0.820211 0.340376 0.570066 0.103137
C45   C     C_R   0.159185 0.839717 0.528233 0.141687
C46   C     C_R   0.840866 0.342337 0.471634 0.141703
C47   C     C_R   0.234317 0.829361 0.443962 0.053303
C48   C     C_R   0.765750 0.328862 0.555844 0.053221
C49   C     C_R   0.267332 0.823247 0.557034 0.072571
C50   C     C_R   0.732731 0.324107 0.442740 0.072436
C51   C     C_R   0.244291 0.798296 0.652170 0.019656
C52   C     C_R   0.755800 0.301441 0.347458 0.019804
C53   C     C_R   0.191331 0.818363 0.636932 -0.254886
C54   C     C_R   0.808742 0.322293 0.362825 -0.255076
C55   C     C_R   0.256833 0.819756 0.348597 -0.186435
C56   C     C_R   0.743256 0.317088 0.651171 -0.186223
C57   C     C_R   0.309552 0.805462 0.362431 -0.203634
C58   C     C_R   0.690560 0.301970 0.637298 -0.203604
C59   C     C_R   0.342278 0.812841 0.471083 0.123135
C60   C     C_R   0.657815 0.310505 0.528709 0.123396
C61   C     C_R   0.321838 0.835796 0.569004 0.102662
C62   C     C_R   0.678207 0.335651 0.430877 0.102296
C63   C     C_R   0.395564 0.798755 0.482764 -0.161216
C64   C     C_R   0.604557 0.295305 0.517007 -0.161276
C65   C     C_R   0.428972 0.809712 0.590826 -0.183657
C66   C     C_R   0.571122 0.307154 0.409022 -0.183563
C67   C     C_R   0.356973 0.875988 0.674201 -0.117655
C68   C     C_R   0.642990 0.376812 0.325909 -0.118446
H9    H     H_    0.174474 0.804848 0.710459 0.115361
H10   H     H_    0.825615 0.310524 0.289230 0.115337
H11   H     H_    0.344125 0.923536 0.748272 0.106923
H12   H     H_    0.655748 0.425912 0.252057 0.107409
H13   H     H_    0.469796 0.789091 0.599598 0.103703
H14   H     H_    0.530339 0.285486 0.400178 0.103874
H15   H     H_    0.324898 0.792200 0.286876 0.140654
H16   H     H_    0.675239 0.287097 0.712799 0.140803
H17   H     H_    0.090023 0.851443 0.592407 0.116118
H18   H     H_    0.910012 0.356824 0.407505 0.116076
H19   H     H_    0.031410 0.870099 0.402309 0.101380
H20   H     H_    0.968600 0.373733 0.597683 0.101410
H21   H     H_    0.157124 0.853697 0.241837 0.099423
H22   H     H_    0.842914 0.351385 0.758093 0.099426
H23   H     H_    0.234779 0.816637 0.261208 0.134542
H24   H     H_    0.765316 0.312853 0.738534 0.134575
H25   H     H_    0.411250 0.775057 0.408539 0.116167
H26   H     H_    0.588921 0.269897 0.591126 0.116175
O11   O     O_R   0.955980 0.206520 0.854760 -0.538992
O12   O     O_R   0.044020 0.706520 0.145240 -0.539027
O13   O     O_R   0.063490 0.536770 0.945200 -0.542431
O14   O     O_R   0.936510 0.036770 0.054800 -0.542361
C69   C     C_R   0.082715 0.368156 0.937669 0.691806
C70   C     C_R   0.917285 0.868222 0.062342 0.691811
O15   O     O_R   0.957530 0.536190 0.842880 -0.541136
O16   O     O_R   0.042470 0.036190 0.157120 -0.541081
O17   O     O_R   0.937350 0.707210 0.042130 -0.537648
O18   O     O_R   0.062650 0.207210 0.957870 -0.537591
C71   C     C_R   0.943143 0.367903 0.802487 0.692129
C72   C     C_R   0.056866 0.867826 0.197503 0.692116
O19   O     O_3   0.993540 0.373870 0.065440 -0.374074
O20   O     O_3   0.006460 0.873870 0.934560 -0.374077
V3    V     V_3+5 0.001200 0.648440 0.987860 1.417675
V4    V     V_3+5 0.998800 0.148440 0.012140 1.417868
H27   H     H_    0.598284 0.871703 0.722638 0.105233
H28   H     H_    0.401726 0.374832 0.277240 0.105312
C73   C     C_2   0.271357 0.721560 0.765261 0.329047
H29   H     H_    0.259040 0.761414 0.841990 0.052488
O21   O     O_2   0.305345 0.604004 0.772929 -0.537060
C74   C     C_2   0.728824 0.226446 0.233871 0.328786
H30   H     H_    0.741106 0.268146 0.157435 0.052532
O22   O     O_2   0.694959 0.108316 0.225415 -0.537319
H31   H     H_    0.742218 0.790254 0.196677 0.176484
H32   H     H_    0.257785 0.287666 0.803646 0.176585
C75   C     C_2   0.825118 0.809665 0.371421 0.377887
H33   H     H_    0.861942 0.812505 0.433243 0.048154
O23   O     O_2   0.785990 0.796428 0.406412 -0.527438
C76   C     C_2   0.174889 0.305951 0.628824 0.377771
H34   H     H_    0.138061 0.308222 0.566997 0.048225
O24   O     O_2   0.214022 0.292338 0.593874 -0.527256
H35   H     H_    0.854548 0.882045 0.864247 0.127617
H36   H     H_    0.145455 0.384656 0.135666 0.127606

loop_
_geom_bond_atom_site_label_1
_geom_bond_atom_site_label_2
_ccdc_geom_bond_type
C56   H24   S    
C59   C63   A    
C43   C45   A    
C35   C65   A    
O17   V3    S    
C67   H11   S    
C11   C13   A    
C52   C54   A    
C39   H19   S    
C1    C36   S    
C38   H18   S    
O12   V3    S    
C60   C64   A    
O2    C4    A    
C74   H30   S    
C2    O7    A    
C75   H33   S    
C33   C39   A    
C45   C53   A    
C23   C25   A    
C34   C40   A    
C29   H27   S    
O5    C3    A    
C4    C7    S    
O18   V4    S    
C52   C74   S    
C7    C29   A    
C44   C48   A    
C19   C21   A    
C64   C66   A    
O13   C69   A    
H2    C24   S    
C58   C60   A    
C36   C68   A    
C38   C40   A    
C31   C70   S    
C46   C54   A    
C3    C8    S    
C7    C27   A    
C41   C43   A    
C75   O23   D    
C49   C51   A    
C42   C44   A    
C66   H14   S    
C33   C41   A    
C38   C46   A    
C68   H12   S    
C58   H16   S    
C18   C26   A    
O1    C3    A    
C64   H26   S    
C15   C17   A    
C69   O18   A    
C19   C27   A    
C9    C31   A    
C10   C32   A    
C24   C26   A    
O6    V2    S    
C22   C24   A    
C12   C76   S    
C55   H23   S    
C30   H28   S    
C65   H13   S    
C2    C35   S    
C6    C30   A    
O20   V4    S    
O19   V3    S    
C43   C47   A    
C26   H36   S    
C56   C58   A    
C11   C75   S    
O12   C72   A    
C49   C61   A    
C60   C62   A    
C37   C45   A    
C51   C53   A    
C33   C72   S    
C27   H5    S    
C34   C42   A    
O3    C1    A    
C57   H15   S    
C5    H3    S    
C63   H25   S    
C47   C49   A    
C44   C46   A    
O4    V2    S    
C41   H21   S    
C9    H7    S    
C10   H8    S    
C36   C66   A    
O6    C4    A    
C37   H17   S    
C57   C59   A    
O15   V3    S    
O1    V2    S    
C5    C21   A    
O2    V1    S    
C55   C57   A    
O16   C72   A    
H1    C23   S    
O15   C71   A    
O4    C2    A    
C63   C65   A    
C8    C28   A    
C73   H29   S    
C17   C31   A    
C15   C19   A    
C14   H32   S    
C20   C28   A    
C47   C55   A    
C20   C22   A    
C16   C20   A    
O3    V1    S    
O20   V3    S    
C76   O24   D    
C59   C61   A    
O19   V4    S    
C28   H6    S    
C6    H4    S    
C5    C29   A    
C76   H34   S    
C40   H20   S    
C74   O22   D    
O9    V2    S    
C48   C56   A    
C10   C12   A    
C17   C25   A    
C54   H10   S    
C12   C14   A    
C6    C22   A    
C8    C30   A    
C1    O8    A    
C21   C23   A    
O8    V2    S    
O14   V4    S    
C14   C16   A    
C61   C67   A    
O13   V3    S    
C13   H31   S    
C62   C68   A    
O5    V1    S    
C35   C67   A    
C50   C62   A    
O14   C70   A    
C25   H35   S    
C37   C39   A    
C53   H9    S    
O16   V4    S    
C32   C69   S    
C18   C32   A    
C13   C15   A    
C34   C71   S    
C73   O21   D    
C48   C50   A    
O10   V1    S    
C51   C73   S    
C50   C52   A    
O11   V4    S    
O11   C71   A    
C70   O17   A    
O7    V1    S    
C16   C18   A    
C42   H22   S    
C9    C11   A    
