data_mof_unit_23648.cif
_audit_creation_date              2012-10-26T21:04:07-0400
_audit_creation_method            fapswitch 2.2
_symmetry_space_group_name_H-M    P1
_symmetry_Int_Tables_number       1
_space_group_crystal_system       triclinic
_cell_length_a                    15.097884
_cell_length_b                    13.943906
_cell_length_c                    11.014048
_cell_angle_alpha                 90.000045
_cell_angle_beta                  93.035829
_cell_angle_gamma                 90.000068
_cell_volume                      2315.4616044

loop_
_atom_site_label
_atom_site_type_symbol
_atom_type_description
_atom_site_fract_x
_atom_site_fract_y
_atom_site_fract_z
_atom_type_partial_charge
C1    C     C_R   0.330021 0.500187 0.501072 0.560430
C2    C     C_R   0.438948 0.104552 0.428532 -0.107439
C3    C     C_R   0.562250 0.205940 0.571919 0.355049
C4    C     C_R   0.437750 0.205940 0.428081 0.355050
C5    C     C_R   0.500000 0.052426 0.499999 -0.082386
C6    C     C_R   0.420498 0.891548 0.484020 -0.070177
C7    C     C_R   0.579503 0.891548 0.515980 -0.070174
C8    C     C_R   0.421935 0.790711 0.483769 0.200412
C9    C     C_R   0.578065 0.790711 0.516230 0.200413
C10   C     C_R   0.500000 0.944144 0.500000 0.016169
C11   C     C_R   0.499715 0.500463 0.262519 0.592764
C12   C     C_R   0.669979 0.500187 0.498928 0.560431
C13   C     C_R   0.500285 0.500463 0.737481 0.592765
C14   C     C_R   0.500156 0.586873 0.062062 0.004083
C15   C     C_R   0.499844 0.586873 0.937938 0.004083
C16   C     C_R   0.499435 0.501641 0.129728 0.028027
C17   C     C_R   0.500565 0.501641 0.870271 0.028027
C18   C     C_R   0.499976 0.414803 0.063853 -0.121534
C19   C     C_R   0.500024 0.414803 0.936146 -0.121534
C20   C     C_3   0.508277 0.694355 0.929393 0.387126
C21   C     C_3   0.491723 0.694355 0.070607 0.387125
C22   C     C_R   0.093674 0.581460 0.455891 -0.105054
C23   C     C_R   0.188238 0.423208 0.549950 -0.076888
C24   C     C_R   0.906327 0.581462 0.544103 -0.105053
C25   C     C_R   0.185759 0.580783 0.456279 -0.101488
C26   C     C_R   0.814241 0.580786 0.543715 -0.101485
C27   C     C_R   0.233443 0.501190 0.502226 0.029532
C28   C     C_R   0.766557 0.501190 0.497774 0.029531
C29   C     C_R   0.811761 0.423206 0.450055 -0.076890
C30   C     C_R   0.096106 0.423428 0.548391 -0.094446
C31   C     C_R   0.903894 0.423426 0.451614 -0.094447
C32   C     C_R   0.048462 0.502444 0.501033 0.023775
C33   C     C_R   0.951538 0.502444 0.498966 0.023775
C34   C     C_R   0.561052 0.104552 0.571467 -0.107437
Cu1   Cu    Cu3+1 0.500000 0.596430 0.500000 1.169412
Cu2   Cu    Cu3+1 0.500000 0.403570 0.500000 1.126068
H1    H     H_    0.499904 0.346466 0.110579 0.183061
H2    H     H_    0.775866 0.362798 0.410116 0.172728
H3    H     H_    0.609380 0.065131 0.627607 0.177149
H4    H     H_    0.390621 0.065131 0.372392 0.177149
H5    H     H_    0.359854 0.752835 0.471281 0.144629
H6    H     H_    0.640146 0.752835 0.528719 0.144628
H7    H     H_    0.754127 0.687805 0.955964 0.375870
H8    H     H_    0.245873 0.687801 0.044037 0.375869
H9    H     H_    0.487332 0.885146 0.765152 0.369879
H10   H     H_    0.512664 0.885145 0.234846 0.369882
H11   H     H_    0.062004 0.362651 0.585601 0.141113
H12   H     H_    0.500097 0.346466 0.889421 0.183061
H13   H     H_    0.937996 0.362647 0.414408 0.141114
H14   H     H_    0.713240 0.374806 0.753370 0.363471
H15   H     H_    0.286760 0.374805 0.246633 0.363471
H16   H     H_    0.357110 0.927624 0.473744 0.117660
H17   H     H_    0.642890 0.927624 0.526256 0.117659
H18   H     H_    0.057631 0.642832 0.418589 0.133215
H19   H     H_    0.942369 0.642836 0.581400 0.133215
H20   H     H_    0.219529 0.641822 0.419194 0.154330
H21   H     H_    0.780472 0.641826 0.580795 0.154328
H22   H     H_    0.224134 0.362802 0.589893 0.172725
N1    N     N_R   0.500000 0.258690 0.500000 -0.273175
N2    N     N_R   0.500000 0.741330 0.500000 -0.173035
O1    O     O_R   0.371460 0.581430 0.500010 -0.513938
O2    O     O_2   0.637546 0.824125 0.875804 -0.224992
O3    O     O_3   0.695540 0.668184 0.983933 -0.486617
O4    O     O_2   0.364158 0.675453 0.238385 -0.301092
O5    O     O_2   0.362452 0.824123 0.124196 -0.224993
O6    O     O_3   0.304459 0.668182 0.016067 -0.486617
O7    O     O_2   0.366655 0.685188 0.762565 -0.252056
O8    O     O_2   0.369917 0.825921 0.892994 -0.208127
O9    O     O_3   0.481101 0.820059 0.729617 -0.513685
O10   O     O_2   0.633344 0.685190 0.237436 -0.252056
O11   O     O_2   0.630082 0.825922 0.107006 -0.208126
O12   O     O_R   0.628540 0.581430 0.499990 -0.513939
O13   O     O_3   0.518898 0.820060 0.270383 -0.513688
O14   O     O_2   0.676346 0.183955 0.764853 -0.273811
O15   O     O_2   0.734131 0.247428 0.579910 -0.305610
O16   O     O_3   0.652182 0.361174 0.720532 -0.496495
O17   O     O_2   0.323648 0.183953 0.235154 -0.273810
O18   O     O_2   0.265870 0.247432 0.420097 -0.305609
O19   O     O_3   0.347819 0.361171 0.279466 -0.496495
O20   O     O_R   0.371470 0.418560 0.500010 -0.456182
O21   O     O_R   0.628530 0.418560 0.499990 -0.456183
O22   O     O_R   0.499990 0.581450 0.319660 -0.428419
O23   O     O_R   0.500010 0.581450 0.680340 -0.428418
O24   O     O_R   0.500010 0.418580 0.319660 -0.480506
O25   O     O_R   0.499990 0.418580 0.680340 -0.480505
O26   O     O_2   0.635841 0.675454 0.761615 -0.301089
S1    S     S_3+6 0.621018 0.718036 0.883878 0.069247
S2    S     S_3+6 0.378981 0.718035 0.116122 0.069245
S3    S     S_3+6 0.426645 0.755639 0.829440 0.103048
S4    S     S_3+6 0.573354 0.755640 0.170561 0.103048
S5    S     S_3+6 0.656784 0.251207 0.660041 0.040430
S6    S     S_3+6 0.343215 0.251207 0.339963 0.040431

loop_
_geom_bond_atom_site_label_1
_geom_bond_atom_site_label_2
_ccdc_geom_bond_type
C23   H22   S    
O17   S6    D    
C7    C10   A    
H8    O6    S    
Cu1   Cu2   S    
C25   H20   S    
Cu2   N1    S    
H7    O3    S    
C22   H18   S    
C24   H19   S    
C9    H6    S    
C22   C32   A    
C12   C28   S    
C14   C21   S    
C28   C29   A    
C18   H1    S    
C24   C26   A    
O13   S4    S    
O6    S2    S    
C20   S1    S    
O7    S3    D    
C3    S5    S    
C18   C19   A    
C22   C25   A    
C29   H2    S    
C31   C33   A    
C2    H4    S    
C23   C27   A    
O15   S5    D    
C12   O12   A    
C21   S2    S    
O10   S4    D    
C31   H13   S    
O9    S3    S    
Cu1   O22   S    
C21   S4    S    
C11   O22   A    
C15   C20   S    
H9    O9    S    
C34   H3    S    
C23   C30   A    
C30   H11   S    
C8    H5    S    
Cu2   O20   S    
Cu1   O23   S    
C19   H12   S    
C6    C8    A    
C3    C34   A    
O18   S6    D    
Cu1   N2    S    
O14   S5    D    
C2    C4    A    
H14   O16   S    
C11   C16   S    
Cu2   O21   S    
C5    C34   A    
O8    S3    D    
Cu1   O1    S    
O19   S6    S    
Cu1   O12   S    
C11   O24   A    
C14   C16   A    
C2    C5    A    
C7    H17   S    
O5    S2    D    
O2    S1    D    
C15   C17   A    
O3    S1    S    
O26   S1    D    
C1    O1    A    
C6    C10   A    
Cu2   O25   S    
C25   C27   A    
C20   S3    S    
C13   O23   A    
C26   C28   A    
C24   C33   A    
C13   C17   S    
C9    N2    A    
C32   C33   S    
C5    C10   S    
C29   C31   A    
C8    N2    A    
C30   C32   A    
O11   S4    D    
Cu2   O24   S    
C4    N1    A    
C17   C19   A    
C12   O21   A    
C26   H21   S    
H15   O19   S    
O16   S5    S    
C7    C9    A    
C20   C21   S    
C16   C18   A    
C13   O25   A    
C1    C27   S    
C1    O20   A    
C14   C15   A    
C6    H16   S    
O4    S2    D    
H10   O13   S    
C4    S6    S    
C3    N1    A    
