data_mof_unit_36509.cif
_audit_creation_date              2012-10-26T20:18:17-0400
_audit_creation_method            fapswitch 2.2
_symmetry_space_group_name_H-M    P1
_symmetry_Int_Tables_number       1
_space_group_crystal_system       triclinic
_cell_length_a                    23.428106
_cell_length_b                    8.735145
_cell_length_c                    7.674275
_cell_angle_alpha                 102.533466
_cell_angle_beta                  96.687758
_cell_angle_gamma                 95.389026
_cell_volume                      1511.11577816

loop_
_atom_site_label
_atom_site_type_symbol
_atom_type_description
_atom_site_fract_x
_atom_site_fract_y
_atom_site_fract_z
_atom_type_partial_charge
C1    C     C_R   0.498194 0.200591 0.453793 0.522442
C2    C     C_R   0.713575 0.599782 0.620571 0.128119
C3    C     C_R   0.235469 0.395660 0.558546 0.260914
C4    C     C_R   0.772502 0.581717 0.611694 0.276106
C5    C     C_R   0.206794 0.487200 0.455066 0.266739
C6    C     C_R   0.788201 0.465974 0.469525 0.186968
C7    C     C_2   0.497457 0.032373 0.428850 -0.167710
C8    C     C_2   0.502606 0.967664 0.571178 -0.163822
C9    C     C_R   0.391283 0.499293 0.497291 0.556786
C10   C     C_R   0.608702 0.501961 0.501783 0.551792
C11   C     C_R   0.880266 0.623244 0.452555 0.479052
C12   C     C_R   0.501864 0.799432 0.546224 0.523924
C13   C     C_R   0.109410 0.352452 0.346022 0.421356
C14   C     C_R   0.866030 0.362117 0.295286 0.416564
C15   C     C_R   0.122838 0.614657 0.529415 0.431872
C16   C     C_R   0.926228 0.351768 0.305337 0.000879
C17   C     C_R   0.062427 0.620549 0.513562 -0.001827
C18   C     C_R   0.964337 0.486761 0.398923 -0.101131
C19   C     C_R   0.025075 0.484940 0.413370 -0.098061
C20   C     C_R   0.941179 0.628545 0.462612 0.028855
C21   C     C_R   0.048223 0.348226 0.328238 -0.001976
C22   C     C_R   0.949102 0.214523 0.221668 0.141716
C23   C     C_R   0.239198 0.584933 0.368405 0.138236
C24   C     C_R   0.038334 0.759883 0.586686 0.129562
C25   C     C_R   0.009444 0.213794 0.228049 0.145906
C26   C     C_R   0.979113 0.768104 0.539770 0.158127
C27   C     C_3   0.880536 0.984251 0.221098 -0.203222
C28   C     C_3   0.097322 0.018134 0.691199 -0.222438
C29   C     C_3   0.038157 0.948074 0.190895 -0.246250
C30   C     C_3   0.942102 0.982438 0.738628 -0.207080
C31   C     C_3   0.186755 0.602610 0.085241 -0.257584
C32   C     C_3   0.719285 0.042671 0.276513 -0.295040
C33   C     C_3   0.332290 0.139217 0.504899 -0.293397
C34   C     C_R   0.745592 0.333636 0.394156 0.163060
C35   C     C_3   0.688337 0.865397 0.673995 -0.298881
C36   C     C_3   0.399623 0.268026 0.998851 -0.233393
C37   C     C_3   0.602616 0.722134 0.005718 -0.237833
C38   C     C_R   0.299658 0.590685 0.388320 -0.186427
C39   C     C_R   0.686934 0.355515 0.394465 -0.158742
C40   C     C_R   0.328053 0.495221 0.486597 -0.020580
C41   C     C_R   0.670827 0.490518 0.501641 -0.029016
C42   C     C_R   0.295538 0.391200 0.564681 0.125551
Cl1   Cl    Cl    0.195843 0.291075 0.685092 -0.703190
Cl2   Cl    Cl    0.824789 0.683554 0.796428 -0.642580
Cu1   Cu    Cu3+1 0.506340 0.517380 0.684380 0.985667
Cu2   Cu    Cu3+1 0.493660 0.482620 0.315620 0.959179
H1    H     H_    0.324572 0.668546 0.324900 0.128174
H2    H     H_    0.065289 0.091764 0.646576 0.143628
H3    H     H_    0.125617 0.986325 0.586137 0.236450
H4    H     H_    0.124229 0.090743 0.815361 0.208090
H5    H     H_    0.059539 0.111341 0.036715 0.289852
H6    H     H_    0.055135 0.856723 0.093209 0.143062
H7    H     H_    0.996719 0.894101 0.219105 0.156648
H8    H     H_    0.069679 0.982977 0.315597 0.178317
H9    H     H_    0.978596 0.999150 0.507241 0.233972
H10   H     H_    0.897643 0.015148 0.717708 0.186392
H11   H     H_    0.971670 0.091324 0.805607 0.144864
H12   H     H_    0.653083 0.262801 0.322850 0.132812
H13   H     H_    0.943121 0.896004 0.825821 0.230404
H14   H     H_    0.235963 0.787904 0.272453 0.255219
H15   H     H_    0.162849 0.684367 0.020711 0.159895
H16   H     H_    0.155917 0.497747 0.084154 0.187706
H17   H     H_    0.221801 0.565176 0.005638 0.191096
H18   H     H_    0.794409 0.157935 0.448996 0.251898
H19   H     H_    0.697035 0.056802 0.146046 0.163229
H20   H     H_    0.740580 0.933322 0.250271 0.150512
H21   H     H_    0.687492 0.029260 0.370316 0.117116
H22   H     H_    0.303609 0.243437 0.741282 0.293334
H23   H     H_    0.492703 0.961281 0.291686 0.152399
H24   H     H_    0.290195 0.074146 0.432266 0.176443
H25   H     H_    0.355932 0.058656 0.572137 0.136384
H26   H     H_    0.358838 0.175020 0.406351 0.138636
H27   H     H_    0.721672 0.756539 0.871373 0.289547
H28   H     H_    0.729687 0.915965 0.639206 0.188967
H29   H     H_    0.672863 0.956443 0.776609 0.136604
H30   H     H_    0.655065 0.833450 0.552242 0.133384
H31   H     H_    0.439133 0.326935 0.801034 0.310927
H32   H     H_    0.377622 0.158343 0.904156 0.102348
H33   H     H_    0.369583 0.359728 0.012637 0.160101
H34   H     H_    0.507351 0.038759 0.708340 0.153334
H35   H     H_    0.409120 0.233755 0.126984 0.190460
H36   H     H_    0.560302 0.671852 0.200552 0.296861
H37   H     H_    0.628199 0.821010 0.108589 0.067360
H38   H     H_    0.593834 0.766740 0.882971 0.212512
H39   H     H_    0.629148 0.622485 0.984306 0.176261
H40   H     H_    0.887553 0.094986 0.008915 0.290156
H41   H     H_    0.896798 0.867780 0.207519 0.198495
H42   H     H_    0.834018 0.962224 0.164040 0.201807
H43   H     H_    0.884338 0.044524 0.365797 0.163205
H44   H     H_    0.094447 0.835864 0.826921 0.277538
N1    N     N_R   0.846103 0.480565 0.411955 -0.370494
N2    N     N_2   0.762208 0.177553 0.355575 -0.455731
N3    N     N_2   0.322675 0.275796 0.638430 -0.515565
N4    N     N_2   0.697163 0.728138 0.745714 -0.519625
N5    N     N_2   0.450889 0.322512 0.930550 -0.387415
N6    N     N_2   0.549916 0.675436 0.070425 -0.398025
N7    N     N_R   0.144678 0.484555 0.442772 -0.349627
N8    N     N_2   0.484110 0.456420 0.038520 -0.010419
N9    N     N_2   0.515890 0.543580 0.961480 -0.013034
N10   N     N_2   0.912248 0.077262 0.120842 -0.504799
N11   N     N_2   0.069458 0.878644 0.733016 -0.515802
N12   N     N_2   0.029288 0.083184 0.115200 -0.489729
N13   N     N_2   0.958192 0.917569 0.565156 -0.502544
N14   N     N_2   0.211245 0.682516 0.267695 -0.495009
O1    O     O_R   0.504120 0.286130 0.619770 -0.517865
O2    O     O_2   0.134170 0.226169 0.269805 -0.499277
O3    O     O_2   0.829252 0.269650 0.156950 -0.471660
O4    O     O_2   0.160221 0.738227 0.627461 -0.504888
O5    O     O_R   0.495880 0.713870 0.380230 -0.521304
O6    O     O_R   0.493410 0.256770 0.308360 -0.504006
O7    O     O_R   0.506590 0.743230 0.691640 -0.499338
O8    O     O_R   0.423230 0.514630 0.655730 -0.494179
O9    O     O_R   0.576770 0.485370 0.344270 -0.529628
O10   O     O_R   0.412530 0.485280 0.344320 -0.525765
O11   O     O_R   0.587470 0.514720 0.655680 -0.490369
O12   O     O_2   0.855190 0.757386 0.476191 -0.479489

loop_
_geom_bond_atom_site_label_1
_geom_bond_atom_site_label_2
_ccdc_geom_bond_type
C30   H11   S    
C35   H28   S    
C42   N3    S    
C31   H15   S    
N5    N8    S    
C7    C8    D    
C3    C42   A    
Cu1   Cu2   S    
H5    N12   S    
C3    Cl1   S    
C20   C26   A    
C9    O10   A    
C37   H39   S    
C19   C21   A    
C24   C26   A    
C18   C19   A    
C1    O6    A    
C25   N12   S    
C29   H8    S    
C2    C41   A    
C27   N10   S    
N6    N9    S    
H9    N13   S    
C24   N11   S    
C33   H26   S    
C28   H4    S    
C28   N11   S    
C22   C25   A    
C30   N13   S    
C37   H38   S    
H40   N10   S    
C9    O8    A    
C40   C42   A    
Cu2   N8    S    
C10   C41   S    
C31   H16   S    
H27   N4    S    
C15   N7    A    
C12   O5    A    
Cu1   O1    S    
C11   C20   A    
C35   H30   S    
Cu1   O8    S    
C17   C24   A    
H36   N6    S    
Cu2   O10   S    
C34   C39   A    
C31   H17   S    
C2    N4    S    
C22   N10   S    
C4    C6    A    
Cu1   N9    S    
C4    Cl2   S    
C39   H12   S    
C30   H10   S    
H31   N5    S    
C9    C40   S    
C6    C34   A    
C37   N6    S    
C15   O4    S    
C2    C4    A    
H44   N11   S    
C26   N13   S    
C28   H3    S    
Cu1   O11   S    
C23   N14   S    
C5    C23   A    
C36   H35   S    
C8    C12   S    
C35   H29   S    
C30   H13   S    
C13   C21   A    
C27   H41   S    
C11   O12   S    
C38   H1    S    
C10   O9    A    
C33   H24   S    
C32   H21   S    
C14   O3    S    
C5    N7    S    
Cu2   O6    S    
C14   C16   A    
H18   N2    S    
C32   H20   S    
C35   N4    S    
C15   C17   A    
C21   C25   A    
C28   H2    S    
C16   C22   A    
Cu2   O9    S    
C1    C7    S    
C13   O2    S    
C3    C5    A    
C36   H33   S    
C33   N3    S    
C7    H23   S    
Cu1   O7    S    
C23   C38   A    
H22   N3    S    
C31   N14   S    
C36   H32   S    
C38   C40   A    
C36   N5    S    
C32   N2    S    
C29   H7    S    
C17   C19   A    
C29   N12   S    
C27   H43   S    
C18   C20   A    
C13   N7    A    
C27   H42   S    
C34   N2    S    
C14   N1    A    
C33   H25   S    
C11   N1    A    
C39   C41   A    
C16   C18   A    
N8    N9    D    
Cu2   O5    S    
C8    H34   S    
C37   H37   S    
H14   N14   S    
C12   O7    A    
C10   O11   A    
C6    N1    S    
C1    O1    A    
C32   H19   S    
C29   H6    S    
