data_mof_unit_17310.cif
_audit_creation_date              2013-03-05T16:12:28-0500
_audit_creation_method            fapswitch 2.2
_symmetry_space_group_name_H-M    P1
_symmetry_Int_Tables_number       1
_space_group_crystal_system       triclinic
_cell_length_a                    10.84691
_cell_length_b                    9.887864
_cell_length_c                    23.37093
_cell_angle_alpha                 90.005091
_cell_angle_beta                  92.134033
_cell_angle_gamma                 89.998572
_cell_volume                      2504.85854412

loop_
_atom_site_label
_atom_site_type_symbol
_atom_site_description
_atom_site_fract_x
_atom_site_fract_y
_atom_site_fract_z
_atom_type_partial_charge
O1    O     O_R   0.316770 0.614620 0.500000 -0.621319
O2    O     O_R   0.683230 0.385380 0.500000 -0.604660
O3    O     O_R   0.683230 0.614620 0.500000 -0.621274
O4    O     O_R   0.316770 0.385380 0.500000 -0.604546
C1    C     C_R   0.259909 0.500440 0.501087 0.851159
C2    C     C_R   0.740091 0.500437 0.498912 0.851099
O5    O     O_R   0.499970 0.614690 0.416160 -0.609055
O6    O     O_R   0.500030 0.385310 0.583840 -0.547022
O7    O     O_R   0.500030 0.614690 0.583840 -0.609039
O8    O     O_R   0.499970 0.385310 0.416160 -0.547082
C3    C     C_R   0.506891 0.499663 0.389417 0.956335
C4    C     C_R   0.493090 0.499667 0.610582 0.956300
Zn1   Zn    Zn3+2 0.500000 0.653120 0.500000 0.978753
Zn2   Zn    Zn3+2 0.500000 0.346880 0.500000 1.034608
C5    C     C_R   0.579813 0.517647 0.875953 0.574695
C6    C     C_R   0.420138 0.518151 0.124037 0.574775
N1    N     N_R   0.464089 0.508730 0.851756 -0.315943
N2    N     N_R   0.535841 0.509032 0.148241 -0.315894
C7    C     C_R   0.361727 0.502436 0.883396 0.612212
C8    C     C_R   0.638204 0.502524 0.116607 0.612217
C9    C     C_R   0.373342 0.501139 0.943637 -0.089835
C10   C     C_R   0.626603 0.501156 0.056365 -0.089841
C11   C     C_R   0.492744 0.508986 0.969874 -0.098438
C12   C     C_R   0.507206 0.509068 0.030124 -0.098421
C13   C     C_R   0.597770 0.514900 0.935886 -0.080261
C14   C     C_R   0.402181 0.515216 0.064107 -0.080301
C15   C     C_R   0.269479 0.491981 0.978012 0.169935
C16   C     C_R   0.730465 0.491853 0.021993 0.169823
C17   C     C_R   0.282993 0.511021 0.037649 0.149790
C18   C     C_R   0.716954 0.510717 0.962347 0.149862
O9    O     O_2   0.676444 0.526873 0.841393 -0.536700
O10   O     O_2   0.323524 0.527749 0.158591 -0.536750
O11   O     O_2   0.249852 0.500084 0.856154 -0.518183
O12   O     O_2   0.750066 0.500006 0.143858 -0.518139
C19   C     C_R   0.542145 0.378730 0.237303 0.059123
C20   C     C_R   0.457373 0.378587 0.762637 0.059235
C21   C     C_R   0.533060 0.376474 0.296794 0.556647
C22   C     C_R   0.466509 0.376411 0.703148 0.556485
C23   C     C_R   0.527555 0.498746 0.327642 -0.288258
C24   C     C_R   0.472387 0.498725 0.672355 -0.288235
C25   C     C_R   0.547038 0.621273 0.299140 -0.416013
C26   C     C_R   0.453223 0.621258 0.700908 -0.415882
H1    H     H_    0.555360 0.715232 0.322362 0.218022
H2    H     H_    0.445148 0.715278 0.677728 0.217986
C27   C     C_R   0.554798 0.624158 0.240090 0.679064
C28   C     C_R   0.445466 0.624066 0.759958 0.678877
C29   C     C_R   0.548274 0.503635 0.209070 0.090503
C30   C     C_R   0.451623 0.503464 0.790926 0.090605
C31   C     C_R   0.063136 0.380396 0.503087 -0.198638
C32   C     C_R   0.936305 0.625677 0.499418 -0.175874
C33   C     C_R   0.936874 0.380389 0.496936 -0.198737
C34   C     C_R   0.063687 0.625680 0.500553 -0.175915
H3    H     H_    0.110000 0.285022 0.508143 0.164822
H4    H     H_    0.888235 0.721653 0.499347 0.146762
H5    H     H_    0.890020 0.285006 0.491899 0.164781
H6    H     H_    0.111750 0.721656 0.500602 0.146760
C35   C     C_R   0.872664 0.502332 0.497838 -0.008388
C36   C     C_R   0.127337 0.502338 0.502159 -0.008391
C37   C     C_R   0.576203 0.072303 0.537457 0.188717
C38   C     C_R   0.423472 0.927257 0.462733 0.157696
C39   C     C_R   0.423783 0.072287 0.462549 0.188627
C40   C     C_R   0.576538 0.927273 0.537263 0.157689
N3    N     N_R   0.500000 0.857200 0.500000 -0.131381
N4    N     N_R   0.500000 0.142800 0.500000 -0.127529
N5    N     N_2   0.152483 0.456900 0.952862 -0.259153
H7    H     H_    0.079290 0.507850 0.969120 0.213933
C41   C     C_3   0.132785 0.312537 0.947390 -0.719254
H8    H     H_    0.125574 0.265531 0.990304 0.207823
H9    H     H_    0.209878 0.264573 0.924809 0.261849
H10   H     H_    0.046425 0.292816 0.921888 0.239126
N6    N     N_2   0.847474 0.456888 0.047160 -0.259139
H11   H     H_    0.920638 0.507867 0.030896 0.213915
C42   C     C_3   0.867265 0.312547 0.052665 -0.719090
H12   H     H_    0.874497 0.265470 0.009762 0.207796
H13   H     H_    0.790208 0.264571 0.075262 0.261898
H14   H     H_    0.953647 0.292933 0.078166 0.239076
N7    N     N_2   0.176789 0.518648 0.071375 -0.260993
H15   H     H_    0.111909 0.444970 0.063054 0.222265
C43   C     C_3   0.126930 0.653511 0.077212 -0.666168
H16   H     H_    0.049033 0.651060 0.106696 0.262608
H17   H     H_    0.092989 0.692836 0.035009 0.190274
H18   H     H_    0.198683 0.723100 0.095369 0.265529
N8    N     N_2   0.823161 0.518263 0.928620 -0.260948
H19   H     H_    0.888082 0.444659 0.936992 0.222294
C44   C     C_3   0.872944 0.653131 0.922697 -0.666142
H20   H     H_    0.950849 0.650605 0.893217 0.262649
H21   H     H_    0.906854 0.692643 0.964876 0.190267
H22   H     H_    0.801156 0.722606 0.904490 0.265547
N9    N     N_2   0.547087 0.255928 0.205747 -0.287967
H23   H     H_    0.610246 0.188123 0.223187 0.278404
C45   C     C_3   0.428470 0.193076 0.193834 -0.667088
H24   H     H_    0.440909 0.101567 0.167117 0.242891
H25   H     H_    0.365751 0.263211 0.169864 0.251699
H26   H     H_    0.385684 0.162417 0.234324 0.261433
N10   N     N_2   0.451987 0.255745 0.794133 -0.287932
H27   H     H_    0.388691 0.188182 0.776619 0.278350
C46   C     C_3   0.570394 0.192475 0.806102 -0.666871
H28   H     H_    0.557600 0.100915 0.832741 0.243145
H29   H     H_    0.633203 0.262331 0.830176 0.251543
H30   H     H_    0.613261 0.161810 0.765630 0.261372
F1    F     F_    0.529543 0.255129 0.323730 -0.685341
F2    F     F_    0.469691 0.255096 0.676158 -0.685215
F3    F     F_    0.564667 0.744469 0.212696 -0.649408
F4    F     F_    0.435960 0.744364 0.787404 -0.649595
N11   N     N_2   0.649527 0.145593 0.578467 -0.230358
H31   H     H_    0.621272 0.136497 0.619814 0.284683
C47   C     C_3   0.781979 0.138325 0.573851 -0.778202
H32   H     H_    0.823506 0.069972 0.606778 0.221066
H33   H     H_    0.821446 0.240033 0.582226 0.258202
H34   H     H_    0.807589 0.101339 0.530995 0.221330
N12   N     N_2   0.339907 0.853159 0.426416 -0.255935
H35   H     H_    0.248998 0.857765 0.437537 0.214807
C48   C     C_3   0.358572 0.858411 0.365422 -0.695429
H36   H     H_    0.288742 0.923993 0.343571 0.216540
H37   H     H_    0.346250 0.755584 0.347264 0.254200
H38   H     H_    0.451864 0.897231 0.356128 0.242411
N13   N     N_2   0.350390 0.145563 0.421565 -0.230312
H39   H     H_    0.378601 0.136463 0.380213 0.284896
C49   C     C_3   0.217946 0.138177 0.426199 -0.778317
H40   H     H_    0.176462 0.069714 0.393297 0.221058
H41   H     H_    0.178385 0.239830 0.417796 0.258202
H42   H     H_    0.192391 0.101261 0.469071 0.221393
N14   N     N_2   0.660176 0.853199 0.573548 -0.255885
H43   H     H_    0.751070 0.857893 0.562409 0.214787
C50   C     C_3   0.641583 0.858415 0.634548 -0.695593
H44   H     H_    0.711440 0.923973 0.656396 0.216512
H45   H     H_    0.653930 0.755576 0.652683 0.254180
H46   H     H_    0.548310 0.897250 0.643872 0.242357

loop_
_geom_bond_atom_site_label_1
_geom_bond_atom_site_label_2
_geom_bond_distance
_ccdc_geom_bond_type
C22   C24   1.410061 A    
C15   C17   1.408644 A    
C47   H33   1.107572 S    
C42   H12   1.110844 S    
N10   H27   1.031636 S    
N1    C30   1.424000 S    
O3    C2    1.287199 A    
C19   C29   1.403057 A    
N2    C29   1.424000 S    
C46   H28   1.110416 S    
N14   H43   1.030087 S    
C23   C25   1.402427 A    
C44   H20   1.110278 S    
O5    C3    1.301251 A    
N11   C47   1.446533 S    
C37   N4    1.371727 A    
C32   H4    1.082760 S    
C1    C36   1.439273 S    
C38   N3    1.368833 A    
O1    C1    1.287202 A    
C19   C21   1.397686 A    
C12   C14   1.414080 A    
N13   C49   1.446541 S    
N14   C50   1.448149 S    
C26   C28   1.386010 A    
C18   N8    1.421838 S    
O7    Zn1   1.995946 S    
C27   F3    1.357115 S    
N1    C7    1.358173 A    
N12   H35   1.030080 S    
C31   C33   1.371745 A    
C50   H46   1.111267 S    
C32   C34   1.380960 A    
C11   C12   1.410999 A    
C33   C35   1.392989 A    
N9    C45   1.446548 S    
N2    C8    1.358187 A    
O3    Zn1   2.023599 S    
C48   H38   1.111271 S    
C8    O12   1.349413 S    
N7    C43   1.447331 S    
C9    C15   1.410754 A    
C10   C16   1.410800 A    
C25   H1    1.078014 S    
C2    C35   1.439281 S    
O2    C2    1.294813 A    
C26   H2    1.077943 S    
C40   N14   1.421764 S    
C46   H29   1.108700 S    
C27   C29   1.395275 A    
C6    C14   1.407198 A    
C28   C30   1.395295 A    
C44   H21   1.110228 S    
C39   N13   1.421075 S    
C41   H8    1.110847 S    
C7    O11   1.349424 S    
C45   H24   1.110384 S    
C43   H17   1.110222 S    
N5    C41   1.448297 S    
N7    H15   1.026457 S    
C28   F4    1.357119 S    
C31   C36   1.392988 A    
C38   C39   1.434053 A    
C41   H9    1.111526 S    
C4    C24   1.469308 S    
C39   N4    1.371754 A    
C40   N3    1.368864 A    
C15   N5    1.421515 S    
C45   H25   1.108698 S    
N8    H19   1.026438 S    
Zn1   N3    2.017915 S    
O6    C4    1.295470 A    
Zn2   N4    2.017915 S    
N12   C48   1.448168 S    
C37   N11   1.421083 S    
C3    C23   1.469287 S    
C49   H41   1.107574 S    
C34   C36   1.401247 A    
C19   N9    1.422661 S    
C6    N2    1.360271 A    
N8    C44   1.447332 S    
C8    C10   1.408908 A    
C9    C11   1.414301 A    
O8    Zn2   1.995948 S    
C50   H44   1.107360 S    
C47   H34   1.111182 S    
C10   C12   1.414331 A    
C16   N6    1.421516 S    
O1    Zn1   2.023618 S    
C42   H13   1.111525 S    
C47   H32   1.107322 S    
C20   C22   1.397689 A    
C46   H30   1.111532 S    
N6    C42   1.448293 S    
C48   H36   1.107371 S    
C44   H22   1.111153 S    
C13   C18   1.412754 A    
C5    N1    1.360281 A    
C37   C40   1.434047 A    
O6    Zn2   1.995880 S    
C7    C9    1.408888 A    
C32   C35   1.401254 A    
C49   H42   1.111185 S    
O4    C1    1.294806 A    
C43   H18   1.111156 S    
C49   H40   1.107336 S    
N10   C46   1.446524 S    
C5    O9    1.349961 S    
C6    O10   1.349959 S    
N11   H31   1.028512 S    
C41   H10   1.108661 S    
C16   C18   1.408654 A    
N6    H11   1.025136 S    
C22   F2    1.356262 S    
C38   N12   1.421768 S    
N13   H39   1.028474 S    
C45   H26   1.111532 S    
C21   F1    1.356209 S    
C20   N10   1.422667 S    
C31   H3    1.075741 S    
C24   C26   1.402379 A    
C42   H14   1.108668 S    
C20   C30   1.403058 A    
C33   H5    1.075735 S    
C11   C13   1.414052 A    
O4    Zn2   2.023600 S    
O2    Zn2   2.023617 S    
O7    C4    1.301319 A    
C5    C13   1.407233 A    
O8    C3    1.295530 A    
C43   H16   1.110278 S    
O5    Zn1   1.995882 S    
C17   N7    1.421846 S    
C14   C17   1.412773 A    
C21   C23   1.409982 A    
N5    H7    1.025126 S    
C50   H45   1.107886 S    
C25   C27   1.386042 A    
N9    H23   1.031601 S    
C34   H6    1.082762 S    
C48   H37   1.107889 S    
