data_mof_unit_41173.cif
_audit_creation_date              2013-03-05T15:45:59-0500
_audit_creation_method            fapswitch 2.2
_symmetry_space_group_name_H-M    P1
_symmetry_Int_Tables_number       1
_space_group_crystal_system       triclinic
_cell_length_a                    8.716477
_cell_length_b                    15.169416
_cell_length_c                    19.31898
_cell_angle_alpha                 98.847358
_cell_angle_beta                  94.934976
_cell_angle_gamma                 98.260433
_cell_volume                      2482.533907

loop_
_atom_site_label
_atom_site_type_symbol
_atom_site_description
_atom_site_fract_x
_atom_site_fract_y
_atom_site_fract_z
_atom_type_partial_charge
P1    P     P_3+3 0.990670 0.707470 0.561860 0.641022
O1    O     O_2   0.164990 0.721870 0.541490 -0.297542
O2    O     O_3   0.893010 0.608480 0.539150 -0.293491
O3    O     O_3   0.389100 0.667490 0.413860 -0.338272
O4    O     O_2   0.306862 0.820346 0.463235 -0.312567
O5    O     O_3   0.014705 0.763311 0.651199 -0.649145
O6    O     O_3   0.422965 0.820562 0.344296 -0.609165
H1    H     H_    0.504268 0.709447 0.292158 0.152550
C1    C     C_3   0.491908 0.812262 0.222794 -0.211652
P2    P     P_3+3 0.340140 0.430100 0.338890 0.490141
P3    P     P_3+3 0.921315 0.603108 0.284291 0.530429
O7    O     O_2   0.172070 0.457600 0.329050 -0.392711
O8    O     O_3   0.964370 0.622050 0.377340 -0.408484
O9    O     O_2   0.044035 0.551288 0.251231 -0.370020
O10   O     O_3   0.319702 0.311698 0.313929 -0.628891
O11   O     O_3   0.952794 0.706860 0.254818 -0.462300
C2    C     C_3   0.076684 0.763904 0.297606 0.551582
H2    H     H_    0.184308 0.734945 0.290667 0.136266
H3    H     H_    0.057985 0.772886 0.354232 0.119600
C3    C     C_3   0.091070 0.856676 0.275748 -0.789614
H4    H     H_    0.192658 0.902222 0.306650 0.270406
H5    H     H_    0.104106 0.850956 0.218747 0.277530
C4    C     C_3   0.707610 0.303167 0.307624 0.116065
H6    H     H_    0.614510 0.326998 0.337786 0.116459
H7    H     H_    0.782889 0.362472 0.294396 0.030388
C5    C     C_3   0.631943 0.239271 0.238144 0.025713
Ba1   Ba    Ba6+2 0.161750 0.544670 0.467760 1.741137
C6    C     C_3   0.036732 0.720314 0.710392 0.914480
C7    C     C_3   0.048423 0.794540 0.775741 -0.830742
H8    H     H_    0.151966 0.846924 0.776460 0.241554
H9    H     H_    0.058850 0.767050 0.825738 0.286653
H10   H     H_    0.944992 0.828122 0.773972 0.259908
C8    C     C_3   0.187284 0.262704 0.334406 0.161683
H11   H     H_    0.122844 0.305449 0.369082 0.105163
C9    C     C_3   0.073141 0.221213 0.269687 -0.055594
H12   H     H_    0.031416 0.277793 0.247713 0.061913
H13   H     H_    0.974445 0.178566 0.286706 0.165765
P4    P     P_3+3 0.819620 0.292520 0.438080 0.517155
O12   O     O_2   0.645300 0.278070 0.458480 -0.377837
O13   O     O_3   0.917280 0.391520 0.460790 -0.336404
O14   O     O_3   0.421200 0.332510 0.586090 -0.377407
O15   O     O_3   0.802663 0.257782 0.346414 -0.594305
P5    P     P_3+3 0.892922 0.390717 0.715443 0.513587
O16   O     O_3   0.383620 0.545480 0.584560 -0.264157
O17   O     O_3   0.845920 0.377940 0.622610 -0.354341
O18   O     O_2   0.786757 0.453541 0.750640 -0.307343
O19   O     O_3   0.834808 0.288551 0.745542 -0.578189
Ba2   Ba    Ba6+2 0.648430 0.455320 0.532180 1.747183
P6    P     P_3+3 0.442870 0.785111 0.427158 0.544842
C10   C     C_3   0.524545 0.784480 0.297696 0.233998
O20   O     O_3   0.426680 0.454510 0.415380 -0.306394
C11   C     C_3   0.549552 0.763784 0.705892 0.182793
C12   C     C_3   0.586449 0.828801 0.779097 -0.672511
H14   H     H_    0.472136 0.831353 0.800443 0.172517
P7    P     P_3+3 0.471188 0.568825 0.674238 0.664236
O21   O     O_2   0.638220 0.542340 0.670930 -0.265436
O22   O     O_3   0.486967 0.679587 0.723835 -0.521113
H15   H     H_    0.985365 0.887237 0.285634 0.250985
C13   C     C_3   0.787929 0.215523 0.689421 0.200568
H16   H     H_    0.701194 0.232906 0.650410 0.119705
C14   C     C_3   0.709197 0.135541 0.720963 -0.009137
H17   H     H_    0.626320 0.160606 0.756324 0.105956
H18   H     H_    0.797734 0.110836 0.754640 0.166305
P8    P     P_3+3 0.367049 0.215050 0.578129 0.519036
C15   C     C_3   0.340289 0.250983 0.714163 0.298691
H19   H     H_    0.254046 0.288527 0.690981 -0.000618
O23   O     O_2   0.496005 0.172990 0.541046 -0.368897
O24   O     O_3   0.381628 0.184328 0.662677 -0.505012
H20   H     H_    0.148619 0.165947 0.749653 0.250160
C16   C     C_3   0.260866 0.207228 0.772148 -0.576563
H21   H     H_    0.232811 0.260846 0.812706 0.121916
C17   C     C_R   0.640692 0.835437 0.476477 0.261500
H22   H     H_    0.669145 0.706942 0.501045 0.217274
C18   C     C_R   0.890846 0.792303 0.517160 0.253815
C19   C     C_R   0.080435 0.230578 0.505057 -0.099536
C20   C     C_R   0.171048 0.170080 0.529456 0.132428
C21   C     C_R   0.107604 0.078613 0.524529 -0.069284
C22   C     C_R   0.951166 0.044880 0.496679 0.097936
C23   C     C_R   0.860292 0.108599 0.471896 -0.101369
C24   C     C_R   0.879783 0.951362 0.496410 0.087645
C25   C     C_R   0.714891 0.926628 0.476933 -0.161355
C26   C     C_R   0.629687 0.993329 0.456797 0.346343
C27   C     C_R   0.704474 0.077563 0.447721 -0.118964
C28   C     C_R   0.964608 0.882464 0.516881 -0.224195
C29   C     C_R   0.729450 0.772800 0.498452 -0.265934
C30   C     C_R   0.923920 0.203368 0.476804 0.127190
H23   H     H_    0.087699 0.897499 0.534179 0.187115
H24   H     H_    0.177900 0.037114 0.549076 0.201579
H25   H     H_    0.632303 0.122515 0.429457 0.229203
C31   C     C_R   0.617373 0.518849 0.297036 -0.455805
C32   C     C_R   0.459062 0.483825 0.274796 0.147791
C33   C     C_R   0.402158 0.476908 0.201810 -0.225704
C34   C     C_R   0.506152 0.503373 0.152421 0.072871
C35   C     C_R   0.663066 0.539788 0.178289 -0.041816
C36   C     C_R   0.718595 0.547248 0.249812 0.239891
C37   C     C_R   0.482292 0.573430 0.043026 -0.163054
C38   C     C_R   0.432864 0.573913 0.971618 -0.064689
C39   C     C_R   0.357011 0.492612 0.927842 0.112933
C40   C     C_R   0.331877 0.414601 0.958082 -0.141767
C41   C     C_R   0.380911 0.414155 0.029053 -0.015192
C42   C     C_R   0.456408 0.495167 0.073878 0.111562
C43   C     C_R   0.149621 0.444519 0.823790 -0.245925
C44   C     C_R   0.098133 0.437467 0.751924 0.256138
C45   C     C_R   0.358810 0.502382 0.730925 0.200080
C46   C     C_R   0.409790 0.510748 0.803181 -0.115328
C47   C     C_R   0.304743 0.484014 0.850726 0.101983
C48   C     C_R   0.202115 0.469983 0.707774 -0.312828
H26   H     H_    0.528567 0.541641 0.822696 0.146929
H27   H     H_    0.536675 0.636187 0.075789 0.171510
H28   H     H_    0.276203 0.351821 0.925167 0.134108
H29   H     H_    0.068053 0.421595 0.858958 0.175359
H30   H     H_    0.743496 0.561545 0.142259 0.165048
H31   H     H_    0.155812 0.482834 0.658294 0.238450
N1    N     N_R   0.513382 0.166874 0.251744 0.276933
O25   O     O_R   0.434071 0.111030 0.198519 -0.299277
O26   O     O_R   0.512310 0.144648 0.313991 -0.350813
C49   C     C_2   0.557113 0.296256 0.193431 0.226285
H32   H     H_    0.432510 0.295742 0.189885 0.131208
O27   O     O_2   0.638186 0.346619 0.162778 -0.651274
C50   C     C_2   0.748606 0.196563 0.195506 0.629163
H33   H     H_    0.826900 0.237365 0.167842 0.046156
O28   O     O_2   0.752833 0.115525 0.188867 -0.483692
N2    N     N_R   0.178798 0.684861 0.711737 0.166969
O29   O     O_R   0.227183 0.659672 0.770027 -0.395527
O30   O     O_R   0.207110 0.642122 0.652275 -0.419853
N3    N     N_R   0.914035 0.645459 0.711421 0.223319
O31   O     O_R   0.917064 0.571658 0.667738 -0.313911
O32   O     O_R   0.845390 0.639994 0.768218 -0.441712
C51   C     C_2   0.238922 0.190893 0.372715 0.597974
H34   H     H_    0.343510 0.207559 0.409812 0.100356
O33   O     O_2   0.164121 0.114781 0.364413 -0.561412
N4    N     N_R   0.350498 0.756200 0.182832 0.219902
O34   O     O_R   0.285108 0.782407 0.127961 -0.387759
O35   O     O_R   0.317908 0.671208 0.188086 -0.374345
N5    N     N_R   0.140231 0.164559 0.216211 0.299403
O36   O     O_R   0.167549 0.193710 0.157985 -0.335982
O37   O     O_R   0.123798 0.077916 0.216283 -0.270028
C52   C     C_2   0.691736 0.817912 0.326943 0.422230
H35   H     H_    0.742709 0.888084 0.330446 0.066815
O38   O     O_2   0.769640 0.766038 0.349416 -0.618615
C53   C     C_2   0.623941 0.801594 0.177467 0.522841
H36   H     H_    0.651167 0.847927 0.140972 0.081002
O39   O     O_2   0.696275 0.738739 0.178483 -0.573139
C54   C     C_2   0.688748 0.759544 0.667196 0.483586
H37   H     H_    0.776797 0.818492 0.671748 0.078611
O40   O     O_2   0.691443 0.695033 0.621954 -0.561318
C55   C     C_2   0.430068 0.801686 0.662012 0.648907
H38   H     H_    0.331542 0.824967 0.685353 0.023318
O41   O     O_2   0.447129 0.813021 0.601789 -0.545572
C56   C     C_2   0.680465 0.791779 0.834511 0.731217
H39   H     H_    0.655438 0.720837 0.838643 0.080234
O42   O     O_2   0.778677 0.841085 0.877845 -0.546328
C57   C     C_2   0.650765 0.925727 0.775999 0.622096
H40   H     H_    0.576454 0.976885 0.785004 0.069883
O43   O     O_2   0.785817 0.948050 0.765606 -0.553544
C58   C     C_2   0.471861 0.911093 0.232265 0.602237
H41   H     H_    0.362638 0.930755 0.214171 0.128996
O44   O     O_2   0.578976 0.970289 0.260005 -0.522183
C59   C     C_2   0.927559 0.192421 0.654019 0.437531
H42   H     H_    0.997636 0.243824 0.632573 0.010551
O45   O     O_2   0.966267 0.117910 0.650516 -0.562813
N6    N     N_R   0.625969 0.060994 0.667379 0.266308
O46   O     O_R   0.703096 0.010633 0.627439 -0.342619
O47   O     O_R   0.479703 0.031395 0.670776 -0.329033
C60   C     C_2   0.483253 0.318174 0.744128 0.416837
H43   H     H_    0.542239 0.356616 0.708994 0.105850
O48   O     O_2   0.533014 0.331386 0.806531 -0.594174
C61   C     C_2   0.354995 0.148124 0.807804 0.761589
H44   H     H_    0.458211 0.177760 0.843804 0.020725
O49   O     O_2   0.313023 0.066469 0.798558 -0.550558
N7    N     N_R   0.465953 0.985354 0.460228 0.257035
O50   O     O_R   0.376553 0.006095 0.409805 -0.358723
O51   O     O_R   0.415578 0.983265 0.521404 -0.317536
N8    N     N_R   0.145468 0.323208 0.514378 0.238688
O52   O     O_R   0.258266 0.351395 0.479937 -0.371810
O53   O     O_R   0.106003 0.378088 0.564886 -0.411374
C62   C     C_2   0.456412 0.662352 0.947558 0.547794
H45   H     H_    0.547091 0.715902 0.975185 0.025050
O54   O     O_2   0.370675 0.678455 0.899527 -0.521529
C63   C     C_2   0.236218 0.440383 0.177349 0.739343
H46   H     H_    0.174836 0.387619 0.200862 0.012311
O55   O     O_2   0.164982 0.469898 0.131115 -0.508271
C64   C     C_2   0.354214 0.325424 0.051017 0.481243
H47   H     H_    0.451282 0.291371 0.062316 0.091795
O56   O     O_2   0.221552 0.285269 0.048360 -0.498872
C65   C     C_2   0.682406 0.524151 0.370193 0.713418
H48   H     H_    0.761458 0.479403 0.384085 -0.005239
O57   O     O_2   0.655214 0.583148 0.415208 -0.560993

loop_
_geom_bond_atom_site_label_1
_geom_bond_atom_site_label_2
_geom_bond_distance
_ccdc_geom_bond_type
Ba1   Ba2   4.758608 S    
P2    Ba1   3.427566 S    
P4    O13   1.593164 S    
N7    O50   1.299721 A    
C12   C57   1.508533 S    
C60   H43   1.077374 S    
C55   H38   1.081847 S    
C28   H23   1.076751 S    
Ba2   O21   2.814594 S    
C24   C28   1.447172 A    
C17   C29   1.400147 A    
C6    N2    1.418962 S    
N2    O29   1.299602 A    
C21   C22   1.413962 A    
C50   H33   1.085155 S    
N7    O51   1.298994 A    
C11   C54   1.482821 S    
C4    O15   1.392061 S    
O17   Ba2   2.843794 S    
P4    C30   1.939745 S    
P1    C18   1.921755 S    
P8    O24   1.765438 S    
C6    C7    1.542603 S    
C9    H13   1.104927 S    
C5    C50   1.517095 S    
P4    O15   1.755309 S    
C7    H10   1.097953 S    
P2    O10   1.765530 S    
C64   O56   1.220073 D    
P4    O12   1.595624 D    
P3    O9    1.541029 D    
C22   C24   1.463958 A    
N2    O30   1.290919 A    
C8    C51   1.506169 S    
C15   C16   1.550732 S    
C15   C60   1.502089 S    
O2    Ba2   2.896911 S    
C2    C3    1.521748 S    
O13   Ba2   3.021194 S    
P1    O1    1.595391 D    
C4    C5    1.562036 S    
C35   H30   1.083088 S    
C14   H18   1.109514 S    
C41   C64   1.465807 S    
N8    O52   1.292865 A    
C48   H31   1.062164 S    
C33   C63   1.481216 S    
C8    C9    1.520931 S    
C13   C59   1.504624 S    
Ba1   O16   2.840010 S    
Ba2   O20   2.839370 S    
O5    C6    1.413370 S    
C9    H12   1.106506 S    
C1    C58   1.519222 S    
C6    N3    1.447492 S    
N4    O34   1.302849 A    
C62   O54   1.217383 D    
P6    C17   1.891876 S    
C4    H6    1.108877 S    
C5    C49   1.487830 S    
C16   H21   1.108765 S    
C57   O43   1.219743 D    
P4    Ba2   3.431448 S    
C17   C25   1.438793 A    
C14   H17   1.103190 S    
C61   O49   1.220875 D    
C13   H16   1.108827 S    
C60   O48   1.221652 D    
C37   C42   1.406914 A    
C19   N8    1.415593 S    
O4    P6    1.544844 D    
C43   H29   1.082950 S    
C43   C44   1.404898 A    
P2    O20   1.565051 S    
C45   C46   1.408815 A    
C50   O28   1.222434 D    
C38   C39   1.421980 A    
N6    O47   1.300122 A    
C27   H25   1.069718 S    
C46   H26   1.082918 S    
C13   C14   1.540916 S    
O7    Ba1   2.814333 S    
C14   N6    1.466855 S    
P8    O23   1.545251 D    
N5    O36   1.298638 A    
C20   C21   1.403528 A    
C21   H24   1.072049 S    
C54   O40   1.212095 D    
C52   H35   1.082513 S    
C9    N5    1.457083 S    
C32   C33   1.436800 A    
C1    C53   1.516828 S    
C22   C23   1.445004 A    
O11   C2    1.398613 S    
C31   C65   1.462667 S    
C12   H14   1.114111 S    
C40   H28   1.083801 S    
P7    C45   1.847991 S    
C25   C26   1.419134 A    
P1    O5    1.782519 S    
P1    O2    1.593038 S    
C53   O39   1.217945 D    
C58   O44   1.220756 D    
C19   C20   1.401961 A    
C5    N1    1.467123 S    
C64   H47   1.076498 S    
C7    H8    1.111121 S    
C16   C61   1.501873 S    
P3    O11   1.747834 S    
C19   C30   1.403666 A    
C38   C62   1.478881 S    
C59   H42   1.076489 S    
Ba1   O13   2.896216 S    
C15   O24   1.413693 S    
H22   C29   1.070471 S    
C37   C38   1.410872 A    
P7    O21   1.568891 D    
C59   O45   1.219004 D    
C2    H2    1.101317 S    
P8    C20   1.860023 S    
C35   C36   1.406207 A    
C34   C35   1.416322 A    
C11   C12   1.574116 S    
C45   C48   1.393371 A    
P5    O17   1.779240 S    
O6    P6    1.767971 S    
O1    Ba1   2.837012 S    
P2    O7    1.583793 D    
C62   H45   1.085832 S    
C61   H44   1.084052 S    
C3    H5    1.108191 S    
P2    C32   1.886899 S    
C26   C27   1.392005 A    
C11   C55   1.517888 S    
P7    O22   1.782064 S    
C12   C56   1.516324 S    
C56   O42   1.221979 D    
C3    H15   1.107290 S    
H1    C10   1.113417 S    
O3    Ba1   2.893691 S    
C63   H46   1.078814 S    
C44   C48   1.387883 A    
C51   H34   1.083627 S    
C37   H27   1.079343 S    
C1    N4    1.473650 S    
P3    C36   1.864841 S    
N5    O37   1.301714 A    
C26   N7    1.423031 S    
C58   H41   1.083489 S    
N3    O32   1.302129 A    
C63   O55   1.221184 D    
C55   O41   1.220341 D    
C1    C10   1.582296 S    
O6    C10   1.420857 S    
C18   C28   1.426251 A    
C24   C25   1.434119 A    
P5    C44   1.861182 S    
C31   C36   1.395179 A    
N1    O26   1.298318 A    
C10   C52   1.502677 S    
N1    O25   1.301667 A    
C52   O38   1.215206 D    
N6    O46   1.298641 A    
C46   C47   1.413900 A    
C34   C42   1.522858 S    
C39   C47   1.500148 S    
C40   C41   1.401957 A    
O3    P6    1.751334 S    
C54   H37   1.078590 S    
C49   O27   1.220560 D    
C57   H40   1.083676 S    
C7    H9    1.111209 S    
C53   H36   1.086601 S    
C23   C27   1.387057 A    
Ba1   O20   3.018452 S    
P3    O8    1.774513 S    
O16   P7    1.793210 S    
C31   C32   1.410016 A    
P5    O19   1.760369 S    
N3    O31   1.299202 A    
O2    Ba1   3.020423 S    
C33   C34   1.433636 A    
C2    H3    1.110443 S    
O14   Ba2   2.893048 S    
C8    H11   1.104763 S    
C43   C47   1.417114 A    
C15   H19   1.110675 S    
C18   C29   1.399026 A    
H20   C16   1.097883 S    
P5    O18   1.545718 D    
N8    O53   1.285952 A    
C11   O22   1.420402 S    
O19   C13   1.412054 S    
C4    H7    1.111364 S    
C3    H4    1.106445 S    
N4    O35   1.301230 A    
C39   C40   1.396376 A    
P1    Ba1   3.430886 S    
C56   H39   1.083526 S    
O8    Ba1   2.843087 S    
C41   C42   1.426672 A    
O14   P8    1.755797 S    
C65   H48   1.079918 S    
C49   H32   1.081186 S    
C65   O57   1.212603 D    
O10   C8    1.401272 S    
C23   C30   1.450231 A    
O16   Ba2   3.017554 S    
O12   Ba2   2.837628 S    
C51   O33   1.221723 D    
