data_mof_unit_52000.cif
_audit_creation_date              2012-12-10T18:22:32-0500
_audit_creation_method            fapswitch 2.2
_symmetry_space_group_name_H-M    P1
_symmetry_Int_Tables_number       1
_space_group_crystal_system       triclinic
_cell_length_a                    23.508098
_cell_length_b                    10.692164
_cell_length_c                    9.451784
_cell_angle_alpha                 90.951632
_cell_angle_beta                  89.384785
_cell_angle_gamma                 91.539946
_cell_volume                      2374.41749696

loop_
_atom_site_label
_atom_site_type_symbol
_atom_type_description
_atom_site_fract_x
_atom_site_fract_y
_atom_site_fract_z
_atom_type_partial_charge
C1    C     C_R   0.500829 0.259798 0.498882 0.834280
C2    C     C_R   0.704791 0.540896 0.615051 0.214386
C3    C     C_R   0.233101 0.473392 0.584582 -0.187211
C4    C     C_R   0.764204 0.544030 0.604284 -0.185314
C5    C     C_R   0.210310 0.543112 0.475870 0.252218
C6    C     C_R   0.791781 0.522043 0.474497 0.248197
C7    C     C_3   0.537296 0.044581 0.595369 0.256349
C8    C     C_3   0.463835 0.954447 0.407083 0.232758
C9    C     C_3   0.553756 0.957157 0.470091 -0.280968
C10   C     C_3   0.447304 0.041163 0.532715 -0.309560
C11   C     C_3   0.499950 0.875974 0.504120 -0.171192
C12   C     C_R   0.499627 0.739967 0.501326 0.796834
C13   C     C_3   0.501081 0.123318 0.497304 -0.186279
C14   C     C_3   0.484641 0.962956 0.629314 0.281480
C15   C     C_3   0.516625 0.035495 0.373026 0.301114
C16   C     C_R   0.391049 0.501926 0.500206 0.830308
C17   C     C_R   0.609084 0.501682 0.499157 0.796895
C18   C     C_3   0.539085 0.574176 0.049699 0.121077
C19   C     C_3   0.461044 0.426382 0.951944 0.130646
C20   C     C_3   0.491252 0.611261 0.951560 -0.127585
C21   C     C_3   0.509064 0.389724 0.048752 -0.131000
C22   C     C_3   0.548519 0.464153 0.947244 -0.084524
C23   C     C_R   0.247071 0.602449 0.376565 0.022788
C24   C     C_3   0.451748 0.536726 0.053308 -0.060187
C25   C     C_R   0.881414 0.638423 0.494243 0.584362
C26   C     C_R   0.120797 0.434922 0.429522 0.574171
C27   C     C_R   0.881673 0.418472 0.444613 0.582394
C28   C     C_R   0.120973 0.651545 0.496377 0.595144
C29   C     C_R   0.941310 0.420803 0.438255 -0.008571
C30   C     C_R   0.061232 0.651352 0.493620 -0.012491
C31   C     C_R   0.971182 0.534692 0.464393 -0.011810
C32   C     C_R   0.031250 0.538541 0.462319 -0.013879
C33   C     C_R   0.941143 0.644443 0.493818 -0.018450
C34   C     C_R   0.759372 0.493756 0.352224 0.013175
C35   C     C_R   0.061183 0.429190 0.430304 -0.019261
C36   C     C_R   0.971642 0.312216 0.406951 -0.150194
C37   C     C_R   0.030842 0.760261 0.523209 -0.148716
C38   C     C_R   0.030961 0.316582 0.401894 -0.155798
C39   C     C_R   0.971425 0.757039 0.522304 -0.150739
C40   C     C_2   0.583885 0.661811 0.108323 0.836655
C41   C     C_2   0.415206 0.335154 0.908013 0.801237
C42   C     C_2   0.225824 0.673154 0.254400 0.897553
C43   C     C_2   0.785596 0.479403 0.208899 0.914187
C44   C     C_3   0.308091 0.238802 0.627047 -0.595264
C45   C     C_R   0.306036 0.590371 0.391039 -0.322608
C46   C     C_3   0.662471 0.706713 0.750205 -0.604002
C47   C     C_3   0.609734 0.010935 0.772931 -0.665413
C48   C     C_3   0.383985 0.988071 0.249515 -0.647933
C49   C     C_3   0.454349 0.010733 0.872784 -0.627892
C50   C     C_3   0.589014 0.127814 0.214983 -0.663587
C51   C     C_R   0.700061 0.482509 0.365644 -0.278299
C52   C     C_R   0.328769 0.516308 0.497144 -0.082797
C53   C     C_R   0.672091 0.507247 0.494978 -0.098761
C54   C     C_R   0.291586 0.455446 0.592968 0.217396
Cu1   Cu    Cu3+1 0.500010 0.499990 0.643150 0.981317
Cu2   Cu    Cu3+1 0.499990 0.500010 0.356850 0.971976
H1    H     H_    0.949677 0.223625 0.385870 0.192334
H2    H     H_    0.675261 0.457075 0.273200 0.232907
H3    H     H_    0.204542 0.425467 0.657750 0.153295
H4    H     H_    0.789344 0.567388 0.696932 0.157493
H5    H     H_    0.596780 0.921158 0.447084 0.150623
H6    H     H_    0.404246 0.074660 0.558953 0.170771
H7    H     H_    0.603028 0.831496 0.192884 0.330806
H8    H     H_    0.345265 0.234809 0.966963 0.323103
H9    H     H_    0.243426 0.798969 0.101921 0.340630
H10   H     H_    0.776755 0.416591 0.007396 0.331921
H11   H     H_    0.292283 0.369259 0.785161 0.259198
H12   H     H_    0.052838 0.848281 0.547045 0.189215
H13   H     H_    0.324289 0.171386 0.703962 0.223599
H14   H     H_    0.334168 0.233150 0.528497 0.223745
H15   H     H_    0.263223 0.211462 0.602918 0.230405
H16   H     H_    0.701004 0.553113 0.833486 0.275664
H17   H     H_    0.701047 0.769088 0.747274 0.226785
H18   H     H_    0.638445 0.725972 0.849268 0.235736
H19   H     H_    0.634675 0.728005 0.659833 0.217392
H20   H     H_    0.601019 0.172029 0.656918 0.248125
H21   H     H_    0.633741 0.060773 0.858220 0.232947
H22   H     H_    0.640576 0.966272 0.699525 0.217848
H23   H     H_    0.484736 0.705059 0.907833 0.166494
H24   H     H_    0.581720 0.938174 0.822114 0.265161
H25   H     H_    0.405458 0.818918 0.334665 0.252505
H26   H     H_    0.361567 0.944047 0.157882 0.248614
H27   H     H_    0.405559 0.075694 0.213777 0.230841
H28   H     H_    0.352013 0.010957 0.332746 0.230504
H29   H     H_    0.436325 0.847416 0.760344 0.247208
H30   H     H_    0.451619 0.966326 0.977978 0.239857
H31   H     H_    0.412630 0.051662 0.849856 0.231024
H32   H     H_    0.487984 0.085504 0.877090 0.266336
H33   H     H_    0.501544 0.109939 0.175122 0.246759
H34   H     H_    0.516606 0.297209 0.092594 0.138015
H35   H     H_    0.597816 0.145381 0.101320 0.226602
H36   H     H_    0.622242 0.065583 0.254021 0.232016
H37   H     H_    0.591403 0.218288 0.274159 0.227884
H38   H     H_    0.589220 0.433361 0.899285 0.169504
H39   H     H_    0.411018 0.567009 0.101641 0.152510
H40   H     H_    0.053024 0.231147 0.377333 0.191651
H41   H     H_    0.949337 0.842744 0.545297 0.190753
H42   H     H_    0.334655 0.635808 0.316089 0.190123
N1    N     N_R   0.852976 0.526622 0.469876 -0.445894
N2    N     N_2   0.533207 0.069061 0.230675 -0.387884
N3    N     N_R   0.149421 0.544459 0.463885 -0.444741
N4    N     N_3   0.500040 0.499970 0.858290 -0.191505
N5    N     N_3   0.499960 0.500030 0.141710 -0.188800
N6    N     N_2   0.311441 0.364459 0.686576 -0.393862
N7    N     N_2   0.678550 0.577044 0.745168 -0.412523
N8    N     N_2   0.576556 0.099311 0.697431 -0.419077
N9    N     N_2   0.424581 0.901933 0.303368 -0.400600
N10   N     N_2   0.467529 0.916811 0.766849 -0.430769
O1    O     O_R   0.500030 0.316850 0.620870 -0.523749
O2    O     O_2   0.150088 0.331540 0.395755 -0.533216
O3    O     O_2   0.852500 0.309143 0.425678 -0.535734
O4    O     O_2   0.150384 0.757267 0.532113 -0.537180
O5    O     O_2   0.633487 0.630603 0.109096 -0.622181
O6    O     O_R   0.568947 0.780253 0.158015 -0.733166
O7    O     O_2   0.416148 0.286643 0.790784 -0.566900
O8    O     O_R   0.372919 0.300755 0.005950 -0.787415
O9    O     O_2   0.177002 0.657057 0.213271 -0.577140
O10   O     O_R   0.262436 0.757039 0.183708 -0.785461
O11   O     O_2   0.833218 0.522853 0.183853 -0.585256
O12   O     O_R   0.499970 0.683150 0.379130 -0.541940
O13   O     O_R   0.754906 0.418926 0.100450 -0.765405
O14   O     O_R   0.500000 0.316860 0.379090 -0.594193
O15   O     O_R   0.500000 0.683140 0.620910 -0.596769
O16   O     O_R   0.417890 0.499960 0.620920 -0.538708
O17   O     O_R   0.582110 0.500040 0.379080 -0.585809
O18   O     O_R   0.417870 0.499970 0.379140 -0.587705
O19   O     O_R   0.582130 0.500030 0.620860 -0.555999
O20   O     O_2   0.851948 0.743377 0.518354 -0.527933

loop_
_geom_bond_atom_site_label_1
_geom_bond_atom_site_label_2
_ccdc_geom_bond_type
Cu1   Cu2   S    
H25   N9    S    
C23   C45   A    
C27   C29   A    
C22   H38   S    
C49   H31   S    
C15   N2    S    
C29   C36   A    
C44   N6    S    
C28   O4    S    
Cu1   N4    S    
C27   N1    A    
C34   C51   A    
C33   C39   A    
C23   C42   S    
C9    H5    S    
C54   N6    S    
C19   C21   S    
C25   O20   S    
C45   H42   S    
C26   N3    A    
C8    C10   S    
C19   N4    S    
C39   H41   S    
C48   N9    S    
C20   N4    S    
C46   N7    S    
C44   H15   S    
C18   C40   S    
C1    O14   A    
C1    O1    A    
C12   O12   A    
H7    O6    S    
C28   N3    A    
C25   N1    A    
C7    C14   S    
C40   O6    S    
C20   C24   S    
H9    O10   S    
C31   C33   A    
C44   H14   S    
Cu2   O18   S    
H29   N10   S    
C43   O13   S    
C14   N10   S    
C27   O3    S    
C21   C22   S    
Cu1   O1    S    
Cu2   O12   S    
C49   H32   S    
C10   H6    S    
C47   H24   S    
C41   O7    D    
C46   H19   S    
C52   C54   A    
H11   N6    S    
C49   N10   S    
Cu1   O15   S    
C21   H34   S    
C5    N3    S    
H10   O13   S    
C43   O11   D    
H33   N2    S    
C32   C35   A    
C35   C38   A    
C37   H12   S    
C4    C6    A    
C36   H1    S    
C10   C14   S    
C24   H39   S    
C17   O19   A    
C45   C52   A    
H8    O8    S    
C10   C13   S    
C48   H28   S    
C30   C37   A    
C51   C53   A    
Cu2   O14   S    
C2    C4    A    
C26   C35   A    
C40   O5    D    
C5    C23   A    
C47   N8    S    
C4    H4    S    
C7    N8    S    
C44   H13   S    
C50   H37   S    
C51   H2    S    
Cu2   O17   S    
C9    C11   S    
C3    C54   A    
C50   H36   S    
Cu1   O19   S    
C8    C15   S    
C13   C15   S    
C1    C13   S    
C47   H21   S    
C41   O8    S    
C8    N9    S    
C17   C53   S    
C46   H18   S    
C7    C9    S    
C26   O2    S    
Cu1   O16   S    
H20   N8    S    
C20   H23   S    
C18   C22   S    
C49   H30   S    
C31   C32   A    
C42   O10   S    
C34   C43   S    
C16   C52   S    
Cu2   N5    S    
C3    C5    A    
C2    C53   A    
C11   C12   S    
C42   O9    D    
C2    N7    S    
C50   N2    S    
C22   N4    S    
C48   H27   S    
C24   N5    S    
C6    N1    S    
C28   C30   A    
C19   C24   S    
C16   O16   A    
C29   C31   A    
C30   C32   A    
C17   O17   A    
C12   O15   A    
C8    C11   S    
C36   C38   A    
C11   C14   S    
C48   H26   S    
C18   C20   S    
C18   N5    S    
C9    C15   S    
C21   N5    S    
C6    C34   A    
C50   H35   S    
C7    C13   S    
H16   N7    S    
C37   C39   A    
C38   H40   S    
C47   H22   S    
C16   O18   A    
C46   H17   S    
C19   C41   S    
C25   C33   A    
C3    H3    S    
