data_mof_unit_32534.cif
_audit_creation_date              2013-03-05T15:48:45-0500
_audit_creation_method            fapswitch 2.2
_symmetry_space_group_name_H-M    P1
_symmetry_Int_Tables_number       1
_space_group_crystal_system       triclinic
_cell_length_a                    10.907463
_cell_length_b                    13.194906
_cell_length_c                    11.710452
_cell_angle_alpha                 98.790972
_cell_angle_beta                  94.526834
_cell_angle_gamma                 93.262761
_cell_volume                      1656.33275594

loop_
_atom_site_label
_atom_site_type_symbol
_atom_site_description
_atom_site_fract_x
_atom_site_fract_y
_atom_site_fract_z
_atom_type_partial_charge
O1    O     O_R   0.506640 0.354460 0.582000 -0.526614
O2    O     O_R   0.490840 0.341410 0.386200 -0.557213
C1    C     C_R   0.499490 0.299417 0.479816 0.921853
O3    O     O_R   0.325590 0.506510 0.597900 -0.491325
O4    O     O_R   0.309790 0.493450 0.402100 -0.553147
C2    C     C_R   0.259638 0.491971 0.498395 0.997564
Cu1   Cu    Cu3+1 0.509350 0.507730 0.615930 1.159327
Cu2   Cu    Cu3+1 0.490650 0.492270 0.384070 1.104609
O5    O     O_R   0.509160 0.658590 0.613800 -0.519956
O6    O     O_R   0.493360 0.645540 0.418000 -0.569219
O7    O     O_R   0.690210 0.506550 0.597900 -0.547059
O8    O     O_R   0.674410 0.493490 0.402100 -0.549302
C3    C     C_R   0.499561 0.700319 0.520320 0.930889
C4    C     C_R   0.740055 0.500459 0.500301 0.948474
C5    C     C_3   0.076970 0.437519 0.603954 0.417683
C6    C     C_3   0.928711 0.432606 0.596956 0.499864
C7    C     C_3   0.085716 0.606566 0.511861 0.517190
C8    C     C_3   0.049253 0.422728 0.384392 -0.030806
C9    C     C_3   0.120925 0.489657 0.497352 -0.354536
H1    H     H_    0.048825 0.341788 0.396745 0.247561
C10   C     C_3   0.877791 0.498425 0.500093 -0.336495
C11   C     C_3   0.941328 0.613153 0.522793 0.353606
C12   C     C_3   0.912101 0.446921 0.377068 0.069759
H2    H     H_    0.897037 0.501357 0.315350 0.247868
C13   C     C_R   0.491140 0.812406 0.530896 -0.188023
C14   C     C_R   0.504189 0.186706 0.470561 -0.185109
C15   C     C_R   0.541764 0.023505 0.358890 -0.132549
C16   C     C_R   0.538265 0.129784 0.367707 0.395011
C17   C     C_R   0.476475 0.135887 0.564838 0.295388
C18   C     C_R   0.480448 0.027949 0.555703 -0.074567
C19   C     C_R   0.513719 0.971990 0.451054 -0.095688
C20   C     C_R   0.517950 0.864828 0.438481 0.286990
C21   C     C_R   0.455271 0.866994 0.634435 0.311846
C22   C     C_R   0.448402 0.974199 0.646757 0.367318
H3    H     H_    0.567080 0.981542 0.278417 0.203945
N1    N     N_R   0.523430 0.519360 0.790130 -0.277068
N2    N     N_R   0.476570 0.480640 0.209880 -0.245322
C23   C     C_R   0.407591 0.381458 0.021679 0.365067
C24   C     C_R   0.418572 0.394630 0.144376 0.075177
C25   C     C_R   0.535946 0.551659 0.157347 0.213448
C26   C     C_R   0.531080 0.541765 0.034786 -0.152301
C27   C     C_R   0.460261 0.459046 0.965186 -0.174954
C28   C     C_R   0.449227 0.455596 0.841432 0.607438
C29   C     C_R   0.598985 0.596145 0.859067 0.375914
C30   C     C_R   0.598100 0.612120 0.981762 0.302555
H4    H     H_    0.384416 0.333582 0.187363 0.185734
H5    H     H_    0.590300 0.614359 0.211606 0.240045
O9    O     O_3   0.128837 0.499488 0.707673 -0.643528
H6    H     H_    0.113090 0.463649 0.774210 0.358520
N3    N     N_R   0.128338 0.655258 0.414134 0.131382
O10   O     O_R   0.224769 0.720294 0.430971 -0.322003
O11   O     O_R   0.069150 0.638587 0.311652 -0.241869
N4    N     N_R   0.890632 0.682632 0.444839 0.128025
O12   O     O_R   0.927554 0.779821 0.466037 -0.226267
O13   O     O_R   0.802879 0.653283 0.362851 -0.334292
N5    N     N_R   0.549006 0.809566 0.330740 0.119608
O14   O     O_R   0.663413 0.811769 0.306677 -0.256470
O15   O     O_R   0.462066 0.780293 0.247610 -0.307098
O16   O     O_3   0.423271 0.813725 0.721892 -0.648528
H7    H     H_    0.446907 0.857328 0.797989 0.364118
O17   O     O_3   0.409680 0.026074 0.747471 -0.628997
H8    H     H_    0.339070 0.985097 0.770007 0.358257
O18   O     O_3   0.570310 0.179415 0.277331 -0.668122
H9    H     H_    0.592094 0.128422 0.212036 0.347003
N6    N     N_R   0.441761 0.193926 0.669033 0.208756
O19   O     O_R   0.525619 0.225913 0.754264 -0.235737
O20   O     O_R   0.325912 0.193172 0.688092 -0.184119
O21   O     O_3   0.361053 0.392528 0.770706 -0.578674
H10   H     H_    0.288605 0.384341 0.814872 0.371695
N7    N     N_R   0.121982 0.333405 0.605107 0.148481
O22   O     O_R   0.197261 0.294154 0.532176 -0.356479
O23   O     O_R   0.092127 0.281607 0.686225 -0.235774
N8    N     N_R   0.686660 0.657372 0.809894 0.122125
O24   O     O_R   0.656206 0.745985 0.785715 -0.349738
O25   O     O_R   0.802243 0.648706 0.840178 -0.299865
O26   O     O_3   0.355150 0.290513 0.957593 -0.633231
H11   H     H_    0.324068 0.245208 0.010725 0.355250
O27   O     O_3   0.666552 0.692982 0.052068 -0.621162
H12   H     H_    0.689250 0.746910 0.005998 0.392455
N9    N     N_R   0.871175 0.325409 0.569061 0.187671
O28   O     O_R   0.778814 0.298676 0.624696 -0.253619
O29   O     O_R   0.911105 0.254701 0.493824 -0.273507
O30   O     O_3   0.889346 0.470734 0.707027 -0.631784
H13   H     H_    0.936774 0.534182 0.744287 0.418796
O31   O     O_3   0.150380 0.660151 0.615084 -0.594220
H14   H     H_    0.133770 0.733967 0.621096 0.394028
O32   O     O_3   0.923224 0.659549 0.635990 -0.653798
H15   H     H_    0.837005 0.679857 0.635856 0.378595
N10   N     N_R   0.105047 0.421830 0.273542 0.181198
O33   O     O_R   0.050893 0.460268 0.188465 -0.268568
O34   O     O_R   0.179210 0.350127 0.245881 -0.355604
O35   O     O_3   0.836134 0.357243 0.333502 -0.625434
H16   H     H_    0.849324 0.338696 0.250170 0.381652

loop_
_geom_bond_atom_site_label_1
_geom_bond_atom_site_label_2
_geom_bond_distance
_ccdc_geom_bond_type
C25   H5    1.078748 S    
O32   H15   0.992368 S    
C6    C10   1.614299 S    
C26   C27   1.408920 A    
Cu1   Cu2   2.682162 S    
C23   O26   1.381765 S    
N4    O12   1.302495 A    
Cu1   O7    2.001176 S    
C2    C9    1.510620 S    
C7    O31   1.416324 S    
C4    C10   1.504307 S    
C23   C27   1.419805 A    
N2    C25   1.358699 A    
Cu1   N1    2.015130 S    
O4    C2    1.293886 A    
O7    C4    1.297422 A    
C5    C6    1.609835 S    
N5    O14   1.300524 A    
C8    C9    1.594361 S    
N8    O24   1.299302 A    
O5    C3    1.298154 A    
O30   H13   0.980975 S    
C28   O21   1.369655 S    
N6    O20   1.300156 A    
N3    O11   1.298563 A    
C12   H2    1.103922 S    
N7    O22   1.302213 A    
N10   O34   1.299703 A    
C13   C20   1.411000 A    
O16   H7    0.990814 S    
C21   O16   1.383225 S    
C10   C11   1.603466 S    
N8    O25   1.298646 A    
C3    C13   1.473918 S    
O17   H8    0.991690 S    
C5    O9    1.413933 S    
O3    Cu1   1.997690 S    
C21   C22   1.406696 A    
C11   N4    1.487748 S    
N4    O13   1.298856 A    
C23   C24   1.415340 A    
C18   C22   1.422638 A    
C15   C19   1.404693 A    
C8    C12   1.545869 S    
O26   H11   0.991635 S    
O3    C2    1.302202 A    
O27   H12   0.988469 S    
O21   H10   0.987669 S    
C15   H3    1.081608 S    
O31   H14   0.993768 S    
C6    O30   1.418690 S    
O1    C1    1.295633 A    
C5    C9    1.606541 S    
C17   C18   1.415256 A    
C19   C20   1.402866 A    
Cu2   O8    1.997689 S    
N3    O10   1.301698 A    
C11   O32   1.406408 S    
C30   O27   1.384739 S    
C24   H4    1.077252 S    
C17   N6    1.427933 S    
N9    O29   1.300763 A    
C25   C26   1.417634 A    
O8    C4    1.293755 A    
C10   C12   1.578683 S    
N1    C29   1.381062 A    
Cu2   N2    2.015016 S    
C29   C30   1.420842 A    
Cu1   O5    1.994665 S    
C5    N7    1.486560 S    
O9    H6    0.992341 S    
O1    Cu1   1.998625 S    
C8    N10   1.475256 S    
C1    C14   1.478659 S    
O2    Cu2   1.994665 S    
N9    O28   1.302772 A    
O6    C3    1.296012 A    
C7    N3    1.487744 S    
O4    Cu2   2.001175 S    
C14   C16   1.406748 A    
C7    C11   1.596325 S    
O2    C1    1.301172 A    
N2    C24   1.360938 A    
C18   C19   1.415218 A    
O35   H16   0.993001 S    
C7    C9    1.598000 S    
N5    O15   1.301454 A    
C8    H1    1.099244 S    
C22   O17   1.379384 S    
C29   N8    1.428276 S    
O18   H9    0.991693 S    
C16   O18   1.383943 S    
C14   C17   1.419786 A    
Cu2   O6    1.998625 S    
N6    O19   1.301595 A    
C27   C28   1.438214 A    
C15   C16   1.393256 A    
C26   C30   1.397263 A    
C12   O35   1.408616 S    
N1    C28   1.370266 A    
N7    O23   1.302872 A    
C6    N9    1.492183 S    
N10   O33   1.301692 A    
C20   N5    1.432722 S    
C13   C21   1.407838 A    
