data_mof_unit_34703.cif
_audit_creation_date              2012-12-10T17:21:08-0500
_audit_creation_method            fapswitch 2.2
_symmetry_space_group_name_H-M    P1
_symmetry_Int_Tables_number       1
_space_group_crystal_system       triclinic
_cell_length_a                    10.159889
_cell_length_b                    10.65056
_cell_length_c                    10.629068
_cell_angle_alpha                 90.381046
_cell_angle_beta                  94.840552
_cell_angle_gamma                 81.09621
_cell_volume                      1132.21905056

loop_
_atom_site_label
_atom_site_type_symbol
_atom_type_description
_atom_site_fract_x
_atom_site_fract_y
_atom_site_fract_z
_atom_type_partial_charge
C1    C     C_R   0.444833 0.514980 0.266597 0.955970
C2    C     C_3   0.501554 0.878220 0.500553 0.075479
C3    C     C_3   0.465236 0.934042 0.632206 -0.052139
C4    C     C_3   0.395400 0.942206 0.397272 -0.458066
C5    C     C_2   0.415578 0.539689 0.132813 -0.379370
C6    C     C_2   0.503823 0.587731 0.067384 0.153943
C7    C     C_2   0.584796 0.518100 0.867232 -0.382338
C8    C     C_2   0.487525 0.580554 0.931538 -0.211548
C9    C     C_2   0.070512 0.490603 0.491860 -0.018666
C10   C     C_2   0.924389 0.511835 0.511220 -0.130952
C11   C     C_R   0.499637 0.257867 0.497488 0.855496
C12   C     C_R   0.555324 0.497212 0.733788 0.916657
C13   C     C_R   0.500126 0.742157 0.499004 0.851351
C14   C     C_3   0.639989 0.049928 0.460887 0.085140
C15   C     C_3   0.640793 0.906741 0.468293 -0.444037
C16   C     C_3   0.473286 0.078335 0.633810 -0.091877
C17   C     C_3   0.388300 0.087184 0.403223 -0.464422
C18   C     C_3   0.501747 0.121143 0.498871 0.040553
H1    H     H_    0.720786 0.074274 0.529648 0.141382
H2    H     H_    0.294816 0.917715 0.410552 0.186641
H3    H     H_    0.372830 0.128502 0.654678 0.152392
H4    H     H_    0.358749 0.924474 0.642230 0.136147
H5    H     H_    0.388216 0.613644 0.886360 0.168605
H6    H     H_    0.683506 0.483046 0.912211 0.151395
H7    H     H_    0.326641 0.509603 0.085493 0.122783
H8    H     H_    0.884790 0.581614 0.578636 0.187646
H9    H     H_    0.106277 0.419327 0.424117 0.116509
H10   H     H_    0.882252 0.382126 0.385348 0.156789
H11   H     H_    0.665950 0.861585 0.376689 0.196871
H12   H     H_    0.721731 0.864405 0.539291 0.154068
H13   H     H_    0.288911 0.130132 0.433260 0.182478
H14   H     H_    0.394892 0.126239 0.307603 0.173917
H15   H     H_    0.421909 0.907921 0.302081 0.180048
N1    N     N_2   0.157300 0.551950 0.551120 -0.070937
N2    N     N_2   0.842730 0.448000 0.448950 -0.207060
O1    O     O_R   0.568940 0.489540 0.307530 -0.569564
O2    O     O_R   0.348880 0.522880 0.340350 -0.621972
O3    O     O_R   0.610030 0.298130 0.483570 -0.597834
O4    O     O_R   0.389960 0.331470 0.516390 -0.631117
O5    O     O_R   0.651120 0.477120 0.659650 -0.613231
O6    O     O_R   0.431060 0.510460 0.692470 -0.608333
O7    O     O_R   0.610040 0.668530 0.483610 -0.619980
O8    O     O_R   0.389970 0.701870 0.516430 -0.635549
Zn1   Zn    Zn3+2 0.646940 0.477740 0.478080 0.939949
Zn2   Zn    Zn3+2 0.353060 0.522260 0.521920 0.920945
N3    N     N_3   0.614284 0.641056 0.128423 -0.420656
H16   H     H_    0.610005 0.733039 0.092931 0.175912
H17   H     H_    0.703629 0.587236 0.104800 0.188343
N4    N     N_2   0.667232 0.087284 0.334633 -0.275194
H18   H     H_    0.608796 0.055157 0.260964 0.233236
C19   C     C_3   0.806806 0.075475 0.310850 -0.806736
H19   H     H_    0.815151 0.113145 0.215174 0.238268
H20   H     H_    0.854039 0.974145 0.315986 0.232124
H21   H     H_    0.860765 0.131485 0.380686 0.240175
N5    N     N_3   0.110279 0.644029 0.636493 -0.428191
H22   H     H_    0.163926 0.620116 0.723437 0.190923
H23   H     H_    0.136790 0.729554 0.607444 0.192173
N6    N     N_3   0.568700 0.112129 0.735769 -0.436971
H24   H     H_    0.666467 0.071381 0.721827 0.183500
H25   H     H_    0.564528 0.210725 0.739156 0.174502
N7    N     N_3   0.544844 0.866020 0.740072 -0.437985
H26   H     H_    0.646132 0.848863 0.724940 0.184900
H27   H     H_    0.513806 0.777953 0.750585 0.177514

loop_
_geom_bond_atom_site_label_1
_geom_bond_atom_site_label_2
_ccdc_geom_bond_type
C12   O5    A    
C11   O3    A    
C2    C4    S    
N5    H22   S    
C11   C18   S    
O3    Zn1   S    
C16   H3    S    
N2    Zn1   S    
C9    C10   S    
C14   C18   S    
C1    O2    A    
C2    C13   S    
O4    Zn2   S    
C19   H21   S    
C10   H8    S    
C13   O8    A    
N5    H23   S    
C2    C3    S    
N1    N5    S    
N1    Zn2   S    
C16   N6    S    
C11   O4    A    
C2    C15   S    
O8    Zn2   S    
C12   O6    A    
O7    Zn1   S    
C5    H7    S    
C4    C17   S    
C16   C18   S    
C13   O7    A    
C9    N1    D    
C15   H11   S    
N3    H17   S    
C3    N7    S    
N7    H26   S    
C17   H13   S    
C10   N2    D    
C1    C5    S    
C7    C12   S    
O1    Zn1   S    
C14   N4    S    
C7    C8    D    
N6    H25   S    
C19   H19   S    
C4    H2    S    
O5    Zn1   S    
C8    H5    S    
C9    H9    S    
C15   H12   S    
C17   C18   S    
N4    H18   S    
N3    H16   S    
C5    C6    D    
C17   H14   S    
O6    Zn2   S    
C4    H15   S    
C3    H4    S    
C6    C8    S    
C6    N3    S    
N4    C19   S    
N6    H24   S    
C14   C15   S    
H10   N2    S    
O2    Zn2   S    
C14   H1    S    
N7    H27   S    
C3    C16   S    
C7    H6    S    
C1    O1    A    
C19   H20   S    
