data_mof_unit_25354.cif
_audit_creation_date              2012-12-11T16:06:32-0500
_audit_creation_method            fapswitch 2.2
_symmetry_space_group_name_H-M    P1
_symmetry_Int_Tables_number       1
_space_group_crystal_system       triclinic
_cell_length_a                    7.273624
_cell_length_b                    14.597147
_cell_length_c                    15.728048
_cell_angle_alpha                 90.000167
_cell_angle_beta                  90.0009
_cell_angle_gamma                 89.673917
_cell_volume                      1669.88522082

loop_
_atom_site_label
_atom_site_type_symbol
_atom_type_description
_atom_site_fract_x
_atom_site_fract_y
_atom_site_fract_z
_atom_type_partial_charge
O1    O     O_R   0.388780 0.834790 0.412340 -0.538460
O2    O     O_R   0.111220 0.165210 0.912340 -0.538461
O3    O     O_R   0.888780 0.665210 0.587660 -0.510431
O4    O     O_R   0.611220 0.334790 0.087660 -0.510439
O5    O     O_R   0.059040 0.845930 0.587040 -0.560255
O6    O     O_R   0.440960 0.154070 0.087040 -0.560260
O7    O     O_R   0.559040 0.654070 0.412960 -0.543940
O8    O     O_R   0.940960 0.345930 0.912960 -0.543939
C1    C     C_R   0.227867 0.867779 0.615587 0.678548
C2    C     C_R   0.272134 0.132220 0.115587 0.678536
C3    C     C_R   0.727951 0.632780 0.384467 0.696738
C4    C     C_R   0.772048 0.367217 0.884464 0.696712
O9    O     O_R   0.059070 0.845930 0.412970 -0.552843
O10   O     O_R   0.440930 0.154070 0.912970 -0.552841
O11   O     O_R   0.559070 0.654070 0.587030 -0.531597
O12   O     O_R   0.940930 0.345930 0.087030 -0.531594
O13   O     O_R   0.888760 0.665210 0.412340 -0.514414
O14   O     O_R   0.611240 0.334790 0.912340 -0.514417
O15   O     O_R   0.388760 0.834790 0.587660 -0.515897
O16   O     O_R   0.111240 0.165210 0.087660 -0.515888
C5    C     C_R   0.227408 0.866741 0.384385 0.690953
C6    C     C_R   0.272590 0.133259 0.884385 0.690960
C7    C     C_R   0.728970 0.631901 0.614877 0.685995
C8    C     C_R   0.771031 0.368100 0.114876 0.685987
O17   O     O_3   0.222280 0.690700 0.500000 -0.349964
O18   O     O_3   0.277720 0.309300 0.000000 -0.349967
O19   O     O_3   0.722280 0.809300 0.500000 -0.401101
O20   O     O_3   0.777720 0.190700 0.000000 -0.401095
V1    V     V_3+5 0.947430 0.761000 0.500000 1.414847
V2    V     V_3+5 0.552570 0.239000 0.000000 1.414828
V3    V     V_3+5 0.447430 0.739000 0.500000 1.463459
V4    V     V_3+5 0.052570 0.261000 0.000000 1.463455
C9    C     C_3   0.946349 0.523728 0.700333 0.381132
C10   C     C_3   0.553658 0.476274 0.200329 0.381127
C11   C     C_3   0.373015 0.904546 0.239723 0.387771
C12   C     C_3   0.126984 0.095452 0.739720 0.387766
H1    H     H_    0.975125 0.481499 0.642899 0.083921
H2    H     H_    0.524885 0.518506 0.142896 0.083905
H3    H     H_    0.513571 0.912829 0.266629 0.091681
H4    H     H_    0.986429 0.087170 0.766625 0.091680
C13   C     C_3   0.956224 0.455524 0.775594 -0.464906
C14   C     C_3   0.543784 0.544473 0.275594 -0.464897
C15   C     C_3   0.366866 0.971810 0.163036 -0.491969
C16   C     C_3   0.133133 0.028188 0.663035 -0.491970
H5    H     H_    0.050380 0.480291 0.826059 0.182918
H6    H     H_    0.449631 0.519698 0.326058 0.182916
H7    H     H_    0.302159 0.939761 0.106574 0.138266
H8    H     H_    0.197838 0.060236 0.606572 0.138267
H9    H     H_    0.016835 0.389669 0.752848 0.170034
H10   H     H_    0.483171 0.610331 0.252850 0.170036
H11   H     H_    0.508235 0.987471 0.142018 0.132900
H12   H     H_    0.991764 0.012525 0.642015 0.132903
H13   H     H_    0.671347 0.443987 0.604796 0.118011
H14   H     H_    0.828661 0.556014 0.104795 0.117996
H15   H     H_    0.455004 0.017434 0.374585 0.141684
H16   H     H_    0.044995 0.982565 0.874581 0.141684
H17   H     H_    0.693646 0.337821 0.712849 0.133208
H18   H     H_    0.806346 0.662171 0.212859 0.133219
H19   H     H_    0.464706 0.128188 0.271070 0.113160
H20   H     H_    0.035300 0.871808 0.771067 0.113161
C17   C     C_3   0.625089 0.475516 0.665591 -0.418992
C18   C     C_3   0.874914 0.524483 0.165593 -0.418994
C19   C     C_3   0.315701 0.028030 0.346843 -0.433268
C20   C     C_3   0.184298 0.971970 0.846843 -0.433273
C21   C     C_3   0.662965 0.600586 0.770724 -0.364295
C22   C     C_3   0.837045 0.399414 0.270725 -0.364295
C23   C     C_3   0.044101 0.960308 0.276132 -0.362821
C24   C     C_3   0.455898 0.039692 0.776135 -0.362808
C25   C     C_3   0.743517 0.561339 0.686565 -0.031398
C26   C     C_3   0.756486 0.438662 0.186564 -0.031400
C27   C     C_3   0.237863 0.936247 0.312580 -0.013632
C28   C     C_3   0.262136 0.063752 0.812580 -0.013633
H21   H     H_    0.515546 0.617132 0.760006 0.193065
H22   H     H_    0.984470 0.382877 0.260011 0.193071
H23   H     H_    0.957886 0.989178 0.328301 0.173172
H24   H     H_    0.542115 0.010823 0.828306 0.173172
H25   H     H_    0.725353 0.666784 0.788561 0.087174
H26   H     H_    0.774673 0.333211 0.288557 0.087180
H27   H     H_    0.968045 0.899273 0.254279 0.094492
H28   H     H_    0.531955 0.100726 0.754282 0.094490
C29   C     C_3   0.761312 0.437773 0.812769 0.000228
C30   C     C_3   0.738687 0.562224 0.312772 0.000213
C31   C     C_3   0.259149 0.060619 0.187208 0.018110
C32   C     C_3   0.240853 0.939380 0.687208 0.018110
C33   C     C_3   0.637772 0.403382 0.738415 -0.335821
C34   C     C_3   0.862223 0.596613 0.238421 -0.335849
C35   C     C_3   0.326185 0.100279 0.274358 -0.324380
C36   C     C_3   0.173819 0.899719 0.774358 -0.324364
C37   C     C_3   0.680718 0.530697 0.845630 0.389381
C38   C     C_3   0.819272 0.469299 0.345634 0.389416
C39   C     C_3   0.056918 0.031199 0.202722 0.391758
C40   C     C_3   0.443083 0.968800 0.702726 0.391746
H29   H     H_    0.780165 0.557758 0.893455 0.004764
H30   H     H_    0.719818 0.442238 0.393450 0.004791
H31   H     H_    0.007423 0.997965 0.142874 0.011376
H32   H     H_    0.492579 0.002032 0.642878 0.011378
H33   H     H_    0.478531 0.495571 0.656397 0.203504
H34   H     H_    0.021475 0.504428 0.156403 0.203506
H35   H     H_    0.227002 0.054627 0.399112 0.153058
H36   H     H_    0.272998 0.945374 0.899115 0.153055
H37   H     H_    0.496829 0.389597 0.762306 0.191950
H38   H     H_    0.003156 0.610400 0.262315 0.191955
H39   H     H_    0.239525 0.159991 0.292534 0.173966
H40   H     H_    0.260481 0.840009 0.792536 0.173966
O21   O     O_3   0.505246 0.515633 0.882614 -0.537764
C41   C     C_3   0.465303 0.583419 0.943973 -0.247970
H41   H     H_    0.468727 0.653365 0.915945 0.122781
H42   H     H_    0.561812 0.578583 0.998606 0.113172
H43   H     H_    0.324392 0.571805 0.968613 0.156942
O22   O     O_3   0.994718 0.484363 0.382634 -0.537755
C42   C     C_3   0.034702 0.416543 0.443950 -0.248319
H44   H     H_    0.031340 0.346628 0.415914 0.122822
H45   H     H_    0.938236 0.421343 0.498555 0.113304
H46   H     H_    0.175557 0.428142 0.468595 0.156992
O23   O     O_3   0.955339 0.110645 0.224919 -0.560939
C43   C     C_3   0.775125 0.103575 0.195727 -0.210964
H47   H     H_    0.703962 0.050819 0.233873 0.111834
H48   H     H_    0.768158 0.086620 0.127014 0.156821
H49   H     H_    0.709639 0.171536 0.203529 0.148958
O24   O     O_3   0.544660 0.889353 0.724925 -0.560941
C44   C     C_3   0.724872 0.896419 0.695732 -0.210982
H50   H     H_    0.796039 0.949178 0.733873 0.111838
H51   H     H_    0.731834 0.913366 0.627019 0.156834
H52   H     H_    0.790355 0.828459 0.703539 0.148956
O25   O     O_3   0.094025 0.587496 0.700666 -0.538256
C45   C     C_3   0.082527 0.654842 0.764648 -0.171677
H53   H     H_    0.029805 0.629684 0.826290 0.097239
H54   H     H_    0.000267 0.713616 0.741639 0.116280
H55   H     H_    0.222690 0.680632 0.776911 0.134327
O26   O     O_3   0.405967 0.412513 0.200656 -0.538248
C46   C     C_3   0.417476 0.345145 0.264628 -0.171744
H56   H     H_    0.470264 0.370288 0.326262 0.097244
H57   H     H_    0.499694 0.286369 0.241594 0.116323
H58   H     H_    0.277311 0.319369 0.276910 0.134317
O27   O     O_3   0.370482 0.810393 0.215847 -0.559512
C47   C     C_3   0.196923 0.778461 0.189865 -0.273103
H59   H     H_    0.124741 0.825668 0.145706 0.123499
H60   H     H_    0.111141 0.762772 0.246134 0.135041
H61   H     H_    0.217324 0.713003 0.155193 0.152543
O28   O     O_3   0.129519 0.189606 0.715844 -0.559512
C48   C     C_3   0.303077 0.221536 0.689864 -0.273105
H62   H     H_    0.375256 0.174328 0.645705 0.123500
H63   H     H_    0.388863 0.237224 0.746133 0.135039
H64   H     H_    0.282676 0.286993 0.655191 0.152544

loop_
_geom_bond_atom_site_label_1
_geom_bond_atom_site_label_2
_ccdc_geom_bond_type
C24   H28   S    
C31   C35   S    
O1    C5    A    
C45   H53   S    
O19   V1    S    
C15   C31   S    
C7    C25   S    
O3    C7    A    
C42   H44   S    
C10   C14   S    
C40   H32   S    
C46   H58   S    
O15   V3    S    
H20   C36   S    
C8    C26   S    
O27   C47   S    
C22   C38   S    
C21   C37   S    
C14   C30   S    
C18   C34   S    
C5    C27   S    
O9    V1    S    
C48   H63   S    
C11   H3    S    
O4    C8    A    
C41   H41   S    
O23   C43   S    
C22   H22   S    
C2    C31   S    
O1    V3    S    
O13   V1    S    
C43   H47   S    
C18   C26   S    
O2    V4    S    
C14   H6    S    
C6    C28   S    
O3    V1    S    
O22   C42   S    
C44   H52   S    
C19   H35   S    
C9    O25   S    
C18   H34   S    
H13   C17   S    
C1    O15   A    
C2    O16   A    
C20   C36   S    
H15   C19   S    
O2    C6    A    
H16   C20   S    
O14   V2    S    
C11   C15   S    
C10   C26   S    
C9    C25   S    
C29   C37   S    
C16   H12   S    
O11   C7    A    
C11   C27   S    
O12   C8    A    
O10   V2    S    
C47   H61   S    
H18   C34   S    
C13   H9    S    
C36   H40   S    
C38   H30   S    
O5    V1    S    
C3    C30   S    
C22   H26   S    
O4    V2    S    
O7    V3    S    
O8    V4    S    
C12   H4    S    
C21   H25   S    
O28   C48   S    
C47   H60   S    
C21   H21   S    
C11   O27   S    
O18   V4    S    
H14   C18   S    
C45   H55   S    
C16   C32   S    
C30   C34   S    
C9    H1    S    
C24   C28   S    
O7    C3    A    
O5    C1    A    
O8    C4    A    
C13   C29   S    
C23   C39   S    
O9    C5    A    
C42   H45   S    
C24   H24   S    
C12   O28   S    
C44   H50   S    
C17   C33   S    
C14   H10   S    
C35   H39   S    
O6    V2    S    
C19   C27   S    
O25   C45   S    
C48   H64   S    
C23   H23   S    
C38   O22   S    
C37   O21   S    
C46   H56   S    
C34   H38   S    
C33   H37   S    
O24   C44   S    
O16   V4    S    
C17   C25   S    
C3    O13   A    
C45   H54   S    
C19   C35   S    
C10   H2    S    
O17   V3    S    
C17   H33   S    
C32   C36   S    
C47   H59   S    
C46   H57   S    
O6    C2    A    
O11   V3    S    
O12   V4    S    
C31   C39   S    
O21   C41   S    
C30   C38   S    
C43   H49   S    
C9    C13   S    
O10   C6    A    
O20   V2    S    
O26   C46   S    
C40   O24   S    
C48   H62   S    
C15   H11   S    
C22   C26   S    
C41   H42   S    
C21   C25   S    
C24   C40   S    
C43   H48   S    
C4    C29   S    
C42   H46   S    
C23   C27   S    
C20   C28   S    
C37   H29   S    
H19   C35   S    
C44   H51   S    
C12   C16   S    
C1    C32   S    
C39   H31   S    
C16   H8    S    
C20   H36   S    
C39   O23   S    
C10   O26   S    
C4    O14   A    
C13   H5    S    
C32   C40   S    
C15   H7    S    
H17   C33   S    
C23   H27   S    
C29   C33   S    
C12   C28   S    
C41   H43   S    
