data_mof_unit_48812.cif
_audit_creation_date              2012-12-11T14:43:35-0500
_audit_creation_method            fapswitch 2.2
_symmetry_space_group_name_H-M    P1
_symmetry_Int_Tables_number       1
_space_group_crystal_system       triclinic
_cell_length_a                    20.878002
_cell_length_b                    7.098747
_cell_length_c                    16.386026
_cell_angle_alpha                 90.027482
_cell_angle_beta                  92.36859
_cell_angle_gamma                 89.977799
_cell_volume                      2426.45917834

loop_
_atom_site_label
_atom_site_type_symbol
_atom_type_description
_atom_site_fract_x
_atom_site_fract_y
_atom_site_fract_z
_atom_type_partial_charge
O1    O     O_R   0.564840 0.505290 0.579830 -0.509853
O2    O     O_R   0.435160 0.005290 0.420170 -0.509790
O3    O     O_R   0.556720 0.179930 0.409350 -0.541946
O4    O     O_R   0.443280 0.679930 0.590650 -0.541956
C1    C     C_R   0.570405 0.344745 0.381016 0.703229
C2    C     C_R   0.429603 0.844883 0.618984 0.703117
O5    O     O_R   0.572280 0.175810 0.578530 -0.542123
O6    O     O_R   0.427720 0.675810 0.421470 -0.542120
O7    O     O_R   0.450830 0.001920 0.590540 -0.536752
O8    O     O_R   0.549170 0.501920 0.409460 -0.536729
C3    C     C_R   0.590882 0.343531 0.603849 0.761066
C4    C     C_R   0.409120 0.843525 0.396147 0.761010
O9    O     O_3   0.460130 0.338030 0.503750 -0.357658
O10   O     O_3   0.539870 0.838030 0.496250 -0.357708
V1    V     V_3+5 0.507400 0.064560 0.499310 1.551743
V2    V     V_3+5 0.492600 0.564560 0.500690 1.551637
C5    C     C_R   0.143035 0.924849 0.168057 -0.086787
C6    C     C_R   0.856965 0.424777 0.831940 -0.086610
C7    C     C_R   0.353815 0.843203 0.335201 -0.198527
C8    C     C_R   0.646181 0.343241 0.664802 -0.198221
C9    C     C_R   0.293890 0.666250 0.228710 0.392692
C10   C     C_R   0.706028 0.166598 0.771431 0.392519
C11   C     C_R   0.347121 0.687532 0.282334 -0.216351
C12   C     C_R   0.652808 0.187852 0.717785 -0.216543
C13   C     C_R   0.305376 0.982860 0.332918 0.335325
C14   C     C_R   0.694681 0.482620 0.666971 0.335218
C15   C     C_R   0.250993 0.962958 0.278311 0.033355
C16   C     C_R   0.749041 0.462788 0.721623 0.033301
C17   C     C_R   0.244978 0.803025 0.226063 0.014916
C18   C     C_R   0.754982 0.303158 0.774005 0.015103
C19   C     C_R   0.190531 0.784920 0.171918 -0.157284
C20   C     C_R   0.809407 0.285115 0.828191 -0.157439
C21   C     C_R   0.149303 0.080567 0.220631 -0.122298
C22   C     C_R   0.850771 0.580183 0.779238 -0.122175
C23   C     C_R   0.201998 0.099174 0.274958 -0.008100
C24   C     C_R   0.798088 0.598751 0.724883 -0.007989
H1    H     H_    0.383674 0.579013 0.283127 0.184344
H2    H     H_    0.616215 0.079520 0.717055 0.184001
C25   C     C_R   0.380007 0.855958 0.836971 -0.139903
C26   C     C_R   0.620178 0.348159 0.163036 -0.139919
H3    H     H_    0.469234 0.838299 0.777179 0.123714
H4    H     H_    0.530962 0.330385 0.222826 0.123791
H5    H     H_    0.403498 0.851431 0.897177 0.131517
H6    H     H_    0.596775 0.339900 0.102837 0.131576
C27   C     C_R   0.388978 0.853826 0.690319 -0.049461
C28   C     C_R   0.611043 0.353046 0.309680 -0.049582
C29   C     C_R   0.078215 0.914892 0.731963 -0.205082
C30   C     C_R   0.921652 0.420384 0.268035 -0.205160
C31   C     C_R   0.112716 0.908007 0.661186 0.467308
C32   C     C_R   0.887100 0.415774 0.338804 0.467282
C33   C     C_R   0.179456 0.895001 0.665847 -0.197798
C34   C     C_R   0.820411 0.400690 0.334143 -0.197857
C35   C     C_R   0.213705 0.888331 0.742163 0.012055
C36   C     C_R   0.786266 0.389511 0.257834 0.012025
C37   C     C_R   0.177752 0.895446 0.814696 0.061202
C38   C     C_R   0.822278 0.393996 0.185307 0.061329
C39   C     C_R   0.282324 0.874917 0.748880 0.096935
C40   C     C_R   0.717693 0.374201 0.251119 0.096918
C41   C     C_R   0.312972 0.868982 0.827968 0.124682
C42   C     C_R   0.687155 0.363512 0.172037 0.124775
C43   C     C_R   0.276730 0.875977 0.897788 -0.166723
C44   C     C_R   0.723453 0.367951 0.102221 -0.166905
C45   C     C_R   0.210316 0.888989 0.891411 -0.148926
C46   C     C_R   0.789817 0.382992 0.108596 -0.148900
C47   C     C_R   0.321923 0.867026 0.680235 -0.185768
C48   C     C_R   0.678037 0.368796 0.319761 -0.186128
C49   C     C_R   0.417594 0.848471 0.768767 -0.170140
C50   C     C_R   0.582545 0.342820 0.231236 -0.170071
C51   C     C_R   0.109743 0.908936 0.808806 -0.147457
C52   C     C_R   0.890233 0.409747 0.191195 -0.147487
H7    H     H_    0.302463 0.870638 0.618321 0.121940
H8    H     H_    0.697416 0.375897 0.381671 0.122532
H9    H     H_    0.026388 0.925087 0.727039 0.149411
H10   H     H_    0.973429 0.432611 0.272960 0.149617
O11   O     O_R   0.950790 0.256670 0.090520 -0.534391
O12   O     O_R   0.049210 0.756670 0.909480 -0.534381
O13   O     O_R   0.927720 0.590370 0.921470 -0.538912
O14   O     O_R   0.072280 0.090370 0.078530 -0.539021
C53   C     C_R   0.910305 0.422717 0.894888 0.691268
C54   C     C_R   0.089691 0.922731 0.105115 0.691233
O15   O     O_R   0.943270 0.586180 0.090640 -0.534330
O16   O     O_R   0.056730 0.086180 0.909360 -0.534324
O17   O     O_R   0.064850 0.759970 0.079840 -0.539016
O18   O     O_R   0.935150 0.259970 0.920160 -0.539077
C55   C     C_R   0.930197 0.417755 0.118887 0.704968
C56   C     C_R   0.069793 0.917618 0.881112 0.704992
O19   O     O_3   0.039850 0.428050 0.996240 -0.370617
O20   O     O_3   0.960150 0.928050 0.003760 -0.370629
V3    V     V_3+5 0.992610 0.701540 0.000700 1.463260
V4    V     V_3+5 0.007390 0.201540 0.999300 1.462980
H11   H     H_    0.185729 0.666407 0.130568 0.175773
H12   H     H_    0.814147 0.166866 0.869657 0.175556
H13   H     H_    0.202936 0.890445 0.608605 0.161710
H14   H     H_    0.796885 0.398202 0.391379 0.162032
Cl1   Cl    Cl    0.071858 0.915951 0.565421 -0.520843
Cl2   Cl    Cl    0.927818 0.429579 0.434559 -0.520680
H15   H     H_    0.184595 0.893930 0.947426 0.109686
H16   H     H_    0.815583 0.385840 0.052585 0.109586
H17   H     H_    0.113315 0.190689 0.219205 0.131722
H18   H     H_    0.886813 0.690078 0.780580 0.131595
Cl3   Cl    Cl    0.290660 0.463194 0.166558 -0.675757
Cl4   Cl    Cl    0.709217 0.963769 0.833660 -0.675860
H19   H     H_    0.204088 0.223300 0.313238 0.189778
H20   H     H_    0.796054 0.722634 0.686494 0.189791
Cl5   Cl    Cl    0.310807 0.176057 0.401426 -0.639313
Cl6   Cl    Cl    0.689364 0.675294 0.598234 -0.639455
H21   H     H_    0.300007 0.871325 0.958134 0.148696
H22   H     H_    0.700259 0.359671 0.041878 0.149025

loop_
_geom_bond_atom_site_label_1
_geom_bond_atom_site_label_2
_ccdc_geom_bond_type
C18   C20   A    
C26   C42   A    
C2    C27   S    
C15   C17   A    
O1    C3    A    
O2    C4    A    
C14   Cl6   S    
C2    O7    A    
C13   Cl5   S    
C29   C31   A    
O14   V4    S    
O5    C3    A    
O13   V3    S    
C5    C21   A    
C28   C48   A    
C23   H19   S    
C53   O18   A    
O14   C54   A    
C39   C41   A    
C44   H22   S    
C40   C42   A    
C12   H2    S    
C42   C44   A    
C43   C45   A    
C29   C51   A    
C44   C46   A    
O11   V4    S    
C40   C48   A    
C48   H8    S    
C8    C12   A    
C6    C53   S    
C31   C33   A    
C37   C45   A    
C27   C49   A    
C32   C34   A    
C38   C46   A    
C34   H14   S    
O12   V3    S    
C9    Cl3   S    
C46   H16   S    
O6    V2    S    
H4    C50   S    
O18   V4    S    
C54   O17   A    
C43   H21   S    
C14   C16   A    
C34   C36   A    
C35   C37   A    
O17   V3    S    
C36   C38   A    
C3    C8    S    
C41   C43   A    
C30   H10   S    
C29   H9    S    
H3    C49   S    
C30   C52   A    
C35   C39   A    
C25   H5    S    
O5    V1    S    
C15   C23   A    
C11   H1    S    
C9    C17   A    
C5    C54   S    
C33   C35   A    
O4    V2    S    
C7    C11   A    
C28   C50   A    
C22   H18   S    
O6    C4    A    
C25   C41   A    
O13   C53   A    
O1    V2    S    
C31   Cl1   S    
O2    V1    S    
C6    C22   A    
C37   C51   A    
C33   H13   S    
O4    C2    A    
O20   V4    S    
C38   C52   A    
C9    C11   A    
C27   C47   A    
C5    C19   A    
C10   C12   A    
O19   V4    S    
C6    C20   A    
O12   C56   A    
O3    V1    S    
O11   C55   A    
C36   C40   A    
C10   C18   A    
C25   C49   A    
C39   C47   A    
O3    C1    A    
C10   Cl4   S    
C13   C15   A    
C1    C28   S    
C19   H11   S    
O16   V4    S    
C24   H20   S    
C16   C18   A    
O7    V1    S    
O15   V3    S    
C1    O8    A    
C45   H15   S    
C47   H7    S    
O16   C56   A    
C32   Cl2   S    
C20   H12   S    
C8    C14   A    
C4    C7    S    
C30   C32   A    
C21   C23   A    
C22   C24   A    
C7    C13   A    
C26   H6    S    
O20   V3    S    
C16   C24   A    
C17   C19   A    
C26   C50   A    
O9    V2    S    
O19   V3    S    
O10   V1    S    
O8    V2    S    
C21   H17   S    
C52   C55   S    
O15   C55   A    
C51   C56   S    
