data_mof_unit_27890.cif
_audit_creation_date              2013-03-05T16:06:12-0500
_audit_creation_method            fapswitch 2.2
_symmetry_space_group_name_H-M    P1
_symmetry_Int_Tables_number       1
_space_group_crystal_system       triclinic
_cell_length_a                    15.05973
_cell_length_b                    15.366382
_cell_length_c                    15.648391
_cell_angle_alpha                 92.706265
_cell_angle_beta                  103.737087
_cell_angle_gamma                 79.856993
_cell_volume                      3462.63450007

loop_
_atom_site_label
_atom_site_type_symbol
_atom_site_description
_atom_site_fract_x
_atom_site_fract_y
_atom_site_fract_z
_atom_type_partial_charge
O1    O     O_R   0.383110 0.605620 0.475230 -0.576434
O2    O     O_R   0.616890 0.394380 0.524770 -0.582811
O3    O     O_R   0.531900 0.639510 0.506760 -0.567499
O4    O     O_R   0.468100 0.360490 0.493240 -0.556760
C1    C     C_R   0.441122 0.661890 0.482577 0.911993
C2    C     C_R   0.558658 0.337647 0.511149 0.909089
O5    O     O_R   0.425620 0.483070 0.607460 -0.574730
O6    O     O_R   0.574380 0.516930 0.392540 -0.562929
O7    O     O_R   0.574400 0.516960 0.638990 -0.561896
O8    O     O_R   0.425600 0.483040 0.361010 -0.607374
C3    C     C_R   0.502779 0.497524 0.662004 0.881184
C4    C     C_R   0.499438 0.498830 0.338278 0.867506
Zn1   Zn    Zn3+2 0.400660 0.477370 0.478940 1.042282
Zn2   Zn    Zn3+2 0.599340 0.522630 0.521060 1.055306
C5    C     C_3   0.433095 0.526268 0.009159 -0.351955
C6    C     C_3   0.599486 0.430664 0.995916 -0.277604
C7    C     C_3   0.508285 0.562624 0.975597 -0.336977
C8    C     C_3   0.524131 0.394294 0.030064 -0.286826
H1    H     H_    0.503277 0.630647 0.951799 0.164945
H2    H     H_    0.528316 0.326496 0.054027 0.163562
H3    H     H_    0.365526 0.564358 0.016658 0.165849
H4    H     H_    0.667296 0.393083 0.988521 0.178199
C9    C     C_1   0.513191 0.487379 0.752547 -0.162540
C10   C     C_1   0.500467 0.492274 0.249122 -0.167291
C11   C     C_3   0.448631 0.441461 0.954362 0.565584
C12   C     C_3   0.583849 0.515471 0.051016 0.583846
C13   C     C_3   0.522477 0.477245 0.920882 0.063794
C14   C     C_3   0.509881 0.479922 0.084320 0.074674
C15   C     C_1   0.521189 0.480353 0.829300 0.013604
C16   C     C_1   0.504019 0.485883 0.174271 0.010712
C17   C     C_R   0.404686 0.754263 0.457588 -0.249604
C18   C     C_R   0.594056 0.242929 0.514314 -0.199203
C19   C     C_R   0.282285 0.882705 0.435650 0.299027
C20   C     C_R   0.704381 0.115464 0.579806 0.326279
C21   C     C_R   0.312966 0.792793 0.455763 -0.284562
C22   C     C_R   0.674247 0.207161 0.575560 -0.322349
C23   C     C_R   0.463721 0.804729 0.433666 0.374945
C24   C     C_R   0.540670 0.187025 0.460117 0.401060
C25   C     C_R   0.442742 0.897095 0.437930 -0.054025
C26   C     C_R   0.557899 0.096474 0.478288 -0.054882
C27   C     C_R   0.348640 0.936550 0.431075 -0.054141
C28   C     C_R   0.646000 0.059336 0.529943 -0.014473
C29   C     C_R   0.513391 0.950272 0.456842 0.105415
C30   C     C_R   0.488016 0.043263 0.451959 0.070444
C31   C     C_R   0.392962 0.080923 0.434587 -0.136314
C32   C     C_R   0.607151 0.914119 0.493953 -0.198801
C33   C     C_R   0.324988 0.028686 0.426605 -0.111184
C34   C     C_R   0.670539 0.967484 0.534188 -0.154997
H5    H     H_    0.254660 0.061906 0.422355 0.249179
H6    H     H_    0.737811 0.935519 0.570479 0.216684
H7    H     H_    0.712795 0.250621 0.619779 0.194113
H8    H     H_    0.264777 0.752682 0.467475 0.258875
H9    H     H_    0.369935 0.151391 0.437637 0.229580
H10   H     H_    0.631803 0.844522 0.502322 0.188279
N1    N     N_R   0.731710 0.552730 0.549140 -0.207193
N2    N     N_R   0.268290 0.447270 0.450860 -0.224487
C35   C     C_R   0.840728 0.620078 0.657746 0.173639
C36   C     C_R   0.168716 0.344087 0.385698 0.165448
C37   C     C_R   0.749089 0.608936 0.618958 0.431883
C38   C     C_R   0.248309 0.382115 0.391139 0.433690
C39   C     C_R   0.800450 0.511722 0.510539 0.357111
C40   C     C_R   0.202557 0.490460 0.492568 0.397361
C41   C     C_R   0.894792 0.517363 0.550195 -0.127965
C42   C     C_R   0.124248 0.452097 0.494922 -0.114998
C43   C     C_R   0.915091 0.572040 0.624874 -0.181894
C44   C     C_R   0.108660 0.376055 0.441735 -0.261850
C45   C     C_R   0.969703 0.465682 0.520960 -0.095683
C46   C     C_R   0.058443 0.489228 0.545375 -0.007962
C47   C     C_R   0.082588 0.532469 0.628399 0.399428
C48   C     C_R   0.965871 0.378691 0.489494 0.458584
C49   C     C_R   0.009035 0.568411 0.671129 0.220058
C50   C     C_R   0.033778 0.334204 0.447596 0.263812
N3    N     N_R   0.201676 0.582015 0.515175 0.225959
O9    O     O_R   0.129003 0.640290 0.482478 -0.383409
O10   O     O_R   0.270361 0.607514 0.571368 -0.374647
N4    N     N_R   0.776162 0.467468 0.427740 0.240548
O11   O     O_R   0.802476 0.490933 0.360101 -0.385668
O12   O     O_R   0.735175 0.398963 0.421344 -0.311506
O13   O     O_3   0.301336 0.359841 0.329933 -0.525911
C51   C     C_3   0.257783 0.410677 0.253280 0.177558
H11   H     H_    0.267283 0.480764 0.264747 0.144784
H12   H     H_    0.181850 0.409703 0.232287 0.145298
C52   C     C_3   0.299534 0.373972 0.176952 -0.808050
H13   H     H_    0.284737 0.306190 0.160207 0.270230
H14   H     H_    0.268387 0.416823 0.118628 0.193224
H15   H     H_    0.375441 0.372205 0.193933 0.241306
O14   O     O_3   0.678453 0.642279 0.660559 -0.551778
C53   C     C_3   0.653547 0.735305 0.651765 0.134780
H16   H     H_    0.598181 0.751686 0.592013 0.166378
H17   H     H_    0.710988 0.769866 0.646950 0.144157
C54   C     C_3   0.614508 0.773341 0.729383 -0.745574
H18   H     H_    0.668138 0.760526 0.791727 0.289298
H19   H     H_    0.591719 0.845865 0.721297 0.210557
H20   H     H_    0.553970 0.742609 0.732827 0.239809
N5    N     N_R   0.856887 0.679552 0.730873 0.254351
O15   O     O_R   0.882885 0.754129 0.720955 -0.329177
O16   O     O_R   0.835691 0.664070 0.803975 -0.317937
N6    N     N_R   0.145777 0.279934 0.317727 0.252186
O17   O     O_R   0.064648 0.292285 0.263286 -0.333047
O18   O     O_R   0.209671 0.216612 0.302002 -0.340842
O19   O     O_3   0.177442 0.519146 0.669762 -0.623415
C55   C     C_3   0.203191 0.575878 0.741690 0.198232
H21   H     H_    0.189005 0.550211 0.801202 0.189397
H22   H     H_    0.170043 0.645843 0.726751 0.199755
C56   C     C_3   0.307130 0.571576 0.765760 -0.732303
H23   H     H_    0.329895 0.616268 0.725078 0.264398
H24   H     H_    0.329706 0.592537 0.835265 0.200242
H25   H     H_    0.339684 0.502285 0.757714 0.301420
O20   O     O_3   0.911837 0.329938 0.521162 -0.554014
C57   C     C_3   0.963395 0.296404 0.604540 0.043140
H26   H     H_    0.992114 0.348768 0.649031 0.137328
H27   H     H_    0.021484 0.243119 0.596806 0.189291
C58   C     C_3   0.901033 0.257801 0.649393 -0.617572
H28   H     H_    0.869740 0.207245 0.605401 0.291352
H29   H     H_    0.941944 0.226441 0.712302 0.235106
H30   H     H_    0.846160 0.311154 0.663316 0.228336
O21   O     O_3   0.653166 0.553860 0.109578 -0.599800
C59   C     C_3   0.711584 0.582248 0.062328 0.085745
H31   H     H_    0.671877 0.633223 0.013023 0.143633
H32   H     H_    0.746417 0.525605 0.028557 0.163917
C60   C     C_3   0.786132 0.623214 0.126224 -0.681522
H33   H     H_    0.827628 0.573731 0.176060 0.282090
H34   H     H_    0.832935 0.645689 0.089924 0.223004
H35   H     H_    0.753634 0.680888 0.160195 0.246188
O22   O     O_3   0.380495 0.401230 0.896184 -0.613584
C61   C     C_3   0.314288 0.384429 0.940684 0.063291
H36   H     H_    0.276785 0.447323 0.962513 0.152108
H37   H     H_    0.347626 0.340777 0.998367 0.146201
C62   C     C_3   0.243333 0.338000 0.878212 -0.709165
H38   H     H_    0.278077 0.274086 0.855917 0.253549
H39   H     H_    0.190225 0.325073 0.912341 0.222371
H40   H     H_    0.208464 0.380109 0.819961 0.270479
O23   O     O_3   0.473437 0.221111 0.387439 -0.580124
C63   C     C_3   0.512628 0.216085 0.313169 0.160590
H41   H     H_    0.589285 0.192675 0.327041 0.135496
H42   H     H_    0.500275 0.283407 0.285455 0.163627
C64   C     C_3   0.465178 0.155631 0.244029 -0.788366
H43   H     H_    0.388761 0.176176 0.230446 0.294517
H44   H     H_    0.488356 0.158956 0.182168 0.206627
H45   H     H_    0.483309 0.086363 0.267796 0.250007
O24   O     O_3   0.541337 0.763443 0.405552 -0.622234
C65   C     C_3   0.515529 0.749901 0.313800 0.086636
H46   H     H_    0.485740 0.813739 0.278759 0.151939
H47   H     H_    0.464038 0.704161 0.297313 0.129378
C66   C     C_3   0.600980 0.708566 0.281158 -0.710777
H48   H     H_    0.632685 0.644656 0.314688 0.291162
H49   H     H_    0.581136 0.696567 0.209146 0.226796
H50   H     H_    0.652809 0.753704 0.294807 0.249527
N7    N     N_R   0.185542 0.918584 0.425345 0.221208
O25   O     O_R   0.137776 0.889480 0.473695 -0.301476
O26   O     O_R   0.141654 0.967860 0.357856 -0.308191
N8    N     N_R   0.789164 0.080503 0.640837 0.193826
O27   O     O_R   0.805838 0.110210 0.721304 -0.372942
O28   O     O_R   0.855527 0.030117 0.612868 -0.341276
N9    N     N_R   0.027007 0.578334 0.765101 0.188422
O29   O     O_R   0.019903 0.513757 0.812566 -0.390683
O30   O     O_R   0.042858 0.653176 0.802990 -0.340047
N10   N     N_R   0.031701 0.243294 0.422245 0.259322
O31   O     O_R   0.105153 0.183671 0.448288 -0.366446
O32   O     O_R   0.953375 0.218114 0.385007 -0.245422

loop_
_geom_bond_atom_site_label_1
_geom_bond_atom_site_label_2
_geom_bond_distance
_ccdc_geom_bond_type
C2    C18   1.458095 S    
O14   C53   1.417113 S    
C41   C43   1.411782 A    
C38   O13   1.381384 S    
C61   H36   1.112612 S    
N1    C37   1.364851 A    
C13   C15   1.431584 S    
O21   C59   1.409084 S    
N3    O9    1.301378 A    
N5    O15   1.301659 A    
C36   N6    1.438363 S    
C12   O21   1.410314 S    
O7    Zn2   1.977399 S    
C63   C64   1.521813 S    
C66   H48   1.110074 S    
C33   H5    1.079854 S    
O5    C3    1.315306 A    
C64   H44   1.110377 S    
O19   C55   1.412914 S    
C23   O24   1.385289 S    
O1    C1    1.316475 A    
C7    C12   1.537964 S    
C9    C15   1.186442 T    
N4    O12   1.299499 A    
C58   H28   1.106301 S    
N7    O26   1.301250 A    
C5    C11   1.539698 S    
N9    O30   1.302373 A    
C36   C38   1.406771 A    
C50   N10   1.437709 S    
C47   O19   1.404203 S    
C55   C56   1.510723 S    
C47   C49   1.442397 A    
C24   O23   1.384027 S    
C3    C9    1.401108 S    
O4    Zn1   1.895999 S    
C39   C41   1.425032 A    
C11   O22   1.410847 S    
C59   H31   1.113274 S    
C60   H35   1.110782 S    
C40   C42   1.416746 A    
C7    H1    1.110220 S    
C57   H26   1.116195 S    
C36   C44   1.416947 A    
C44   C50   1.415561 A    
C46   C47   1.428574 A    
C20   C28   1.415415 A    
C61   H37   1.113607 S    
C40   N3    1.432926 S    
C18   C24   1.397933 A    
C20   C22   1.401829 A    
C62   H40   1.110860 S    
C6    C13   1.541509 S    
C26   C28   1.416655 A    
Zn2   N1    2.066500 S    
C64   H43   1.109694 S    
C31   H9    1.079705 S    
Zn1   N2    2.066501 S    
N10   O32   1.301410 A    
N3    O10   1.294180 A    
C65   C66   1.521194 S    
O2    C2    1.318121 A    
C8    C11   1.540318 S    
C51   C52   1.519284 S    
C66   H49   1.110395 S    
C57   H27   1.113105 S    
C31   C33   1.388182 A    
C39   N4    1.433292 S    
C6    C12   1.542532 S    
C56   H25   1.105758 S    
C41   C45   1.417009 A    
C45   C46   1.406275 A    
C7    C13   1.543396 S    
C8    C14   1.542658 S    
N4    O11   1.301114 A    
C51   H12   1.114870 S    
C54   H18   1.109396 S    
C20   N8    1.434808 S    
C25   C29   1.421652 A    
O6    Zn2   1.956923 S    
C61   C62   1.520865 S    
C43   C49   1.420654 A    
C17   C23   1.400072 A    
C59   C60   1.520774 S    
C42   C44   1.423085 A    
C29   C30   1.413451 A    
C48   O20   1.382131 S    
C54   H19   1.110734 S    
O23   C63   1.416441 S    
C56   H24   1.110038 S    
C52   H13   1.109700 S    
C53   C54   1.521050 S    
O5    Zn1   1.956920 S    
O6    C4    1.305837 A    
C49   N9    1.436413 S    
C32   H10   1.071921 S    
N5    O16   1.301130 A    
C27   C33   1.398613 A    
C28   C34   1.395217 A    
C53   H16   1.100397 S    
C55   H22   1.113094 S    
O7    C3    1.300136 A    
C57   C58   1.508351 S    
C60   H33   1.110874 S    
C22   H7    1.078856 S    
O8    C4    1.308804 A    
C59   H32   1.113309 S    
O4    C2    1.311793 A    
C52   H14   1.109613 S    
C53   H17   1.110215 S    
N6    O18   1.301259 A    
N10   O31   1.301272 A    
N2    C40   1.371470 A    
C10   C16   1.183842 T    
O1    Zn1   1.943476 S    
C42   C46   1.435577 A    
C21   H8    1.082376 S    
C66   H50   1.110603 S    
C30   C31   1.412880 A    
C62   H38   1.110597 S    
N8    O28   1.301166 A    
C5    C7    1.550195 S    
C6    H4    1.109882 S    
C35   C43   1.417820 A    
C51   H11   1.111936 S    
O3    C1    1.315823 A    
O8    Zn1   1.977400 S    
C63   H42   1.108661 S    
C18   C22   1.394735 A    
C63   H41   1.118631 S    
O3    Zn2   1.896003 S    
C11   C13   1.527379 S    
C56   H23   1.105581 S    
C4    C10   1.397588 S    
C12   C14   1.525713 S    
C45   C48   1.408596 A    
C19   C27   1.420949 A    
C58   H30   1.110178 S    
C14   C16   1.428814 S    
C23   C25   1.400681 A    
C19   N7    1.437526 S    
N7    O25   1.301403 A    
C54   H20   1.111058 S    
C24   C26   1.399795 A    
C5    C14   1.539739 S    
O22   C61   1.408225 S    
C5    H3    1.110069 S    
C1    C17   1.464578 S    
C64   H45   1.110224 S    
N1    C39   1.365603 A    
C17   C21   1.397903 A    
C34   H6    1.080720 S    
C19   C21   1.403063 A    
C8    H2    1.110166 S    
C55   H21   1.107849 S    
O2    Zn2   1.943475 S    
C29   C32   1.415762 A    
C37   O14   1.386836 S    
C60   H34   1.110485 S    
C35   C37   1.406356 A    
O13   C51   1.419006 S    
C32   C34   1.386223 A    
N2    C38   1.360325 A    
C26   C30   1.418190 A    
C52   H15   1.106168 S    
N8    O27   1.301117 A    
C25   C27   1.420814 A    
C6    C8    1.557334 S    
N6    O17   1.301464 A    
C35   N5    1.432224 S    
O20   C57   1.418503 S    
N9    O29   1.300976 A    
C65   H46   1.114983 S    
C48   C50   1.404596 A    
C58   H29   1.110443 S    
O24   C65   1.411043 S    
C65   H47   1.114306 S    
C62   H39   1.110489 S    
