data_mof_unit_61983.cif
_audit_creation_date              2012-12-10T17:48:52-0500
_audit_creation_method            fapswitch 2.2
_symmetry_space_group_name_H-M    P1
_symmetry_Int_Tables_number       1
_space_group_crystal_system       triclinic
_cell_length_a                    23.556942
_cell_length_b                    23.5552
_cell_length_c                    38.675301
_cell_angle_alpha                 90.000023
_cell_angle_beta                  89.999893
_cell_angle_gamma                 89.999094
_cell_volume                      21460.4789904

loop_
_atom_site_label
_atom_site_type_symbol
_atom_type_description
_atom_site_fract_x
_atom_site_fract_y
_atom_site_fract_z
_atom_type_partial_charge
C1    C     C_R   0.500000 0.109502 0.500000 0.888142
C2    C     C_R   1.000000 0.500000 0.394706 -0.442168
C3    C     C_R   0.483481 0.049241 0.840556 0.330628
C4    C     C_R   0.954979 0.474093 0.159334 0.331794
C5    C     C_R   0.516391 0.049282 0.159446 0.330599
C6    C     C_R   0.045020 0.525907 0.159334 0.331794
C7    C     C_R   0.483610 0.950718 0.159447 0.330599
C8    C     C_R   0.500000 1.000000 0.322590 -0.310091
C9    C     C_R   1.000000 0.500000 0.322494 -0.307877
C10   C     C_R   0.499999 0.999999 0.677400 -0.310141
C11   C     C_R   0.999999 0.500001 0.677505 -0.307887
C12   C     C_R   0.000000 0.500004 0.822596 -0.310099
C13   C     C_R   0.500000 1.000000 0.605217 -0.441150
C14   C     C_R   0.499998 1.000000 0.822494 -0.307865
C15   C     C_R   1.000000 0.500000 0.177403 -0.310120
C16   C     C_R   0.500000 1.000000 0.177506 -0.307909
C17   C     C_3   0.410852 0.107954 0.324826 0.165811
C18   C     C_3   0.368480 0.132676 0.299255 -0.778649
C19   C     C_3   0.995342 0.359814 0.324895 0.168048
C20   C     C_3   0.010893 0.313120 0.299436 -0.781535
C21   C     C_3   0.589149 0.892046 0.324826 0.165810
C22   C     C_3   0.631521 0.867323 0.299255 -0.778649
C23   C     C_3   0.004658 0.640186 0.324895 0.168048
C24   C     C_R   1.000000 0.500000 0.605294 -0.442163
C25   C     C_3   0.989107 0.686880 0.299436 -0.781534
C26   C     C_3   0.411687 0.891378 0.675156 0.165770
C27   C     C_3   0.369490 0.866323 0.700714 -0.778644
C28   C     C_3   0.995418 0.640189 0.675104 0.168023
C29   C     C_3   0.010998 0.686876 0.700561 -0.781457
C30   C     C_3   0.588313 0.108620 0.675156 0.165773
C31   C     C_3   0.630507 0.133675 0.700716 -0.778652
C32   C     C_3   0.004580 0.359814 0.675105 0.168025
C33   C     C_3   0.989003 0.313130 0.700565 -0.781465
C34   C     C_3   0.911356 0.608365 0.824837 0.165790
C35   C     C_R   0.000000 0.500001 0.894779 -0.441175
C36   C     C_3   0.869093 0.633290 0.799271 -0.778652
C37   C     C_3   0.495470 0.859807 0.824897 0.168066
C38   C     C_3   0.511067 0.813126 0.799439 -0.781549
C39   C     C_3   0.088656 0.391648 0.824835 0.165801
C40   C     C_3   0.130916 0.366728 0.799265 -0.778670
C41   C     C_3   0.504527 0.140192 0.824897 0.168065
C42   C     C_3   0.488931 0.186874 0.799439 -0.781547
C43   C     C_3   0.911394 0.391610 0.175162 0.165784
C44   C     C_3   0.869140 0.366671 0.200727 -0.778635
C45   C     C_3   0.495108 0.140177 0.175109 0.167998
C46   C     C_R   0.499999 0.000000 0.894706 -0.442146
C47   C     C_3   0.510580 0.186896 0.200568 -0.781412
C48   C     C_3   0.088605 0.608390 0.175162 0.165782
C49   C     C_3   0.130859 0.633330 0.200727 -0.778634
C50   C     C_3   0.504893 0.859823 0.175108 0.167998
C51   C     C_3   0.489421 0.813104 0.200568 -0.781413
C52   C     C_R   1.000000 0.500000 0.105220 -0.441181
C53   C     C_R   0.500000 0.000000 0.105296 -0.442224
C54   C     C_R   0.500000 0.000000 0.215209 0.469017
C55   C     C_R   1.000000 0.500000 0.215110 0.468913
C56   C     C_R   0.499998 1.000000 0.784787 0.468773
C57   C     C_R   0.890496 0.500000 0.500000 0.892588
C58   C     C_R   1.000000 0.500003 0.784890 0.468986
C59   C     C_R   0.999999 0.500002 0.715211 0.468882
C60   C     C_R   0.499999 1.000000 0.715107 0.468813
C61   C     C_R   1.000000 0.500000 0.284788 0.468856
C62   C     C_R   0.500000 0.000000 0.284886 0.469100
C63   C     C_R   0.391884 0.500000 0.500000 0.879878
C64   C     C_R   0.500000 0.391884 0.500000 0.880075
C65   C     C_R   0.608116 0.500000 0.500000 0.879878
C66   C     C_R   0.500000 0.608116 0.500000 0.880074
C67   C     C_R   0.891884 0.000000 0.000000 0.879881
C68   C     C_R   0.500000 0.890498 0.500000 0.888142
C69   C     C_R   1.000000 0.891884 0.000000 0.880077
C70   C     C_R   0.108116 0.000000 1.000000 0.879880
C71   C     C_R   0.000000 0.108116 0.000000 0.880077
C72   C     C_R   0.500000 1.000000 0.432444 1.019112
C73   C     C_R   1.000000 0.500000 0.432420 1.024013
C74   C     C_R   0.500000 1.000000 0.567552 1.019689
C75   C     C_R   1.000000 0.500000 0.567580 1.024055
C76   C     C_R   1.000000 0.500000 0.932446 1.019454
C77   C     C_R   0.500000 0.000000 0.932420 1.024090
C78   C     C_R   1.000000 0.500000 0.067554 1.019483
C79   C     C_R   0.109504 0.500000 0.500000 0.892588
C80   C     C_R   0.500000 0.000000 0.067581 1.023872
C81   C     C_1   0.499999 0.169993 0.500000 -0.155320
C82   C     C_1   0.830005 0.500001 0.500000 -0.151156
C83   C     C_1   0.500001 0.830007 0.500000 -0.155320
C84   C     C_1   0.169995 0.499999 0.500000 -0.151156
C85   C     C_1   0.999999 0.669993 0.000000 -0.155305
C86   C     C_1   0.330005 0.000001 1.000000 -0.151171
C87   C     C_1   0.000001 0.330007 0.000000 -0.155305
C88   C     C_1   0.669995 0.999999 0.000000 -0.151171
C89   C     C_1   0.499999 0.220923 0.500000 0.019437
C90   C     C_R   1.000000 0.609502 0.000000 0.888183
C91   C     C_1   0.779076 0.500001 0.500000 0.024369
C92   C     C_1   0.500001 0.779077 0.500000 0.019437
C93   C     C_1   0.220924 0.499999 0.500000 0.024369
C94   C     C_1   0.999999 0.720923 0.000000 0.019440
C95   C     C_1   0.279076 0.000001 1.000000 0.024360
C96   C     C_1   0.000001 0.279077 0.000000 0.019440
C97   C     C_1   0.720924 0.999999 0.000000 0.024360
C98   C     C_1   0.500000 0.280459 0.500000 0.019982
C99   C     C_1   0.719540 0.500000 0.500000 0.023466
C100  C     C_1   0.500000 0.719541 0.500000 0.019982
C101  C     C_R   0.390496 0.000000 1.000000 0.892556
C102  C     C_1   0.280460 0.500000 0.500000 0.023466
C103  C     C_1   1.000000 0.780459 1.000000 0.019982
C104  C     C_1   0.219540 0.000000 1.000000 0.023459
C105  C     C_1   0.000000 0.219541 0.000000 0.019982
C106  C     C_1   0.780460 1.000000 0.000000 0.023459
C107  C     C_1   0.500000 0.331390 0.500000 -0.169261
C108  C     C_1   0.668610 0.500000 0.500000 -0.167455
C109  C     C_1   0.500000 0.668610 0.500000 -0.169261
C110  C     C_1   0.331390 0.500000 0.500000 -0.167454
C111  C     C_1   1.000000 0.831390 1.000000 -0.169265
C112  C     C_R   0.000000 0.390498 0.000000 0.888182
C113  C     C_1   0.168610 0.000000 1.000000 -0.167460
C114  C     C_1   0.000000 0.168610 0.000000 -0.169265
C115  C     C_1   0.831390 1.000000 0.000000 -0.167460
C116  C     C_R   0.454004 0.023425 0.376702 0.460657
C117  C     C_R   0.018534 0.451830 0.376600 0.460146
C118  C     C_R   0.545996 0.976575 0.376702 0.460655
C119  C     C_R   0.981466 0.548170 0.376600 0.460145
C120  C     C_R   0.454175 0.976245 0.623285 0.460517
C121  C     C_R   0.018559 0.548160 0.623399 0.460137
C122  C     C_R   0.545824 0.023754 0.623285 0.460515
C123  C     C_R   0.609504 1.000000 1.000000 0.892555
C124  C     C_R   0.981440 0.451841 0.623400 0.460133
C125  C     C_R   0.954108 0.523628 0.876709 0.460574
C126  C     C_R   0.518576 0.951847 0.876601 0.460126
C127  C     C_R   0.045893 0.476377 0.876709 0.460565
C128  C     C_R   0.481423 0.048153 0.876601 0.460125
C129  C     C_R   0.954116 0.476360 0.123289 0.460560
C130  C     C_R   0.518456 0.048200 0.123402 0.460188
C131  C     C_R   0.045884 0.523640 0.123289 0.460561
C132  C     C_R   0.481544 0.951800 0.123402 0.460189
C133  C     C_R   0.454857 0.025693 0.340657 0.331726
C134  C     C_R   0.500000 0.000000 0.394774 -0.441259
C135  C     C_R   0.016473 0.450745 0.340555 0.330619
C136  C     C_R   0.545144 0.974307 0.340657 0.331726
C137  C     C_R   0.983527 0.549255 0.340555 0.330617
C138  C     C_R   0.455044 0.973979 0.659329 0.331830
C139  C     C_R   0.016499 0.549246 0.659444 0.330622
C140  C     C_R   0.544955 0.026019 0.659330 0.331832
C141  C     C_R   0.983499 0.450756 0.659444 0.330625
C142  C     C_R   0.954971 0.525896 0.840665 0.331778
C143  C     C_R   0.516516 0.950759 0.840556 0.330627
C144  C     C_R   0.045030 0.474111 0.840664 0.331780
F1    F     F_    0.408514 0.044816 0.393936 -0.627546
F2    F     F_    0.540220 0.906372 0.893738 -0.626731
F3    F     F_    0.091282 0.454782 0.893948 -0.627611
F4    F     F_    0.459779 0.093628 0.893738 -0.626730
F5    F     F_    0.908736 0.454749 0.106050 -0.627606
F6    F     F_    0.539987 0.093731 0.106268 -0.626683
F7    F     F_    0.091264 0.545252 0.106050 -0.627606
F8    F     F_    0.460013 0.906269 0.106268 -0.626683
F9    F     F_    0.040138 0.406335 0.393736 -0.626722
F10   F     F_    0.591486 0.955184 0.393936 -0.627546
F11   F     F_    0.959862 0.593665 0.393736 -0.626721
F12   F     F_    0.408854 0.954517 0.606042 -0.627632
F13   F     F_    0.040187 0.593643 0.606263 -0.626719
F14   F     F_    0.591146 0.045481 0.606042 -0.627634
F15   F     F_    0.959813 0.406358 0.606263 -0.626721
F16   F     F_    0.908720 0.545223 0.893949 -0.627602
H1    H     H_    0.453757 0.124770 0.318155 0.119492
H2    H     H_    0.011232 0.330237 0.272675 0.261790
H3    H     H_    0.546243 0.875230 0.318155 0.119492
H4    H     H_    0.600939 0.877240 0.351158 0.194883
H5    H     H_    0.675017 0.882377 0.305479 0.269354
H6    H     H_    0.630680 0.820244 0.300671 0.203585
H7    H     H_    0.620446 0.880636 0.272541 0.261833
H8    H     H_    0.048037 0.624637 0.318216 0.119974
H9    H     H_    0.005446 0.658878 0.351287 0.195373
H10   H     H_    0.946433 0.704131 0.305660 0.268870
H11   H     H_    0.020720 0.721758 0.300985 0.203982
H12   H     H_    0.399062 0.122760 0.351158 0.194883
H13   H     H_    0.988767 0.669763 0.272675 0.261790
H14   H     H_    0.454719 0.874903 0.681843 0.119487
H15   H     H_    0.400039 0.876478 0.648821 0.194822
H16   H     H_    0.325880 0.881022 0.694470 0.269373
H17   H     H_    0.370714 0.819252 0.699304 0.203558
H18   H     H_    0.380427 0.879734 0.727430 0.261830
H19   H     H_    0.952031 0.624665 0.681785 0.119966
H20   H     H_    0.994638 0.658880 0.648711 0.195375
H21   H     H_    0.053680 0.704101 0.694335 0.268888
H22   H     H_    0.979404 0.721772 0.699012 0.203971
H23   H     H_    0.324983 0.117623 0.305479 0.269355
H24   H     H_    0.011330 0.669760 0.727323 0.261791
H25   H     H_    0.545280 0.125096 0.681840 0.119485
H26   H     H_    0.599965 0.123519 0.648822 0.194827
H27   H     H_    0.674117 0.118975 0.694475 0.269373
H28   H     H_    0.629283 0.180746 0.699306 0.203560
H29   H     H_    0.619564 0.120265 0.727432 0.261831
H30   H     H_    0.047968 0.375338 0.681783 0.119962
H31   H     H_    0.005357 0.341120 0.648713 0.195380
H32   H     H_    0.946320 0.295905 0.694342 0.268888
H33   H     H_    0.020597 0.278233 0.699016 0.203973
H34   H     H_    0.369321 0.179755 0.300671 0.203584
H35   H     H_    0.988675 0.330248 0.727326 0.261793
H36   H     H_    0.954339 0.624976 0.818160 0.119493
H37   H     H_    0.899646 0.623226 0.851170 0.194849
H38   H     H_    0.825527 0.618450 0.805503 0.269362
H39   H     H_    0.870165 0.680365 0.800685 0.203570
H40   H     H_    0.880092 0.619921 0.772556 0.261829
H41   H     H_    0.452078 0.875316 0.818217 0.119967
H42   H     H_    0.494699 0.841116 0.851289 0.195376
H43   H     H_    0.553756 0.795916 0.805664 0.268883
H44   H     H_    0.479486 0.778218 0.800989 0.203980
H45   H     H_    0.379555 0.119364 0.272541 0.261834
H46   H     H_    0.511390 0.830241 0.772677 0.261781
H47   H     H_    0.045674 0.375030 0.818163 0.119488
H48   H     H_    0.100375 0.376789 0.851168 0.194865
H49   H     H_    0.174481 0.381578 0.805492 0.269366
H50   H     H_    0.129855 0.319654 0.800682 0.203574
H51   H     H_    0.119906 0.380092 0.772551 0.261828
H52   H     H_    0.547920 0.124684 0.818216 0.119966
H53   H     H_    0.505300 0.158884 0.851289 0.195375
H54   H     H_    0.446242 0.204084 0.805664 0.268882
H55   H     H_    0.520512 0.221781 0.800988 0.203979
H56   H     H_    0.951963 0.375363 0.318216 0.119974
H57   H     H_    0.488606 0.169758 0.772677 0.261781
H58   H     H_    0.954383 0.375014 0.181839 0.119480
H59   H     H_    0.899691 0.376745 0.148828 0.194851
H60   H     H_    0.825569 0.381497 0.194495 0.269374
H61   H     H_    0.870228 0.319597 0.199313 0.203568
H62   H     H_    0.880134 0.380043 0.227442 0.261829
H63   H     H_    0.451755 0.124558 0.181786 0.119972
H64   H     H_    0.494291 0.158869 0.148716 0.195370
H65   H     H_    0.553223 0.204219 0.194344 0.268877
H66   H     H_    0.478907 0.221721 0.199020 0.203973
H67   H     H_    0.994554 0.341122 0.351287 0.195374
H68   H     H_    0.510951 0.169778 0.227329 0.261799
H69   H     H_    0.045616 0.624986 0.181839 0.119481
H70   H     H_    0.100308 0.623256 0.148828 0.194851
H71   H     H_    0.174431 0.618504 0.194494 0.269373
H72   H     H_    0.129771 0.680404 0.199313 0.203568
H73   H     H_    0.119867 0.619957 0.227442 0.261829
H74   H     H_    0.548246 0.875443 0.181786 0.119972
H75   H     H_    0.505710 0.841131 0.148716 0.195370
H76   H     H_    0.446777 0.795781 0.194344 0.268877
H77   H     H_    0.521094 0.778279 0.199020 0.203973
H78   H     H_    0.053567 0.295869 0.305659 0.268870
H79   H     H_    0.489050 0.830222 0.227329 0.261800
H80   H     H_    0.979280 0.278242 0.300985 0.203982
N1    N     N_R   0.517556 0.953624 0.267191 -0.162257
N2    N     N_R   0.517439 0.046420 0.767091 -0.161825
N3    N     N_R   0.982613 0.546442 0.767194 -0.162212
N4    N     N_R   0.482557 0.953580 0.767091 -0.161824
N5    N     N_R   0.017405 0.546432 0.232806 -0.162177
N6    N     N_R   0.517670 0.953665 0.232904 -0.161949
N7    N     N_R   0.982595 0.453568 0.232806 -0.162177
N8    N     N_R   0.482331 0.046335 0.232904 -0.161949
N9    N     N_R   0.017520 0.546390 0.267093 -0.161868
N10   N     N_R   0.482445 0.046377 0.267191 -0.162257
N11   N     N_R   0.982479 0.453610 0.267093 -0.161868
N12   N     N_R   0.517324 0.046461 0.732804 -0.162135
N13   N     N_R   0.017501 0.453604 0.732907 -0.161878
N14   N     N_R   0.482673 0.953539 0.732804 -0.162136
N15   N     N_R   0.982497 0.546400 0.732907 -0.161878
N16   N     N_R   0.017386 0.453564 0.767194 -0.162214
O1    O     O_R   0.546640 0.082440 0.499910 -0.610868
O2    O     O_R   0.417560 0.046640 0.999910 -0.611231
O3    O     O_R   0.953360 0.417560 0.999910 -0.610994
O4    O     O_R   0.582440 0.953360 0.999910 -0.611232
O5    O     O_R   0.046640 0.417560 0.000090 -0.611011
O6    O     O_R   0.417560 0.953360 0.000090 -0.611295
O7    O     O_R   0.953360 0.582440 0.000090 -0.611010
O8    O     O_R   0.582440 0.046640 0.000090 -0.611295
O9    O     O_R   0.546640 0.999670 0.448980 -0.569195
O10   O     O_R   0.000330 0.546640 0.448980 -0.572907
O11   O     O_R   0.453360 0.000330 0.448980 -0.569195
O12   O     O_R   0.917560 0.546640 0.499910 -0.611277
O13   O     O_R   0.999670 0.453360 0.448980 -0.572906
O14   O     O_R   0.546640 0.000330 0.551020 -0.569457
O15   O     O_R   0.000330 0.453360 0.551020 -0.572928
O16   O     O_R   0.453360 0.999670 0.551020 -0.569457
O17   O     O_R   0.999670 0.546640 0.551020 -0.572929
O18   O     O_R   0.046640 0.499670 0.948980 -0.569354
O19   O     O_R   0.500330 0.046640 0.948980 -0.572941
O20   O     O_R   0.953360 0.500330 0.948980 -0.569356
O21   O     O_R   0.499670 0.953360 0.948980 -0.572941
O22   O     O_R   0.046640 0.500330 0.051020 -0.569368
O23   O     O_R   0.453360 0.917560 0.499910 -0.610868
O24   O     O_R   0.500330 0.953360 0.051020 -0.572838
O25   O     O_R   0.953360 0.499670 0.051020 -0.569368
O26   O     O_R   0.499670 0.046640 0.051020 -0.572839
O27   O     O_R   0.418280 0.499620 0.470400 -0.605537
O28   O     O_R   0.500380 0.418280 0.470400 -0.606117
O29   O     O_R   0.581720 0.500380 0.470400 -0.605538
O30   O     O_R   0.499620 0.581720 0.470400 -0.606117
O31   O     O_R   0.418280 0.500380 0.529600 -0.605541
O32   O     O_R   0.500380 0.581720 0.529600 -0.606124
O33   O     O_R   0.581720 0.499620 0.529600 -0.605540
O34   O     O_R   0.082440 0.453360 0.499910 -0.611277
O35   O     O_R   0.499620 0.418280 0.529600 -0.606124
O36   O     O_R   0.918280 0.999620 0.970400 -0.605532
O37   O     O_R   0.000380 0.918280 0.970400 -0.606117
O38   O     O_R   0.081720 0.000380 0.970400 -0.605533
O39   O     O_R   0.999620 0.081720 0.970400 -0.606117
O40   O     O_R   0.918280 0.000380 0.029600 -0.605549
O41   O     O_R   0.000380 0.081720 0.029600 -0.606128
O42   O     O_R   0.081720 0.999620 0.029600 -0.605549
O43   O     O_R   0.999620 0.918280 0.029600 -0.606127
O44   O     O_3   0.408975 0.048035 0.322874 -0.553015
O45   O     O_R   0.546640 0.917560 0.500090 -0.611145
O46   O     O_3   0.036172 0.403674 0.322765 -0.553987
O47   O     O_3   0.591026 0.951965 0.322874 -0.553015
O48   O     O_3   0.963828 0.596326 0.322765 -0.553987
O49   O     O_3   0.409333 0.951281 0.677107 -0.552962
O50   O     O_3   0.036224 0.596306 0.677234 -0.553979
O51   O     O_3   0.590665 0.048718 0.677107 -0.552963
O52   O     O_3   0.963774 0.403697 0.677235 -0.553981
O53   O     O_3   0.909193 0.548455 0.822884 -0.552992
O54   O     O_3   0.536260 0.903706 0.822766 -0.553978
O55   O     O_3   0.090810 0.451557 0.822882 -0.552999
O56   O     O_R   0.917560 0.453360 0.500090 -0.611246
O57   O     O_3   0.463738 0.096294 0.822767 -0.553978
O58   O     O_3   0.909208 0.451519 0.177114 -0.552982
O59   O     O_3   0.536010 0.096384 0.177239 -0.553988
O60   O     O_3   0.090791 0.548481 0.177114 -0.552982
O61   O     O_3   0.463991 0.903617 0.177239 -0.553988
O62   O     O_R   0.453360 0.082440 0.500090 -0.611145
O63   O     O_R   0.082440 0.546640 0.500090 -0.611246
O64   O     O_R   0.046640 0.582440 0.999910 -0.610994
Zn1   Zn    Zn3+2 0.562320 0.000000 0.500000 1.078594
Zn2   Zn    Zn3+2 0.500000 0.500000 0.538280 0.997299
Zn3   Zn    Zn3+2 0.000000 1.000000 0.961720 0.997322
Zn4   Zn    Zn3+2 0.000000 0.000000 0.038280 0.997276
Zn5   Zn    Zn3+2 1.000000 0.562320 0.500000 1.070695
Zn6   Zn    Zn3+2 0.437680 0.000000 0.500000 1.078595
Zn7   Zn    Zn3+2 1.000000 0.437680 0.500000 1.070695
Zn8   Zn    Zn3+2 0.062320 0.500000 0.000000 1.078573
Zn9   Zn    Zn3+2 0.500000 0.062320 0.000000 1.070722
Zn10  Zn    Zn3+2 0.937680 0.500000 0.000000 1.078574
Zn11  Zn    Zn3+2 0.500000 0.937680 0.000000 1.070722
Zn12  Zn    Zn3+2 0.500000 0.500000 0.461720 0.997324

loop_
_geom_bond_atom_site_label_1
_geom_bond_atom_site_label_2
_ccdc_geom_bond_type
O31   Zn2   S    
C68   O45   A    
C21   H3    S    
C131  F7    S    
C19   C20   S    
C144  O55   S    
C64   O35   A    
C112  O3    A    
C116  F1    S    
C126  C143  A    
O26   Zn9   S    
N3    N15   A    
C65   O29   A    
C138  O49   S    
C47   H68   S    
C58   N16   A    
O41   Zn4   S    
C65   C108  S    
C88   C97   T    
C63   O31   A    
C25   H11   S    
C17   O44   S    
O40   Zn4   S    
C100  C109  T    
C38   H44   S    
C21   C22   S    
C45   H64   S    
C10   C140  A    
C2    C117  A    
N8    N10   A    
C45   C47   S    
O18   Zn8   S    
C59   N15   A    
C27   H17   S    
C78   O22   A    
C34   O53   S    
C74   O16   A    
C87   C112  S    
C40   H49   S    
C82   C91   T    
C32   H31   S    
C21   O47   S    
C10   C60   S    
C43   C44   S    
C37   C38   S    
C41   H53   S    
C60   N14   A    
C122  F14   S    
C53   C132  A    
C71   O39   A    
C35   C127  A    
C28   H20   S    
C7    C132  A    
C5    C130  A    
C117  F9    S    
C132  F8    S    
C120  C138  A    
C37   O54   S    
O27   Zn12  S    
O28   Zn12  S    
C143  O54   S    
C118  C136  A    
C56   N2    A    
C7    O61   S    
C68   C83   S    
O39   Zn3   S    
C39   O55   S    
C27   H16   S    
C46   C77   S    
C85   C90   S    
O24   Zn11  S    
C106  C115  T    
C66   O32   A    
C47   H66   S    
C18   H23   S    
C20   H78   S    
O8    Zn9   S    
C84   C93   T    
O64   Zn8   S    
C16   C54   S    
C73   O10   A    
C22   H6    S    
C25   H13   S    
C62   N10   A    
C116  C134  A    
C31   H27   S    
C10   C138  A    
C8    C62   S    
O12   Zn5   S    
C59   N13   A    
C77   O19   A    
C44   H60   S    
C36   H39   S    
C74   O14   A    
C125  F16   S    
O6    Zn11  S    
C99   C108  T    
C40   H51   S    
C9    C61   S    
C79   C84   S    
O62   Zn6   S    
C137  O48   S    
C35   C125  A    
C19   H67   S    
C24   C121  A    
C42   H55   S    
C67   O40   A    
C130  F6    S    
C37   H42   S    
C118  C134  A    
C56   N4    A    
C41   O57   S    
C101  O6    A    
C75   O17   A    
O42   Zn4   S    
C70   C113  S    
C35   C76   S    
C29   H22   S    
C30   H25   S    
C66   O30   A    
C53   C80   S    
C86   C95   T    
C39   C40   S    
C3    C128  A    
C20   H80   S    
C15   C55   S    
O36   Zn3   S    
C71   O41   A    
C78   O25   A    
C129  F5    S    
O30   Zn12  S    
C64   O28   A    
C23   H9    S    
C123  O8    A    
C20   H2    S    
C39   H48   S    
C17   C18   S    
C19   O46   S    
C32   H30   S    
C11   C141  A    
C2    C73   S    
C17   H1    S    
C48   H69   S    
C9    C135  A    
C124  C141  A    
C43   H58   S    
C44   H62   S    
C135  O46   S    
C13   C120  A    
C62   N1    A    
N5    N9    A    
C43   O58   S    
N13   N16   A    
N7    N11   A    
C141  O52   S    
C89   C98   S    
N2    N12   A    
C121  C139  A    
C49   H72   S    
C122  C140  A    
O21   Zn11  S    
C133  O44   S    
C48   O60   S    
C34   C36   S    
C5    O59   S    
C79   O34   A    
C104  C113  T    
C6    O60   S    
O38   Zn3   S    
C61   N9    A    
C57   C82   S    
N4    N14   A    
C91   C99   S    
O34   Zn7   S    
C25   H10   S    
C96   C105  S    
C80   O26   A    
C29   H24   S    
C8    C136  A    
C41   C42   S    
C17   H12   S    
C139  O50   S    
C26   C27   S    
C18   H45   S    
C52   C129  A    
C3    O57   S    
C28   C29   S    
C36   H38   S    
O5    Zn8   S    
C30   C31   S    
C11   C59   S    
C18   H34   S    
C26   H14   S    
C1    C81   S    
C40   H50   S    
C120  F12   S    
C142  O53   S    
C103  C111  T    
O25   Zn10  S    
C50   H74   S    
O3    Zn10  S    
C11   C139  A    
C45   O59   S    
C23   O48   S    
C41   H52   S    
C9    C137  A    
O63   Zn5   S    
C57   O12   A    
O43   Zn4   S    
C27   H18   S    
C54   N8    A    
C112  O5    A    
C81   C89   T    
C33   H33   S    
C21   H4    S    
O23   Zn6   S    
C52   C78   S    
O22   Zn8   S    
C1    O1    A    
C136  O47   S    
N1    N6    A    
C45   H63   S    
O19   Zn9   S    
C68   O23   A    
C128  F4    S    
O35   Zn2   S    
C67   O36   A    
C98   C107  T    
C71   C114  S    
C51   H76   S    
C30   O51   S    
C72   C134  S    
C47   H65   S    
C61   N11   A    
C101  O2    A    
C50   C51   S    
C76   O18   A    
C3    C14   A    
C97   C106  S    
C48   C49   S    
C94   C103  S    
C38   H43   S    
C69   O37   A    
C102  C110  T    
C65   O33   A    
C14   C143  A    
C32   O52   S    
C52   C131  A    
C43   H59   S    
C36   H40   S    
C6    C131  A    
C93   C102  S    
C24   C75   S    
C4    C129  A    
C116  C133  A    
C123  O4    A    
C31   H29   S    
C32   C33   S    
C90   O64   A    
C75   O15   A    
C63   C110  S    
O37   Zn3   S    
C72   O9    A    
O14   Zn1   S    
C12   C142  A    
C127  C144  A    
C54   N6    A    
C66   C109  S    
C58   N3    A    
C28   H19   S    
O9    Zn1   S    
C23   H8    S    
O10   Zn5   S    
C13   C74   S    
C33   H35   S    
C69   O43   A    
C80   O24   A    
C37   H41   S    
C51   H79   S    
C14   C56   S    
O17   Zn5   S    
C42   H57   S    
C126  F2    S    
O11   Zn6   S    
C63   O27   A    
O29   Zn12  S    
C83   C92   T    
C29   H21   S    
C33   H32   S    
C30   H26   S    
C46   C128  A    
C124  F15   S    
C24   C124  A    
C76   O20   A    
C19   H56   S    
C77   O21   A    
C67   C115  S    
O4    Zn11  S    
C49   H73   S    
C6    C15   A    
C22   H5    S    
C5    C16   A    
C39   H47   S    
C31   H28   S    
O1    Zn1   S    
C118  F10   S    
C12   C58   S    
C23   C25   S    
C55   N7    A    
C1    O62   A    
C88   C123  S    
O33   Zn2   S    
O7    Zn10  S    
C119  C137  A    
C105  C114  T    
O16   Zn6   S    
C4    O58   S    
C50   O61   S    
O13   Zn7   S    
C72   O11   A    
C12   C144  A    
C49   H71   S    
C42   H54   S    
C85   C94   T    
C125  C142  A    
O56   Zn7   S    
C87   C96   T    
C70   O42   A    
O20   Zn10  S    
C51   H77   S    
C79   O63   A    
C90   O7    A    
O2    Zn9   S    
C28   O50   S    
O45   Zn1   S    
C22   H7    S    
C95   C104  S    
C92   C100  S    
C64   C107  S    
O32   Zn2   S    
C34   H36   S    
C7    C16   A    
C119  F11   S    
C38   H46   S    
C8    C133  A    
C46   C126  A    
C57   O56   A    
C2    C119  A    
C53   C130  A    
O15   Zn7   S    
C4    C15   A    
C48   H70   S    
C73   O13   A    
C13   C122  A    
C69   C111  S    
C34   H37   S    
C26   H15   S    
C70   O38   A    
C50   H75   S    
C140  O51   S    
C55   N5    A    
C26   O49   S    
C60   N12   A    
C121  F13   S    
C44   H61   S    
C86   C101  S    
C127  F3    S    
C117  C135  A    
