data_mof_unit_61971.cif
_audit_creation_date              2013-03-05T15:43:14-0500
_audit_creation_method            fapswitch 2.2
_symmetry_space_group_name_H-M    P1
_symmetry_Int_Tables_number       1
_space_group_crystal_system       triclinic
_cell_length_a                    18.522911
_cell_length_b                    18.522791
_cell_length_c                    59.908199
_cell_angle_alpha                 90.000342
_cell_angle_beta                  89.999578
_cell_angle_gamma                 89.999221
_cell_volume                      20554.2639903

loop_
_atom_site_label
_atom_site_type_symbol
_atom_site_description
_atom_site_fract_x
_atom_site_fract_y
_atom_site_fract_z
_atom_type_partial_charge
Zn1   Zn    Zn3+2 0.585740 0.000000 0.981400 0.980796
Zn2   Zn    Zn3+2 0.000000 0.585740 0.981400 0.980822
Zn3   Zn    Zn3+2 0.414260 0.000000 0.981400 0.980686
Zn4   Zn    Zn3+2 0.000000 0.414260 0.981400 0.980708
Zn5   Zn    Zn3+2 0.085740 0.500000 0.481400 0.980632
Zn6   Zn    Zn3+2 0.500000 0.085740 0.481400 0.980737
Zn7   Zn    Zn3+2 0.914260 0.500000 0.481400 0.980870
Zn8   Zn    Zn3+2 0.500000 0.914260 0.481400 0.980752
Zn9   Zn    Zn3+2 0.500000 0.914160 0.018820 0.978546
Zn10  Zn    Zn3+2 0.085840 0.500000 0.018820 0.978497
Zn11  Zn    Zn3+2 0.500000 0.085840 0.018820 0.978445
Zn12  Zn    Zn3+2 0.914160 0.500000 0.018820 0.978597
Zn13  Zn    Zn3+2 1.000000 0.414160 0.518820 0.978520
Zn14  Zn    Zn3+2 0.585840 0.000000 0.518820 0.978630
Zn15  Zn    Zn3+2 1.000000 0.585840 0.518820 0.978521
Zn16  Zn    Zn3+2 0.414160 0.000000 0.518820 0.978433
O1    O     O_3   0.500000 0.000000 0.000110 -0.489783
O2    O     O_3   1.000000 0.500000 0.000110 -0.489789
O3    O     O_3   1.000000 0.500000 0.500110 -0.489773
O4    O     O_3   0.500000 0.000000 0.500110 -0.489783
O5    O     O_R   0.500000 0.060060 0.050050 -0.644537
O6    O     O_R   0.939940 0.500000 0.050050 -0.644573
O7    O     O_R   0.500000 0.939940 0.050050 -0.644815
O8    O     O_R   0.060060 0.500000 0.050050 -0.644292
O9    O     O_R   0.000000 0.560060 0.550050 -0.644594
O10   O     O_R   0.439940 0.000000 0.550050 -0.644266
O11   O     O_R   1.000000 0.439940 0.550050 -0.644590
O12   O     O_R   0.560060 0.000000 0.550050 -0.644829
O13   O     O_R   0.559990 0.000000 0.950170 -0.643599
O14   O     O_R   1.000000 0.559990 0.950170 -0.643338
O15   O     O_R   0.440010 0.000000 0.950170 -0.643884
O16   O     O_R   1.000000 0.440010 0.950170 -0.643624
O17   O     O_R   0.059990 0.500000 0.450170 -0.643935
O18   O     O_R   0.500000 0.059990 0.450170 -0.643645
O19   O     O_R   0.940010 0.500000 0.450170 -0.643347
O20   O     O_R   0.500000 0.940010 0.450170 -0.643631
O21   O     O_R   0.584430 0.855390 0.013200 -0.642183
O22   O     O_R   0.144610 0.584430 0.013200 -0.642598
O23   O     O_R   0.415570 0.144610 0.013200 -0.642508
O24   O     O_R   0.855390 0.415570 0.013200 -0.642539
O25   O     O_R   0.415570 0.855390 0.013200 -0.642332
O26   O     O_R   0.855390 0.584430 0.013200 -0.642279
O27   O     O_R   0.584430 0.144610 0.013200 -0.642397
O28   O     O_R   0.144610 0.415570 0.013200 -0.642596
O29   O     O_R   0.084430 0.355390 0.513200 -0.642473
O30   O     O_R   0.644610 0.084430 0.513200 -0.642188
O31   O     O_R   0.915570 0.644610 0.513200 -0.642216
O32   O     O_R   0.355390 0.915570 0.513200 -0.642580
O33   O     O_R   0.915570 0.355390 0.513200 -0.642391
O34   O     O_R   0.355390 0.084430 0.513200 -0.642654
O35   O     O_R   0.084430 0.644610 0.513200 -0.642639
O36   O     O_R   0.644610 0.915570 0.513200 -0.642272
O37   O     O_R   0.355260 0.084530 0.987020 -0.640635
O38   O     O_R   0.915470 0.355260 0.987020 -0.641439
O39   O     O_R   0.644740 0.915470 0.987020 -0.640907
O40   O     O_R   0.084530 0.644740 0.987020 -0.641303
O41   O     O_R   0.644740 0.084530 0.987020 -0.641047
O42   O     O_R   0.084530 0.355260 0.987020 -0.640404
O43   O     O_R   0.355260 0.915470 0.987020 -0.641177
O44   O     O_R   0.915470 0.644740 0.987020 -0.640662
O45   O     O_R   0.855260 0.584530 0.487020 -0.641307
O46   O     O_R   0.415470 0.855260 0.487020 -0.640470
O47   O     O_R   0.144740 0.415470 0.487020 -0.641175
O48   O     O_R   0.584530 0.144740 0.487020 -0.640894
O49   O     O_R   0.144740 0.584530 0.487020 -0.640602
O50   O     O_R   0.584530 0.855260 0.487020 -0.641426
O51   O     O_R   0.855260 0.415470 0.487020 -0.640703
O52   O     O_R   0.415470 0.144740 0.487020 -0.641028
C1    C     C_R   0.500000 0.000000 0.060759 0.801120
C2    C     C_R   1.000000 0.499999 0.060759 0.801440
C3    C     C_R   0.000001 0.500000 0.560760 0.801324
C4    C     C_R   0.500000 1.000000 0.560759 0.801258
C5    C     C_R   0.500000 0.000000 0.939453 0.836703
C6    C     C_R   0.000000 0.500000 0.939453 0.836729
C7    C     C_R   0.000000 0.500000 0.439453 0.836759
C8    C     C_R   0.500000 1.000000 0.439453 0.836759
C9    C     C_R   0.638660 0.861550 0.000202 0.858763
C10   C     C_R   0.138745 0.638365 0.000072 0.857814
C11   C     C_R   0.361340 0.138450 0.000202 0.858688
C12   C     C_R   0.861549 0.361341 0.000201 0.858292
C13   C     C_R   0.361340 0.861550 0.000202 0.858529
C14   C     C_R   0.861257 0.638367 0.000073 0.858225
C15   C     C_R   0.638366 0.138744 0.000073 0.858065
C16   C     C_R   0.138743 0.361633 0.000073 0.858180
C17   C     C_R   0.138659 0.361550 0.500201 0.858435
C18   C     C_R   0.638450 0.138660 0.500202 0.858767
C19   C     C_R   0.861634 0.638744 0.500073 0.858020
C20   C     C_R   0.361256 0.861633 0.500073 0.858172
C21   C     C_R   0.861633 0.361257 0.500073 0.858163
C22   C     C_R   0.361256 0.138366 0.500073 0.857927
C23   C     C_R   0.138660 0.638450 0.500202 0.858650
C24   C     C_R   0.638450 0.861340 0.500201 0.858454
C25   C     C_2   0.806940 0.249213 0.987033 -0.149737
C26   C     C_2   0.750801 0.806954 0.987039 -0.149311
C27   C     C_2   0.191876 0.751973 0.987553 -0.150115
C28   C     C_2   0.249201 0.193047 0.987039 -0.149107
C29   C     C_2   0.191866 0.248017 0.987558 -0.149506
C30   C     C_2   0.249216 0.806937 0.987032 -0.149505
C31   C     C_2   0.808136 0.751984 0.987559 -0.149727
C32   C     C_2   0.751969 0.191879 0.987552 -0.149910
C33   C     C_2   0.308133 0.748019 0.487557 -0.149562
C34   C     C_2   0.250786 0.306939 0.487033 -0.149545
C35   C     C_2   0.693046 0.250801 0.487040 -0.149302
C36   C     C_2   0.748030 0.691877 0.487552 -0.150136
C37   C     C_2   0.693060 0.749212 0.487033 -0.149716
C38   C     C_2   0.748018 0.308135 0.487558 -0.149750
C39   C     C_2   0.308121 0.251969 0.487551 -0.149887
C40   C     C_2   0.250799 0.693047 0.487039 -0.149064
C41   C     C_2   0.806637 0.305606 0.001078 -0.291174
C42   C     C_2   0.694399 0.806641 0.001080 -0.291563
C43   C     C_2   0.196061 0.691699 0.999894 -0.289915
C44   C     C_2   0.305602 0.193360 0.001080 -0.291617
C45   C     C_2   0.196053 0.308294 0.999897 -0.290266
C46   C     C_2   0.305597 0.806646 0.001081 -0.291180
C47   C     C_2   0.803948 0.691707 0.999898 -0.290159
C48   C     C_2   0.691706 0.196053 0.999898 -0.289926
C49   C     C_2   0.303949 0.808293 0.499898 -0.290291
C50   C     C_2   0.194396 0.306639 0.501079 -0.291141
C51   C     C_2   0.693360 0.194396 0.501079 -0.291583
C52   C     C_2   0.808295 0.696055 0.499897 -0.289792
C53   C     C_2   0.693360 0.805603 0.501079 -0.291126
C54   C     C_2   0.808291 0.303949 0.499899 -0.290218
C55   C     C_2   0.303945 0.191704 0.499896 -0.289944
C56   C     C_2   0.194396 0.693361 0.501079 -0.291672
H1    H     H_    0.849608 0.243842 0.974702 0.181638
H2    H     H_    0.756180 0.849630 0.974711 0.181907
H3    H     H_    0.144937 0.761614 0.977095 0.180860
H4    H     H_    0.243823 0.150371 0.974710 0.182033
H5    H     H_    0.144928 0.238377 0.977100 0.181237
H6    H     H_    0.243859 0.849591 0.974695 0.181742
H7    H     H_    0.855075 0.761623 0.977101 0.181067
H8    H     H_    0.761599 0.144951 0.977088 0.180988
H9    H     H_    0.355068 0.738382 0.477098 0.181208
H10   H     H_    0.256153 0.349604 0.474700 0.181761
H11   H     H_    0.650368 0.256183 0.474712 0.181910
H12   H     H_    0.738398 0.644946 0.477090 0.180846
H13   H     H_    0.650395 0.743845 0.474701 0.181637
H14   H     H_    0.738381 0.355070 0.477099 0.181037
H15   H     H_    0.355051 0.261599 0.477089 0.181015
H16   H     H_    0.256180 0.650370 0.474711 0.182033
H17   H     H_    0.766337 0.312049 0.013973 0.152637
H18   H     H_    0.687951 0.766336 0.013973 0.152503
H19   H     H_    0.242579 0.679044 0.010060 0.152681
H20   H     H_    0.312049 0.233666 0.013973 0.152456
H21   H     H_    0.242563 0.320943 0.010066 0.152562
H22   H     H_    0.312018 0.766363 0.013983 0.152633
H23   H     H_    0.757436 0.679057 0.010067 0.152643
H24   H     H_    0.679065 0.242555 0.010073 0.152684
H25   H     H_    0.257441 0.820939 0.510069 0.152554
H26   H     H_    0.187958 0.266343 0.513975 0.152663
H27   H     H_    0.733670 0.187943 0.513971 0.152480
H28   H     H_    0.820939 0.742561 0.510069 0.152753
H29   H     H_    0.733656 0.812041 0.513975 0.152686
H30   H     H_    0.820938 0.257442 0.510070 0.152615
H31   H     H_    0.257441 0.179061 0.510069 0.152657
H32   H     H_    0.187944 0.733670 0.513972 0.152406
C57   C     C_R   0.491475 0.063794 0.832806 0.567146
C58   C     C_R   0.936511 0.510550 0.832808 0.567075
C59   C     C_R   0.508526 0.936206 0.832805 0.567127
C60   C     C_R   0.063493 0.489445 0.832807 0.567090
C61   C     C_R   0.008841 0.563746 0.332806 0.567120
C62   C     C_R   0.436236 0.991230 0.332806 0.567144
C63   C     C_R   0.991165 0.436243 0.332806 0.567126
C64   C     C_R   0.563757 0.008766 0.332806 0.567105
O53   O     O_2   0.483380 0.125797 0.844371 -0.531968
O54   O     O_2   0.874787 0.520589 0.844372 -0.531914
O55   O     O_2   0.516621 0.874204 0.844371 -0.532001
O56   O     O_2   0.125217 0.479406 0.844372 -0.531881
O57   O     O_2   0.017235 0.625710 0.344371 -0.531964
O58   O     O_2   0.374262 0.982903 0.344371 -0.531920
O59   O     O_2   0.982772 0.374278 0.344371 -0.531952
O60   O     O_2   0.625731 0.017093 0.344371 -0.531999
N1    N     N_R   0.500000 0.000000 0.843976 -0.342334
N2    N     N_R   0.000002 0.499998 0.843978 -0.342344
N3    N     N_R   0.000003 0.499994 0.343976 -0.342337
N4    N     N_R   0.499996 0.999998 0.343976 -0.342338
C65   C     C_R   0.434592 0.994445 0.879680 0.187918
C66   C     C_R   0.006921 0.565278 0.879684 0.187980
C67   C     C_R   0.565409 0.005556 0.879680 0.187868
C68   C     C_R   0.993081 0.434718 0.879684 0.188034
C69   C     C_R   0.065398 0.494294 0.379681 0.187955
C70   C     C_R   0.505703 0.934602 0.379680 0.187904
C71   C     C_R   0.934606 0.505696 0.379680 0.187856
C72   C     C_R   0.494290 0.065395 0.379680 0.187896
C73   C     C_R   0.434801 0.994608 0.902981 -0.229704
C74   C     C_R   0.006717 0.565076 0.902984 -0.229286
C75   C     C_R   0.565200 0.005391 0.902980 -0.229463
C76   C     C_R   0.993284 0.434922 0.902984 -0.229525
C77   C     C_R   0.065189 0.494467 0.402981 -0.229733
C78   C     C_R   0.505536 0.934811 0.402981 -0.229475
C79   C     C_R   0.934813 0.505528 0.402981 -0.229237
C80   C     C_R   0.494460 0.065187 0.402981 -0.229488
C81   C     C_R   0.500000 0.000000 0.867920 0.210875
C82   C     C_R   0.000002 0.499998 0.867923 0.210618
C83   C     C_R   0.000002 0.499994 0.367920 0.210806
C84   C     C_R   0.499996 0.999998 0.367920 0.210820
C85   C     C_R   0.500000 1.000000 0.797459 -0.045455
C86   C     C_R   0.000003 0.499998 0.797462 -0.045523
C87   C     C_R   0.000003 0.499995 0.297460 -0.045477
C88   C     C_R   0.499997 0.999998 0.297460 -0.045482
C89   C     C_R   0.491047 0.064952 0.809366 -0.028520
C90   C     C_R   0.935371 0.511054 0.809368 -0.028518
C91   C     C_R   0.508954 0.935047 0.809366 -0.028509
C92   C     C_R   0.064634 0.488942 0.809368 -0.028529
C93   C     C_R   0.009284 0.564902 0.309366 -0.028516
C94   C     C_R   0.435079 0.990789 0.309367 -0.028529
C95   C     C_R   0.990722 0.435087 0.309366 -0.028521
C96   C     C_R   0.564915 0.009207 0.309366 -0.028503
C97   C     C_R   0.482300 0.129560 0.797692 -0.117426
C98   C     C_R   0.871082 0.521930 0.797693 -0.117335
C99   C     C_R   0.517700 0.870439 0.797692 -0.117431
C100  C     C_R   0.128924 0.478066 0.797693 -0.117332
C101  C     C_R   0.018362 0.629466 0.297692 -0.117393
C102  C     C_R   0.370505 0.981784 0.297692 -0.117382
C103  C     C_R   0.981644 0.370524 0.297691 -0.117393
C104  C     C_R   0.629489 0.018213 0.297692 -0.117390
C105  C     C_R   0.500000 1.000000 0.914831 -0.084470
C106  C     C_R   0.000000 0.499999 0.914834 -0.084385
C107  C     C_R   0.000001 0.499999 0.414832 -0.084476
C108  C     C_R   0.499999 0.999999 0.414832 -0.084481
H33   H     H_    0.616093 0.009762 0.911770 0.191826
H34   H     H_    0.987840 0.384134 0.911776 0.191654
H35   H     H_    0.383908 0.990237 0.911770 0.191681
H36   H     H_    0.012160 0.615864 0.911776 0.191806
H37   H     H_    0.883929 0.510012 0.411771 0.191911
H38   H     H_    0.489971 0.116071 0.411771 0.191821
H39   H     H_    0.116073 0.489984 0.411771 0.191677
H40   H     H_    0.510026 0.883928 0.411771 0.191764
H41   H     H_    0.476286 0.180380 0.806453 0.193854
H42   H     H_    0.820477 0.529608 0.806454 0.193856
H43   H     H_    0.523714 0.819619 0.806452 0.193853
H44   H     H_    0.179528 0.470388 0.806454 0.193857
H45   H     H_    0.024628 0.680256 0.306452 0.193856
H46   H     H_    0.319706 0.975571 0.306453 0.193853
H47   H     H_    0.975378 0.319733 0.306451 0.193856
H48   H     H_    0.680288 0.024426 0.306452 0.193850
C109  C     C_R   0.999999 0.499999 0.085378 -0.013540
C110  C     C_R   0.499999 0.000000 0.085378 -0.013407
C111  C     C_R   0.500000 0.999999 0.585378 -0.013470
C112  C     C_R   0.000003 0.500000 0.585380 -0.013613
C113  C     C_R   0.014976 0.564991 0.238259 0.045538
C114  C     C_R   0.434982 0.985115 0.238258 0.045535
C115  C     C_R   0.985024 0.435002 0.238259 0.045538
C116  C     C_R   0.565013 0.014883 0.238258 0.045536
C117  C     C_R   0.485406 0.065083 0.738257 0.045548
C118  C     C_R   0.935450 0.516768 0.738260 0.045527
C119  C     C_R   0.514593 0.934915 0.738257 0.045548
C120  C     C_R   0.064559 0.483230 0.738260 0.045526
C121  C     C_R   0.999999 0.499996 0.226530 0.074341
C122  C     C_R   0.499998 0.999999 0.226530 0.074354
C123  C     C_R   0.500000 0.999999 0.726528 0.074330
C124  C     C_R   0.000005 0.499999 0.726531 0.074362
C125  C     C_R   0.033195 0.627208 0.225732 -0.207055
C126  C     C_R   0.372740 0.966997 0.225730 -0.207073
C127  C     C_R   0.966803 0.372785 0.225731 -0.207057
C128  C     C_R   0.627256 0.033001 0.225730 -0.207072
C129  C     C_R   0.467586 0.127414 0.725728 -0.207057
C130  C     C_R   0.873766 0.536701 0.725732 -0.207065
C131  C     C_R   0.532413 0.872583 0.725728 -0.207058
C132  C     C_R   0.126243 0.463298 0.725732 -0.207067
C133  C     C_R   0.034028 0.626247 0.202547 -0.131893
C134  C     C_R   0.373700 0.966163 0.202546 -0.131914
C135  C     C_R   0.965968 0.373747 0.202547 -0.131894
C136  C     C_R   0.626296 0.033835 0.202546 -0.131912
C137  C     C_R   0.466753 0.126459 0.702544 -0.131904
C138  C     C_R   0.874755 0.537519 0.702548 -0.131943
C139  C     C_R   0.533245 0.873538 0.702544 -0.131905
C140  C     C_R   0.125255 0.462480 0.702548 -0.131946
C141  C     C_R   0.016985 0.563306 0.190868 -0.024121
C142  C     C_R   0.436666 0.983107 0.190867 -0.024123
C143  C     C_R   0.983010 0.436689 0.190868 -0.024114
C144  C     C_R   0.563330 0.016891 0.190867 -0.024130
C145  C     C_R   0.483402 0.063411 0.690865 -0.024135
C146  C     C_R   0.937197 0.518743 0.690869 -0.024187
C147  C     C_R   0.516597 0.936586 0.690865 -0.024135
C148  C     C_R   0.062813 0.481257 0.690869 -0.024172
C149  C     C_R   0.999998 0.499997 0.202776 -0.049184
C150  C     C_R   0.499998 0.999999 0.202776 -0.049168
C151  C     C_R   0.499999 0.999999 0.702774 -0.049176
C152  C     C_R   0.000005 0.500000 0.702778 -0.049131
C153  C     C_R   0.983201 0.437878 0.167420 0.507465
C154  C     C_R   0.562142 0.016703 0.167420 0.507482
C155  C     C_R   0.016793 0.562118 0.167421 0.507473
C156  C     C_R   0.437855 0.983294 0.167420 0.507474
C157  C     C_R   0.516415 0.937776 0.667418 0.507465
C158  C     C_R   0.061628 0.481469 0.667422 0.507492
C159  C     C_R   0.483584 0.062220 0.667418 0.507461
C160  C     C_R   0.938383 0.518532 0.667422 0.507511
N5    N     N_R   0.999997 0.499998 0.156220 -0.355320
N6    N     N_R   0.499999 0.999999 0.156219 -0.355325
N7    N     N_R   0.499999 0.999998 0.656218 -0.355356
N8    N     N_R   0.000006 0.500001 0.656222 -0.355366
C161  C     C_R   0.065214 0.504996 0.120542 -0.105746
C162  C     C_R   0.494958 0.934787 0.120542 -0.105755
C163  C     C_R   0.934782 0.495001 0.120542 -0.105721
C164  C     C_R   0.505040 0.065213 0.120542 -0.105780
C165  C     C_R   0.434800 0.005206 0.620542 -0.105820
C166  C     C_R   0.002829 0.434647 0.620545 -0.105871
C167  C     C_R   0.565199 0.994791 0.620542 -0.105789
C168  C     C_R   0.997182 0.565355 0.620546 -0.105880
C169  C     C_R   0.065303 0.504866 0.097252 -0.208187
C170  C     C_R   0.495090 0.934699 0.097251 -0.208437
C171  C     C_R   0.934695 0.495131 0.097251 -0.208328
C172  C     C_R   0.504908 0.065301 0.097252 -0.208296
C173  C     C_R   0.434711 0.005071 0.597252 -0.208136
C174  C     C_R   0.002720 0.434563 0.597255 -0.208147
C175  C     C_R   0.565288 0.994927 0.597251 -0.208406
C176  C     C_R   0.997289 0.565438 0.597256 -0.208138
C177  C     C_R   0.999998 0.499998 0.132264 0.314086
C178  C     C_R   0.499999 1.000000 0.132264 0.314157
C179  C     C_R   0.499999 0.999998 0.632263 0.314233
C180  C     C_R   0.000006 0.500001 0.632268 0.314484
O61   O     O_2   0.032694 0.622681 0.155896 -0.554635
O62   O     O_2   0.377274 0.967479 0.155895 -0.554668
O63   O     O_2   0.967300 0.377315 0.155895 -0.554659
O64   O     O_2   0.622725 0.032517 0.155895 -0.554643
O65   O     O_2   0.468045 0.122877 0.655892 -0.554574
O66   O     O_2   0.878303 0.536143 0.655895 -0.554528
O67   O     O_2   0.531955 0.877120 0.655892 -0.554581
O68   O     O_2   0.121709 0.463859 0.655894 -0.554571
C181  C     C_R   0.488552 0.065710 0.761980 0.044704
C182  C     C_R   0.934709 0.513620 0.761982 0.044705
C183  C     C_R   0.511447 0.934288 0.761980 0.044703
C184  C     C_R   0.065298 0.486377 0.761982 0.044707
C185  C     C_R   0.011806 0.565642 0.261981 0.044705
C186  C     C_R   0.434337 0.988275 0.261981 0.044702
C187  C     C_R   0.988196 0.434349 0.261981 0.044705
C188  C     C_R   0.565658 0.011723 0.261981 0.044702
C189  C     C_R   0.500000 0.999999 0.773708 0.078498
C190  C     C_R   0.000004 0.499998 0.773711 0.078461
C191  C     C_R   0.000001 0.499995 0.273709 0.078500
C192  C     C_R   0.499997 0.999999 0.273709 0.078496
C193  C     C_R   0.481149 0.130115 0.774508 -0.203327
C194  C     C_R   0.870573 0.523134 0.774510 -0.203240
C195  C     C_R   0.518851 0.869883 0.774508 -0.203329
C196  C     C_R   0.129434 0.476862 0.774510 -0.203238
C197  C     C_R   0.019530 0.630012 0.274508 -0.203321
C198  C     C_R   0.369958 0.980619 0.274508 -0.203293
C199  C     C_R   0.980474 0.369978 0.274508 -0.203320
C200  C     C_R   0.630036 0.019378 0.274508 -0.203299
H49   H     H_    0.116427 0.508732 0.088565 0.170089
H50   H     H_    0.491191 0.883578 0.088565 0.169981
H51   H     H_    0.883571 0.491265 0.088565 0.170023
H52   H     H_    0.508807 0.116422 0.088565 0.170045
H53   H     H_    0.383602 0.009102 0.588565 0.170078
H54   H     H_    0.004835 0.383309 0.588571 0.170089
H55   H     H_    0.616397 0.990897 0.588565 0.169976
H56   H     H_    0.995172 0.616692 0.588571 0.170104
H57   H     H_    0.115833 0.508735 0.129510 0.145443
H58   H     H_    0.491184 0.884171 0.129510 0.145404
H59   H     H_    0.884162 0.491261 0.129510 0.145434
H60   H     H_    0.508814 0.115828 0.129511 0.145412
H61   H     H_    0.384196 0.009111 0.629511 0.145358
H62   H     H_    0.004854 0.383909 0.629516 0.145188
H63   H     H_    0.615803 0.990885 0.629510 0.145344
H64   H     H_    0.995158 0.616093 0.629516 0.145188
H65   H     H_    0.048240 0.675423 0.193790 0.191776
H66   H     H_    0.324506 0.952029 0.193789 0.191782
H67   H     H_    0.951755 0.324571 0.193790 0.191775
H68   H     H_    0.675491 0.047968 0.193789 0.191783
H69   H     H_    0.452856 0.175726 0.693787 0.191770
H70   H     H_    0.826002 0.553090 0.693792 0.191794
H71   H     H_    0.547143 0.824271 0.693786 0.191770
H72   H     H_    0.174009 0.446910 0.693791 0.191793
H73   H     H_    0.048564 0.677628 0.233295 0.144931
H74   H     H_    0.322297 0.951717 0.233293 0.144934
H75   H     H_    0.951435 0.322364 0.233294 0.144931
H76   H     H_    0.677698 0.048281 0.233293 0.144934
H77   H     H_    0.452548 0.177937 0.733290 0.144873
H78   H     H_    0.823796 0.553446 0.733294 0.144969
H79   H     H_    0.547451 0.822060 0.733289 0.144873
H80   H     H_    0.176213 0.446552 0.733294 0.144970
H81   H     H_    0.475698 0.182534 0.766947 0.144927
H82   H     H_    0.818356 0.530329 0.766946 0.144886
H83   H     H_    0.524302 0.817465 0.766946 0.144927
H84   H     H_    0.181652 0.469668 0.766946 0.144886
H85   H     H_    0.025239 0.682402 0.266945 0.144940
H86   H     H_    0.317560 0.974960 0.266945 0.144922
H87   H     H_    0.974764 0.317589 0.266944 0.144940
H88   H     H_    0.682434 0.025038 0.266945 0.144923
I1    I     I_    0.665591 0.014686 0.862855 -0.269258
I2    I     I_    0.981716 0.334750 0.862863 -0.269223
I3    I     I_    0.334409 0.985315 0.862856 -0.269430
I4    I     I_    0.018285 0.665246 0.862863 -0.269050
I5    I     I_    0.834442 0.515076 0.362857 -0.269111
I6    I     I_    0.484909 0.165557 0.362856 -0.269250
I7    I     I_    0.165563 0.484908 0.362857 -0.269411
I8    I     I_    0.515079 0.834439 0.362856 -0.269289

loop_
_geom_bond_atom_site_label_1
_geom_bond_atom_site_label_2
_geom_bond_distance
_ccdc_geom_bond_type
C196  H84   1.076387 S    
C69   I7    2.118548 S    
C188  C192  1.421281 A    
C102  H46   1.083539 S    
C139  C147  1.395859 A    
C65   C81   1.405272 A    
C90   C98   1.395647 A    
C166  H62   1.083253 S    
O5    C1    1.284203 A    
C100  H44   1.083654 S    
C30   C46   1.341288 D    
C87   C93   1.408468 A    
C115  C127  1.416065 A    
C165  C173  1.395289 A    
Zn12  O26   1.934958 S    
C166  C180  1.400466 A    
O34   C22   1.276086 A    
Zn14  O36   1.934953 S    
C148  C152  1.408173 A    
O52   C22   1.278207 A    
O41   C15   1.278205 A    
C18   C51   1.450216 S    
C183  C189  1.421287 A    
C2    C109  1.474880 S    
Zn15  O35   1.934982 S    
Zn4   O2    1.943848 S    
C94   C102  1.395571 A    
C156  N6    1.367846 A    
C88   C96   1.408480 A    
O47   C17   1.278200 A    
C61   C93   1.404412 A    
C77   H39   1.082840 S    
C40   C56   1.341284 D    
C101  H45   1.083500 S    
N3    C83   1.434454 S    
C36   C37   1.471582 S    
C144  C154  1.404856 A    
C129  C137  1.389116 A    
C55   H31   1.080864 S    
O22   C10   1.276087 A    
O46   C20   1.278200 A    
Zn12  O24   1.934980 S    
C127  H75   1.076375 S    
N8    C180  1.435047 S    
C168  C180  1.400470 A    
C7    C107  1.475000 S    
Zn16  O4    1.945377 S    
C92   C100  1.395647 A    
Zn1   O13   1.930782 S    
Zn3   O15   1.930775 S    
C25   C32   1.471594 S    
Zn4   O16   1.930781 S    
C53   H29   1.080863 S    
C127  C135  1.389118 A    
N2    C82   1.434490 S    
Zn7   O3    1.943868 S    
C128  C136  1.389118 A    
C86   C92   1.408514 A    
C145  C159  1.404851 A    
C176  H56   1.083293 S    
C146  C160  1.404875 A    
C147  C157  1.404845 A    
C160  N8    1.367796 A    
O11   C3    1.284231 A    
C112  C174  1.406365 A    
C67   C81   1.405272 A    
C125  C133  1.389117 A    
O49   C23   1.278197 A    
C68   I2    2.118609 S    
C99   C195  1.389095 A    
C72   I6    2.118531 S    
C173  H53   1.082869 S    
C32   H8    1.086418 S    
C33   H9    1.086410 S    
Zn9   O25   1.934985 S    
Zn10  O22   1.934979 S    
C3    C112  1.474934 S    
C131  H79   1.076374 S    
Zn13  O29   1.934956 S    
C167  C175  1.395289 A    
Zn10  O2    1.945389 S    
C121  C149  1.423035 A    
C185  C191  1.421267 A    
C60   O56   1.349720 S    
Zn16  O34   1.934958 S    
C185  C197  1.416091 A    
C66   C74   1.395901 A    
C143  C149  1.408221 A    
C104  C200  1.389104 A    
Zn4   O42   1.938860 S    
C141  C155  1.404850 A    
C49   H25   1.080860 S    
C70   C78   1.395906 A    
C142  C156  1.404856 A    
C115  C187  1.422426 A    
C77   C107  1.404465 A    
Zn8   O46   1.938882 S    
C170  H50   1.082884 S    
C184  C196  1.416181 A    
C187  C191  1.421267 A    
O27   C15   1.276077 A    
C22   C55   1.450202 S    
C63   N3    1.367128 A    
C181  C189  1.421284 A    
C111  C173  1.406167 A    
C74   C106  1.404434 A    
C28   H4    1.086416 S    
C73   H35   1.082824 S    
C78   H40   1.082831 S    
C8    C108  1.475006 S    
C14   C47   1.450205 S    
C193  H81   1.076161 S    
O16   C6    1.283315 A    
O14   C6    1.283317 A    
C109  C169  1.406172 A    
Zn15  O9    1.930913 S    
C21   C54   1.450220 S    
Zn6   O48   1.938882 S    
Zn12  O6    1.930914 S    
C98   C194  1.389087 A    
O40   C10   1.278213 A    
C71   I5    2.118544 S    
O45   C19   1.278210 A    
C154  N6    1.367848 A    
C102  C198  1.389098 A    
C59   O55   1.349624 S    
Zn5   O17   1.930782 S    
C13   C46   1.450230 S    
C86   C90   1.408514 A    
Zn3   O1    1.943868 S    
C10   C43   1.450231 S    
O9    C3    1.284233 A    
C128  H76   1.076278 S    
C133  C141  1.395873 A    
C43   H19   1.080900 S    
C112  C176  1.406361 A    
C175  H55   1.082867 S    
C135  C143  1.395872 A    
C91   C99   1.395529 A    
C69   C83   1.405288 A    
C89   C97   1.395530 A    
C58   N2    1.367154 A    
N5    C177  1.435125 S    
C133  H65   1.083617 S    
C181  C193  1.416083 A    
Zn10  O28   1.934953 S    
C131  C139  1.389116 A    
C64   C96   1.404406 A    
C57   O53   1.349623 S    
C140  H72   1.083446 S    
Zn9   O7    1.930907 S    
O50   C24   1.278196 A    
Zn10  O8    1.930907 S    
Zn11  O5    1.930913 S    
C197  H85   1.076186 S    
O31   C19   1.276086 A    
C169  H49   1.082892 S    
C85   C189  1.422904 A    
Zn1   O41   1.938876 S    
C70   I8    2.118521 S    
C140  C148  1.395782 A    
C72   C80   1.395900 A    
C4    C111  1.474880 S    
C141  C149  1.408221 A    
C34   C39   1.471581 S    
C188  C200  1.416103 A    
C137  C145  1.395855 A    
C186  C192  1.421282 A    
C64   O60   1.349655 S    
C113  C125  1.416068 A    
C161  C169  1.395289 A    
C130  C138  1.389115 A    
C63   O59   1.349650 S    
C163  C171  1.395289 A    
Zn9   O1    1.945381 S    
C164  C172  1.395283 A    
C74   H36   1.082861 S    
C36   H12   1.086415 S    
C103  C199  1.389094 A    
C78   C108  1.404471 A    
C109  C171  1.406173 A    
C110  C172  1.406178 A    
C200  H88   1.076241 S    
C157  N7    1.367846 A    
Zn1   O1    1.943853 S    
C158  N8    1.367795 A    
Zn2   O14   1.930775 S    
Zn1   O39   1.938857 S    
C160  O66   1.349721 S    
Zn2   O40   1.938882 S    
C139  H71   1.083646 S    
C76   C106  1.404434 A    
Zn3   O37   1.938850 S    
C58   C90   1.404402 A    
C134  H66   1.083549 S    
C39   H15   1.086408 S    
C123  C151  1.423047 A    
C117  C181  1.422456 A    
Zn7   O51   1.938878 S    
C120  C124  1.421250 A    
C57   C89   1.404417 A    
C126  C134  1.389123 A    
C79   H37   1.082835 S    
C114  C186  1.422439 A    
C57   N1    1.367118 A    
C41   H17   1.080858 S    
C198  H86   1.076245 S    
O18   C8    1.283336 A    
C126  H74   1.076278 S    
C115  C121  1.421267 A    
O10   C4    1.284210 A    
C32   C48   1.341279 D    
C39   C55   1.341283 D    
C5    C105  1.475018 S    
C68   C82   1.405327 A    
Zn14  O30   1.934979 S    
C148  C158  1.404875 A    
Zn15  O3    1.945368 S    
C66   C82   1.405330 A    
C99   H43   1.083481 S    
C11   C44   1.450208 S    
C122  C150  1.423041 A    
C167  H63   1.082843 S    
C31   C47   1.341280 D    
Zn2   O44   1.938855 S    
C143  C153  1.404851 A    
C67   C75   1.395912 A    
C182  C190  1.421294 A    
C47   H23   1.080860 S    
C65   C73   1.395906 A    
Zn5   O47   1.938857 S    
C132  C140  1.389115 A    
Zn8   O20   1.930781 S    
C45   H21   1.080863 S    
C50   H26   1.080871 S    
C159  O65   1.349796 S    
Zn7   O45   1.938850 S    
C68   C76   1.395907 A    
O35   C23   1.276083 A    
C120  C132  1.415993 A    
C69   C77   1.395906 A    
C174  H54   1.083294 S    
C12   C41   1.450214 S    
C71   C83   1.405286 A    
O32   C20   1.276081 A    
C117  C129  1.416092 A    
C1    C110  1.474880 S    
O38   C12   1.278191 A    
C88   C192  1.422886 A    
C161  C177  1.400351 A    
C33   C40   1.471593 S    
C117  C123  1.421299 A    
C93   C101  1.395567 A    
C136  C144  1.395825 A    
C135  H67   1.083619 S    
C62   C94   1.404406 A    
O12   C4    1.284207 A    
C129  H77   1.076373 S    
O48   C18   1.278200 A    
C187  C199  1.416091 A    
C110  C170  1.406175 A    
Zn16  O10   1.930914 S    
Zn13  O3    1.945381 S    
O8    C2    1.284209 A    
C114  C122  1.421270 A    
Zn14  O4    1.945389 S    
C183  C195  1.416083 A    
C87   C95   1.408471 A    
C155  O61   1.349783 S    
C48   H24   1.080874 S    
C119  C123  1.421298 A    
C75   H33   1.082825 S    
C72   C84   1.405279 A    
O21   C9    1.276087 A    
C26   C42   1.341281 D    
Zn6   O18   1.930775 S    
C171  H51   1.082893 S    
C147  C151  1.408242 A    
C38   C54   1.341282 D    
C134  C142  1.395824 A    
C100  C196  1.389093 A    
C62   O58   1.349656 S    
O25   C13   1.276097 A    
C30   H6    1.086429 S    
C95   C103  1.395571 A    
C98   H42   1.083655 S    
C113  C121  1.421268 A    
Zn8   O4    1.943848 S    
C136  H68   1.083552 S    
C163  H59   1.082864 S    
C120  C184  1.422439 A    
C116  C122  1.421271 A    
N6    C178  1.435101 S    
C164  C178  1.400350 A    
N1    C81   1.434442 S    
C116  C188  1.422434 A    
C165  H61   1.082843 S    
O36   C24   1.276095 A    
C58   O54   1.349715 S    
Zn11  O1    1.945368 S    
O37   C11   1.278205 A    
C60   N2    1.367155 A    
Zn12  O2    1.945377 S    
O43   C13   1.278204 A    
O28   C16   1.276085 A    
C60   C92   1.404402 A    
Zn5   O3    1.943853 S    
C156  O62   1.349732 S    
Zn6   O4    1.943857 S    
C33   C49   1.341278 D    
C142  C150  1.408201 A    
C124  C152  1.423047 A    
C111  C175  1.406167 A    
C130  H78   1.076166 S    
C138  C146  1.395780 A    
C61   N3    1.367129 A    
C63   C95   1.404411 A    
C64   N4    1.367126 A    
C17   C50   1.450205 S    
C186  C198  1.416103 A    
C25   H1    1.086409 S    
C162  C170  1.395289 A    
C66   I4    2.118606 S    
C172  H52   1.082885 S    
C29   H5    1.086409 S    
C27   H3    1.086421 S    
O13   C5    1.283345 A    
C137  H69   1.083646 S    
O23   C11   1.276089 A    
C36   C52   1.341280 D    
C76   H34   1.082860 S    
C157  O67   1.349794 S    
Zn8   O50   1.938860 S    
C16   C45   1.450202 S    
C158  O68   1.349718 S    
Zn2   O2    1.943857 S    
O7    C1    1.284201 A    
O26   C14   1.276086 A    
Zn15  O31   1.934964 S    
Zn16  O32   1.934980 S    
C27   C30   1.471589 S    
C118  C124  1.421249 A    
C155  N5    1.367865 A    
C87   C191  1.422886 A    
C28   C44   1.341282 D    
O19   C7    1.283337 A    
C145  C151  1.408239 A    
C73   C105  1.404471 A    
C146  C152  1.408171 A    
C194  H82   1.076389 S    
C6    C106  1.474910 S    
O39   C9    1.278204 A    
O15   C5    1.283342 A    
C62   N4    1.367127 A    
C184  C190  1.421292 A    
O51   C21   1.278215 A    
C42   H18   1.080873 S    
C35   H11   1.086412 S    
C165  C179  1.400316 A    
O20   C8    1.283338 A    
O44   C14   1.278205 A    
C101  C197  1.389093 A    
O24   C12   1.276087 A    
Zn11  O27   1.934982 S    
C34   C50   1.341284 D    
N7    C179  1.435065 S    
C144  C150  1.408200 A    
C168  C176  1.395264 A    
C80   H38   1.082833 S    
C96   C104  1.395568 A    
C54   H30   1.080873 S    
C162  H58   1.082850 S    
C164  H60   1.082855 S    
O17   C7    1.283337 A    
C119  C183  1.422455 A    
C26   H2    1.086414 S    
C51   H27   1.080863 S    
C182  C194  1.416184 A    
C52   H28   1.080875 S    
C161  H57   1.082866 S    
C103  H47   1.083499 S    
C46   H22   1.080908 S    
Zn5   O49   1.938876 S    
C79   C107  1.404470 A    
C40   H16   1.086412 S    
C37   H13   1.086413 S    
C195  H83   1.076163 S    
C86   C190  1.422892 A    
O29   C17   1.276091 A    
C34   H10   1.086417 S    
C118  C130  1.415993 A    
O42   C16   1.278206 A    
C85   C89   1.408463 A    
C59   C91   1.404411 A    
C162  C178  1.400348 A    
C28   C29   1.471579 S    
Zn9   O21   1.934956 S    
C37   C53   1.341282 D    
C97   H41   1.083483 S    
N4    C84   1.434442 S    
Zn11  O23   1.934964 S    
C166  C174  1.395264 A    
Zn13  O33   1.934985 S    
C167  C179  1.400317 A    
C38   H14   1.086416 S    
C23   C56   1.450220 S    
C56   H32   1.080871 S    
C65   I3    2.118502 S    
C159  N7    1.367843 A    
C138  H70   1.083445 S    
C70   C84   1.405280 A    
C80   C108  1.404473 A    
C29   C45   1.341278 D    
C67   I1    2.118498 S    
C125  H73   1.076374 S    
C97   C193  1.389090 A    
C75   C105  1.404468 A    
C88   C94   1.408483 A    
Zn4   O38   1.938882 S    
Zn7   O19   1.930775 S    
C15   C48   1.450221 S    
C132  H80   1.076166 S    
C35   C51   1.341284 D    
O33   C21   1.276081 A    
C71   C79   1.395906 A    
C119  C131  1.416092 A    
C31   H7    1.086412 S    
C199  H87   1.076186 S    
C44   H20   1.080870 S    
C61   O57   1.349655 S    
C19   C52   1.450210 S    
C27   C43   1.341282 D    
C24   C53   1.450202 S    
C168  H64   1.083255 S    
C163  C177  1.400349 A    
C26   C31   1.471579 S    
C104  H48   1.083538 S    
Zn6   O52   1.938855 S    
O6    C2    1.284209 A    
C85   C91   1.408466 A    
C35   C38   1.471594 S    
C9    C42   1.450208 S    
C118  C182  1.422441 A    
C114  C126  1.416035 A    
C116  C128  1.416038 A    
C59   N1    1.367119 A    
C25   C41   1.341290 D    
C113  C185  1.422423 A    
Zn13  O11   1.930907 S    
C153  O63   1.349782 S    
Zn14  O12   1.930907 S    
C20   C49   1.450214 S    
C154  O64   1.349732 S    
C153  N5    1.367865 A    
O30   C18   1.276094 A    
Zn3   O43   1.938878 S    
