data_mof_unit_31127.cif
_audit_creation_date              2012-12-10T18:57:11-0500
_audit_creation_method            fapswitch 2.2
_symmetry_space_group_name_H-M    P1
_symmetry_Int_Tables_number       1
_space_group_crystal_system       triclinic
_cell_length_a                    8.743435
_cell_length_b                    10.801098
_cell_length_c                    9.55111
_cell_angle_alpha                 90.184693
_cell_angle_beta                  97.650592
_cell_angle_gamma                 90.328294
_cell_volume                      893.943271053

loop_
_atom_site_label
_atom_site_type_symbol
_atom_type_description
_atom_site_fract_x
_atom_site_fract_y
_atom_site_fract_z
_atom_type_partial_charge
C1    C     C_R   0.492977 0.262633 0.499026 0.862516
C2    C     C_R   0.377589 0.933266 0.389379 -0.107179
C3    C     C_R   0.472137 0.870290 0.499181 -0.097406
C4    C     C_R   0.540763 0.937361 0.615445 0.090876
C5    C     C_3   0.698819 0.929925 0.696933 -0.523856
C6    C     C_3   0.701685 0.071095 0.695139 -0.189718
C7    C     C_R   0.579505 0.588940 0.083721 0.248792
C8    C     C_R   0.409640 0.420032 0.063042 -0.049186
C9    C     C_R   0.409636 0.419989 0.914212 -0.020977
C10   C     C_R   0.579910 0.588648 0.936340 0.247359
C11   C     C_3   0.749683 0.610965 0.952235 -0.447187
C12   C     C_R   0.204080 0.502010 0.464756 1.001325
C13   C     C_3   0.748893 0.612590 0.110621 -0.487374
C14   C     C_R   0.493423 0.737409 0.499427 0.849656
C15   C     C_R   0.795611 0.505837 0.535925 0.849306
C16   C     C_2   0.038853 0.495764 0.448885 -0.335444
C17   C     C_2   0.959471 0.525841 0.555151 0.101679
C18   C     C_R   0.542961 0.063810 0.613946 0.019897
C19   C     C_R   0.472722 0.129544 0.498289 -0.127435
C20   C     C_R   0.377095 0.064979 0.389561 -0.081106
Cu1   Cu    Cu3+1 0.499990 0.499980 0.640670 1.012700
Cu2   Cu    Cu3+1 0.500010 0.500020 0.359330 0.995502
H1    H     H_    0.981773 0.456641 0.350675 0.147526
H2    H     H_    0.338724 0.353614 0.849532 0.160911
H3    H     H_    0.813758 0.530764 0.916603 0.254867
H4    H     H_    0.779857 0.701960 0.909483 0.212111
H5    H     H_    0.813641 0.534013 0.163570 0.224669
H6    H     H_    0.776849 0.704911 0.159477 0.207669
H7    H     H_    0.695558 0.892188 0.804481 0.201748
H8    H     H_    0.782981 0.884271 0.636026 0.202106
H9    H     H_    0.702018 0.113563 0.801491 0.187518
H10   H     H_    0.338702 0.353753 0.109796 0.164300
N1    N     N_R   0.500980 0.500930 0.148050 -0.191388
N2    N     N_R   0.500990 0.500890 0.852140 -0.189710
O1    O     O_R   0.500000 0.319640 0.618810 -0.588856
O2    O     O_R   0.500020 0.319680 0.381230 -0.581163
O3    O     O_R   0.274830 0.499980 0.591380 -0.546797
O4    O     O_R   0.274850 0.500020 0.353800 -0.544836
O5    O     O_R   0.499980 0.680320 0.618770 -0.575040
O6    O     O_R   0.500000 0.680360 0.381190 -0.577383
O7    O     O_R   0.725150 0.499980 0.646200 -0.556790
O8    O     O_R   0.725170 0.500020 0.408620 -0.616259
Br1   Br    Br    0.044675 0.611575 0.726790 -0.515863
C21   C     C_2   0.272217 0.133100 0.281321 0.355392
H11   H     H_    0.254831 0.102259 0.172278 0.044864
O9    O     O_2   0.200198 0.222696 0.314302 -0.553618
C22   C     C_2   0.275326 0.863562 0.279017 0.388157
H12   H     H_    0.260115 0.894330 0.170213 0.053693
O10   O     O_2   0.203173 0.772771 0.309747 -0.535269
C23   C     C_2   0.820720 0.123940 0.611403 0.409475
H13   H     H_    0.829423 0.089786 0.505706 0.080029
O11   O     O_2   0.907941 0.205936 0.661740 -0.534800

loop_
_geom_bond_atom_site_label_1
_geom_bond_atom_site_label_2
_ccdc_geom_bond_type
C8    C9    A    
C7    C10   A    
C23   O11   D    
C17   Br1   S    
C9    H2    S    
Cu1   O1    S    
C2    C22   S    
Cu2   O2    S    
C15   O8    A    
C19   C20   A    
Cu1   O5    S    
C7    C13   S    
Cu2   O6    S    
C23   H13   S    
C4    C18   A    
C13   H6    S    
Cu1   Cu2   S    
C6    C23   S    
C7    N1    A    
C15   O7    A    
Cu2   O8    S    
C3    C14   S    
C10   N2    A    
Cu1   O7    S    
C5    C6    S    
C20   C21   S    
C21   O9    D    
C2    C3    A    
C16   H1    S    
C5    H7    S    
C8    N1    A    
C12   O4    A    
C9    N2    A    
C6    C18   S    
C1    C19   S    
C10   C11   S    
C11   H3    S    
C2    C20   A    
C3    C4    A    
Cu2   O4    S    
C22   H12   S    
C11   C13   S    
Cu1   O3    S    
C21   H11   S    
C1    O1    A    
C22   O10   D    
C18   C19   A    
C5    H8    S    
C12   O3    A    
C15   C17   S    
Cu2   N1    S    
C4    C5    S    
C6    H9    S    
Cu1   N2    S    
C11   H4    S    
C14   O5    A    
C14   O6    A    
C13   H5    S    
C12   C16   S    
C1    O2    A    
C16   C17   D    
C8    H10   S    
