data_mof_unit_6481.cif
_audit_creation_date              2012-12-11T16:20:02-0500
_audit_creation_method            fapswitch 2.2
_symmetry_space_group_name_H-M    P1
_symmetry_Int_Tables_number       1
_space_group_crystal_system       triclinic
_cell_length_a                    13.515597
_cell_length_b                    14.049719
_cell_length_c                    29.99775
_cell_angle_alpha                 97.379033
_cell_angle_beta                  89.969891
_cell_angle_gamma                 118.840088
_cell_volume                      4936.05930329

loop_
_atom_site_label
_atom_site_type_symbol
_atom_type_description
_atom_site_fract_x
_atom_site_fract_y
_atom_site_fract_z
_atom_type_partial_charge
C1    C     C_R   0.718855 0.097678 0.569301 0.540280
C2    C     C_1   0.337520 0.616621 0.755976 -0.055656
C3    C     C_3   0.190066 0.274955 0.217172 -0.270681
C4    C     C_3   0.089883 0.161201 0.219158 -0.481483
C5    C     C_3   0.073585 0.609950 0.583964 -0.001966
C6    C     C_3   0.075861 0.559359 0.535756 -0.257240
C7    C     C_3   0.965060 0.453817 0.520731 -0.474163
C8    C     C_3   0.623964 0.742650 0.184053 0.003911
C9    C     C_3   0.707678 0.754062 0.221590 -0.275017
C10   C     C_3   0.808647 0.746735 0.202239 -0.490266
C11   C     C_3   0.132207 0.856508 0.367904 0.029438
C12   C     C_3   0.011821 0.823826 0.350509 -0.268737
C13   C     C_1   0.341786 0.626008 0.716781 -0.051158
C14   C     C_3   0.957885 0.714312 0.319263 -0.504216
C15   C     C_3   0.622731 0.367757 0.389359 -0.110484
C16   C     C_3   0.924650 0.474928 0.111047 -0.097425
C17   C     C_3   0.308847 0.942304 0.820215 0.003095
C18   C     C_3   0.378625 0.889370 0.800270 -0.254640
C19   C     C_3   0.452086 0.882478 0.836972 -0.476798
C20   C     C_R   0.382723 0.787231 0.551011 0.552791
C21   C     C_R   0.295973 0.587257 0.894006 0.017048
C22   C     C_3   0.359518 0.068446 0.721496 0.215593
C23   C     C_3   0.225407 0.151422 0.713374 -0.201391
C24   C     C_3   0.214414 0.151868 0.764837 0.176842
C25   C     C_1   0.302281 0.200244 0.877969 -0.019488
C26   C     C_3   0.339589 0.156911 0.701370 -0.005111
C27   C     C_3   0.350855 0.077497 0.773789 0.169281
C28   C     C_R   0.341277 0.643631 0.670996 -0.009209
C29   C     C_3   0.327536 0.174530 0.789973 0.055611
C30   C     C_3   0.431303 0.279169 0.776595 -0.286313
C31   C     C_3   0.434005 0.271290 0.724464 -0.290571
C32   C     C_R   0.397200 0.118692 0.569113 0.548250
C33   C     C_1   0.316506 0.185288 0.838744 -0.023304
C34   C     C_1   0.349682 0.147226 0.652625 -0.040682
C35   C     C_1   0.365769 0.136022 0.613448 0.003597
C36   C     C_3   0.686504 0.129318 0.728250 -0.283481
C37   C     C_3   0.886112 0.273341 0.723851 0.127018
C38   C     C_3   0.903361 0.283919 0.776025 -0.236318
C39   C     C_R   0.253926 0.657645 0.653975 -0.091523
C40   C     C_1   0.886925 0.201213 0.880843 -0.018955
C41   C     C_3   0.797819 0.152418 0.704853 0.060354
C42   C     C_3   0.703405 0.134763 0.779938 -0.237299
C43   C     C_3   0.828870 0.172344 0.793304 0.027506
C44   C     C_R   0.719784 0.095301 0.442525 0.538376
C45   C     C_3   0.860158 0.085398 0.770213 0.191873
C46   C     C_3   0.845266 0.076296 0.717983 0.224956
C47   C     C_1   0.852682 0.186922 0.842243 -0.045198
C48   C     C_1   0.780084 0.140519 0.655677 -0.002863
C49   C     C_1   0.759146 0.125502 0.615633 -0.002958
C50   C     C_R   0.259217 0.692292 0.611880 0.284487
C51   C     C_3   0.331674 0.777104 0.269843 -0.242217
C52   C     C_3   0.252532 0.574259 0.273129 -0.178636
C53   C     C_3   0.234596 0.551235 0.219651 0.504239
C54   C     C_1   0.307304 0.605607 0.111113 -0.003550
C55   C     C_3   0.351732 0.690404 0.289447 -0.015680
C56   C     C_R   0.382655 0.785035 0.424924 0.536171
C57   C     C_3   0.322854 0.756436 0.217747 -0.234261
C58   C     C_3   0.333178 0.652707 0.200873 0.140802
C59   C     C_3   0.451136 0.672543 0.219155 0.148370
C60   C     C_3   0.461701 0.696607 0.271557 -0.191554
C61   C     C_R   0.230515 0.606251 0.822152 -0.139825
C62   C     C_1   0.323673 0.632400 0.151258 0.030443
C63   C     C_1   0.360783 0.713047 0.338714 -0.076634
C64   C     C_1   0.368502 0.739301 0.378737 -0.020228
C65   C     C_R   0.361711 0.131786 0.398389 0.051974
C66   C     C_R   0.436185 0.226520 0.379298 0.237842
C67   C     C_R   0.424273 0.225852 0.332709 -0.122339
C68   C     C_R   0.396479 0.114842 0.442530 0.578282
C69   C     C_R   0.341374 0.133404 0.305592 -0.050652
C70   C     C_R   0.258981 0.046269 0.324853 -0.135316
C71   C     C_R   0.267652 0.043906 0.371614 0.224197
C72   C     C_R   0.215665 0.595794 0.867515 -0.139256
C73   C     C_R   0.248392 0.073728 0.142582 -0.124474
C74   C     C_R   0.235089 0.101847 0.100960 -0.133452
C75   C     C_R   0.418920 0.265813 0.115184 -0.120105
C76   C     C_R   0.431970 0.237474 0.156832 -0.114992
C77   C     C_R   0.344797 0.143750 0.171212 0.030922
C78   C     C_1   0.343889 0.132505 0.217909 -0.037795
C79   C     C_1   0.341350 0.130011 0.257737 -0.035280
C80   C     C_R   0.358945 0.722280 0.588605 0.026361
C81   C     C_R   0.318027 0.200759 0.087780 0.019471
C82   C     C_R   0.776506 0.132204 0.401300 0.025033
C83   C     C_R   0.395097 0.596949 0.874896 -0.139418
C84   C     C_R   0.780575 0.055611 0.367352 -0.125889
C85   C     C_R   0.802623 0.080720 0.323749 -0.114292
C86   C     C_R   0.821671 0.182573 0.313853 0.038796
C87   C     C_R   0.828384 0.262979 0.348213 -0.127721
C88   C     C_R   0.806300 0.238046 0.391923 -0.134240
C89   C     C_R   0.835176 0.286072 0.158916 -0.089231
C90   C     C_R   0.863703 0.291725 0.113667 0.277777
C91   C     C_R   0.875360 0.123665 0.112447 -0.186120
C92   C     C_R   0.442248 0.699679 0.604648 -0.186037
C93   C     C_R   0.845550 0.118190 0.156606 -0.145234
C94   C     C_R   0.409967 0.607938 0.829456 -0.140841
C95   C     C_R   0.832477 0.202541 0.180624 -0.005183
C96   C     C_1   0.826286 0.205230 0.228249 -0.039214
C97   C     C_1   0.825014 0.199474 0.267800 -0.042921
C98   C     C_R   0.890905 0.213207 0.091385 0.037617
C99   C     C_R   0.284810 0.232815 0.922910 0.542523
C100  C     C_R   0.265483 0.545480 0.937361 0.538691
C101  C     C_R   0.943801 0.221704 0.924011 0.546646
C102  C     C_R   0.292634 0.242204 0.049041 0.543641
C103  C     C_R   0.274802 0.558081 0.064957 0.539954
C104  C     C_R   0.432555 0.659162 0.645416 -0.147161
C105  C     C_R   0.326129 0.609554 0.802909 0.020606
C106  C     C_R   0.951985 0.231851 0.049827 0.563800
C107  C     C_3   0.188804 0.910832 0.688671 -0.051642
C108  C     C_3   0.230616 0.328090 0.788472 -0.092968
C109  C     C_3   0.048449 0.416023 0.700787 -0.140753
C110  C     C_3   0.678395 0.904640 0.694069 -0.070497
C111  C     C_3   0.856538 0.945751 0.807505 0.010544
C112  C     C_3   0.901791 0.887493 0.773547 -0.260607
C113  C     C_3   0.971715 0.847733 0.797388 -0.491316
C114  C     C_3   0.052055 0.543267 0.228466 -0.174170
C115  C     C_3   0.151593 0.357806 0.209839 0.035653
Cr1   Cr    Cr6+3 0.583400 0.162540 0.509180 1.025242
Cr2   Cr    Cr6+3 0.584070 0.916690 0.495550 1.021783
Cr3   Cr    Cr6+3 0.332550 0.920810 0.495240 1.057897
Cr4   Cr    Cr6+3 0.086700 0.177000 0.983690 1.010751
Cr5   Cr    Cr6+3 0.336880 0.419130 0.994740 1.017433
Cr6   Cr    Cr6+3 0.084850 0.422220 0.995960 1.041881
H1    H     H_    0.138230 0.587991 0.881055 0.130173
H2    H     H_    0.166261 0.609581 0.801860 0.096480
H3    H     H_    0.688478 0.414665 0.417523 0.135945
H4    H     H_    0.009020 0.489990 0.123822 0.177735
H5    H     H_    0.879463 0.495489 0.138243 0.089814
H6    H     H_    0.940098 0.531456 0.086035 0.139461
H7    H     H_    0.235811 0.879982 0.835899 0.142215
H8    H     H_    0.358625 0.011152 0.847859 0.121328
H9    H     H_    0.320037 0.806169 0.782351 0.180212
H10   H     H_    0.434951 0.936936 0.775158 0.171046
H11   H     H_    0.513030 0.966087 0.854086 0.141030
H12   H     H_    0.501058 0.843576 0.821649 0.170824
H13   H     H_    0.434399 0.356923 0.791268 0.121653
H14   H     H_    0.398604 0.833135 0.862314 0.167958
H15   H     H_    0.678096 0.193109 0.797995 0.101950
H16   H     H_    0.662752 0.192435 0.722152 0.093163
H17   H     H_    0.849783 0.326665 0.716228 0.105734
H18   H     H_    0.881713 0.346564 0.792425 0.087228
H19   H     H_    0.993498 0.314278 0.786164 0.150795
H20   H     H_    0.933220 0.113719 0.707044 0.168715
H21   H     H_    0.183515 0.646113 0.674190 0.091989
H22   H     H_    0.612569 0.050477 0.713777 0.114982
H23   H     H_    0.221254 0.221958 0.702330 0.151256
H24   H     H_    0.647469 0.052955 0.789978 0.160110
H25   H     H_    0.952164 0.118228 0.778914 0.134789
H26   H     H_    0.241187 0.746985 0.204618 0.126365
H27   H     H_    0.253139 0.774832 0.281999 0.102876
H28   H     H_    0.274119 0.514092 0.284957 0.115759
H29   H     H_    0.177183 0.562069 0.291399 0.083233
H30   H     H_    0.534649 0.779448 0.283442 0.157957
H31   H     H_    0.479230 0.636155 0.285546 0.078624
H32   H     H_    0.402547 0.861070 0.281847 0.141922
H33   H     H_    0.390882 0.829487 0.204898 0.164328
H34   H     H_    0.151511 0.078769 0.694601 0.080841
H35   H     H_    0.455102 0.595114 0.209245 0.128411
H36   H     H_    0.156664 0.049720 0.080503 0.123810
H37   H     H_    0.179941 0.001783 0.153755 0.103730
H38   H     H_    0.189690 0.980458 0.303045 0.108099
H39   H     H_    0.517866 0.718559 0.586894 0.141791
H40   H     H_    0.506352 0.292751 0.179109 0.108546
H41   H     H_    0.484407 0.342184 0.105891 0.134258
H42   H     H_    0.480964 0.296478 0.317203 0.111910
H43   H     H_    0.816965 0.346697 0.177274 0.097977
H44   H     H_    0.844514 0.342513 0.340803 0.090443
H45   H     H_    0.152189 0.066246 0.768717 0.161350
H46   H     H_    0.804926 0.298962 0.417624 0.110796
H47   H     H_    0.758054 0.973518 0.373513 0.127650
H48   H     H_    0.839764 0.051362 0.172964 0.120828
H49   H     H_    0.893304 0.061052 0.095884 0.136284
H50   H     H_    0.484963 0.612037 0.814796 0.106412
H51   H     H_    0.798561 0.018501 0.297242 0.102670
H52   H     H_    0.458245 0.590161 0.894385 0.127612
H53   H     H_    0.499212 0.645930 0.658149 0.113584
H54   H     H_    0.144364 0.925942 0.717367 0.128497
H55   H     H_    0.153336 0.820553 0.681323 0.153122
H56   H     H_    0.518878 0.285030 0.714668 0.111811
H57   H     H_    0.170635 0.937157 0.657810 0.132140
H58   H     H_    0.281449 0.357157 0.759276 0.115879
H59   H     H_    0.283900 0.358553 0.820616 0.138569
H60   H     H_    0.175789 0.366353 0.791105 0.147091
H61   H     H_    0.064032 0.466398 0.734411 0.107120
H62   H     H_    0.001472 0.436939 0.676922 0.102807
H63   H     H_    0.131561 0.436231 0.687332 0.157985
H64   H     H_    0.637199 0.922056 0.666633 0.125340
H65   H     H_    0.644335 0.914088 0.726911 0.164852
H66   H     H_    0.655630 0.817045 0.686466 0.129392
H67   H     H_    0.422943 0.338113 0.713071 0.131200
H68   H     H_    0.799596 0.885755 0.829046 0.148640
H69   H     H_    0.926214 0.013311 0.830774 0.144594
H70   H     H_    0.829464 0.815948 0.753136 0.181441
H71   H     H_    0.955352 0.944223 0.750282 0.170447
H72   H     H_    0.044825 0.918131 0.817877 0.179361
H73   H     H_    0.004292 0.806936 0.772016 0.153828
H74   H     H_    0.918643 0.787758 0.819696 0.138338
H75   H     H_    0.089984 0.624504 0.249770 0.108148
H76   H     H_    0.015188 0.474471 0.248600 0.112397
H77   H     H_    0.980795 0.537339 0.207997 0.117645
H78   H     H_    0.511153 0.286409 0.790774 0.096882
H79   H     H_    0.093911 0.327079 0.178743 0.183751
H80   H     H_    0.104210 0.365274 0.239240 0.130881
H81   H     H_    0.241298 0.269755 0.189051 0.195771
H82   H     H_    0.244114 0.303868 0.249203 0.164127
H83   H     H_    0.030574 0.165810 0.243870 0.155041
H84   H     H_    0.120396 0.106416 0.229634 0.154436
H85   H     H_    0.044898 0.124938 0.185313 0.148098
H86   H     H_    0.001746 0.627536 0.585045 0.148817
H87   H     H_    0.056079 0.549627 0.607702 0.101987
H88   H     H_    0.089831 0.619244 0.512334 0.184152
H89   H     H_    0.450696 0.095789 0.717140 0.099979
H90   H     H_    0.146684 0.540279 0.533953 0.155774
H91   H     H_    0.950080 0.392118 0.543353 0.156993
H92   H     H_    0.969614 0.419023 0.485881 0.144540
H93   H     H_    0.892940 0.470960 0.521131 0.142841
H94   H     H_    0.670921 0.804991 0.161682 0.158713
H95   H     H_    0.588317 0.661252 0.162333 0.118716
H96   H     H_    0.738825 0.834600 0.243369 0.165725
H97   H     H_    0.664528 0.687858 0.242695 0.141790
H98   H     H_    0.779716 0.666103 0.180847 0.143132
H99   H     H_    0.867479 0.755199 0.230172 0.142218
H100  H     H_    0.436896 0.101581 0.789001 0.059864
H101  H     H_    0.855145 0.813727 0.181790 0.140947
H102  H     H_    0.125881 0.798319 0.390998 0.168075
H103  H     H_    0.183076 0.846458 0.340396 0.105567
H104  H     H_    0.959153 0.817104 0.379655 0.170270
H105  H     H_    0.012793 0.887844 0.332027 0.163531
H106  H     H_    0.004418 0.722411 0.288256 0.131429
H107  H     H_    0.868650 0.689862 0.309504 0.143700
H108  H     H_    0.959026 0.649224 0.336378 0.139708
H109  H     H_    0.628239 0.426860 0.366896 0.105127
H110  H     H_    0.642641 0.305473 0.371216 0.112603
O1    O     O_R   0.494060 0.188820 0.559230 -0.514293
O2    O     O_R   0.170530 0.527770 0.952070 -0.519085
O3    O     O_R   0.987720 0.318450 0.945940 -0.494053
O4    O     O_R   0.678470 0.153390 0.554100 -0.503479
O5    O     O_R   0.976400 0.159230 0.032040 -0.535399
O6    O     O_R   0.193740 0.188470 0.029020 -0.505671
O7    O     O_R   0.364860 0.335530 0.039220 -0.513890
O8    O     O_R   0.330170 0.515340 0.044800 -0.495047
O9    O     O_R   0.177230 0.536000 0.050040 -0.514155
O10   O     O_R   0.993930 0.326080 0.036750 -0.450275
O11   O     O_3   0.169480 0.339450 0.991460 -0.245743
O12   O     O_R   0.480140 0.824500 0.445020 -0.494772
O13   O     O_R   0.697870 0.003940 0.549410 -0.499731
O14   O     O_R   0.480980 0.827230 0.535590 -0.514591
O15   O     O_R   0.309390 0.811640 0.537920 -0.458696
O16   O     O_R   0.341810 0.023400 0.546180 -0.482945
O17   O     O_R   0.493150 0.185870 0.461540 -0.469278
O18   O     O_R   0.677630 0.150660 0.463530 -0.504401
O19   O     O_R   0.696960 0.000990 0.451710 -0.513593
O20   O     O_3   0.306520 0.958746 0.698163 -0.547200
O21   O     O_3   0.161639 0.213058 0.783716 -0.608146
O22   O     O_3   0.990356 0.302881 0.703797 -0.584076
O23   O     O_R   0.308480 0.808690 0.440220 -0.525777
O24   O     O_3   0.797088 0.967236 0.694330 -0.574764
O25   O     O_3   0.791718 0.982185 0.785058 -0.574849
O26   O     O_3   0.129611 0.533944 0.199191 -0.584474
O27   O     O_3   0.248209 0.458320 0.204306 -0.596351
O28   O     O_3   0.174195 0.710966 0.596631 -0.554348
O29   O     O_3   0.538711 0.764327 0.201934 -0.587675
O30   O     O_3   0.183360 0.963000 0.393235 -0.550783
O31   O     O_3   0.515610 0.319756 0.407420 -0.538177
O32   O     O_3   0.856803 0.366376 0.089408 -0.560498
O33   O     O_3   0.265998 0.976772 0.786237 -0.581023
O34   O     O_R   0.340970 0.020670 0.455610 -0.461668
O35   O     O_3   0.500010 0.000010 0.499990 -0.258040
O36   O     O_R   0.969690 0.151000 0.934080 -0.512674
O37   O     O_R   0.187530 0.180840 0.938210 -0.492332
O38   O     O_R   0.358160 0.327300 0.941250 -0.514658
O39   O     O_R   0.323950 0.507710 0.953980 -0.503221

loop_
_geom_bond_atom_site_label_1
_geom_bond_atom_site_label_2
_ccdc_geom_bond_type
C9    H97   S    
C71   O30   S    
C40   C47   T    
C87   C88   A    
C32   O1    A    
C94   C105  A    
C58   C62   S    
C53   C58   S    
C23   H34   S    
C27   C29   S    
C95   C96   S    
C3    H82   S    
C113  H73   S    
C36   C42   S    
C111  C112  S    
C103  O8    A    
C8    H94   S    
C7    H91   S    
C36   C41   S    
C10   H99   S    
C4    H84   S    
C110  H64   S    
C6    H88   S    
C100  O39   A    
C77   C78   S    
C68   O17   A    
Cr6   O10   S    
C93   H48   S    
C29   C30   S    
C106  O5    A    
C108  H60   S    
C31   H56   S    
C75   H41   S    
C14   H106  S    
C36   H22   S    
C70   H38   S    
C44   C82   S    
C109  H61   S    
C30   C31   S    
C4    H83   S    
C112  H71   S    
C107  H55   S    
C27   O33   S    
C19   H14   S    
C16   H6    S    
C29   C33   S    
C5    O28   S    
Cr5   O39   S    
C108  H59   S    
C42   H15   S    
C34   C35   T    
C60   H31   S    
C23   C26   S    
C109  O22   S    
C2    C13   T    
C86   C97   S    
C24   C29   S    
C14   H108  S    
Cr3   O23   S    
C40   C101  S    
Cr3   O35   S    
C16   O32   S    
C26   C34   S    
C51   H32   S    
Cr1   O17   S    
C52   H28   S    
C30   H13   S    
C114  H76   S    
C55   C63   S    
C31   H67   S    
C48   C49   T    
C41   C46   S    
C56   C64   S    
C13   C28   S    
C70   C71   A    
C51   C57   S    
C61   C105  A    
C16   H4    S    
C89   H43   S    
Cr2   O35   S    
C91   H49   S    
C52   C55   S    
C15   H110  S    
C109  H62   S    
C20   O15   A    
C66   C67   A    
C101  O36   A    
C59   C60   S    
C93   C95   A    
C90   O32   S    
C55   C60   S    
Cr1   O1    S    
C113  H74   S    
C76   H40   S    
C88   H46   S    
C112  C113  S    
C114  O26   S    
C25   C99   S    
C10   H98   S    
C22   H89   S    
C46   H20   S    
C81   C102  S    
C73   C74   A    
Cr6   O11   S    
C99   O37   A    
Cr5   O8    S    
C110  H66   S    
C102  O7    A    
C85   H51   S    
C53   O26   S    
C15   H3    S    
C20   C80   S    
C32   O16   A    
C17   H8    S    
C45   H25   S    
C32   C35   S    
C21   C83   A    
C54   C103  S    
C24   O21   S    
C84   C85   A    
C11   H102  S    
C61   H2    S    
C21   C100  S    
C10   H101  S    
Cr3   O16   S    
C18   C19   S    
C104  H53   S    
C6    H90   S    
C54   C62   T    
C28   C39   A    
C58   C59   S    
C85   C86   A    
C83   C94   A    
C73   H37   S    
C99   O38   A    
Cr5   O38   S    
C108  H58   S    
C67   C69   A    
C60   H30   S    
C89   C95   A    
C24   H45   S    
C75   C76   A    
Cr2   O13   S    
C14   H107  S    
C37   C38   S    
C84   H47   S    
C1    O13   A    
C18   H10   S    
C94   H50   S    
C5    H86   S    
Cr3   O34   S    
C38   H19   S    
C28   C104  A    
C12   H105  S    
C36   H16   S    
C39   H21   S    
C82   C84   A    
C110  O24   S    
C38   H18   S    
C65   C68   S    
Cr4   O36   S    
C96   C97   T    
C25   C33   T    
C17   C18   S    
C8    C9    S    
Cr5   O11   S    
C76   C77   A    
C80   C92   A    
C43   C45   S    
C68   O34   A    
C7    H92   S    
C114  H75   S    
Cr2   O12   S    
C109  H63   S    
C44   O19   A    
C20   O14   A    
C56   O12   A    
C108  O21   S    
C111  H68   S    
Cr6   O2    S    
C37   H17   S    
C57   H26   S    
C15   H109  S    
C114  H77   S    
C59   O29   S    
C69   C79   S    
C42   C43   S    
C74   C81   A    
C3    C4    S    
C46   O24   S    
C101  O3    A    
C52   C53   S    
C61   C72   A    
C86   C87   A    
C9    C10   S    
C115  H79   S    
C9    H96   S    
C19   H11   S    
C110  H65   S    
C102  O6    A    
Cr6   O3    S    
C53   O27   S    
C74   H36   S    
C72   H1    S    
C91   C93   A    
C78   C79   T    
C113  H72   S    
C75   C81   A    
C12   C14   S    
C43   C47   S    
C8    H95   S    
C115  O27   S    
C50   C80   A    
C11   H103  S    
Cr2   O19   S    
Cr3   O15   S    
C17   H7    S    
C4    H85   S    
C6    C7    S    
C37   O22   S    
C100  O2    A    
Cr2   O14   S    
C19   H12   S    
Cr6   O9    S    
C57   H33   S    
C2    C105  S    
Cr1   O35   S    
C98   C106  S    
C107  O20   S    
C22   C27   S    
C17   O33   S    
C83   H52   S    
C27   H100  S    
C38   C43   S    
C107  H57   S    
C15   O31   S    
C65   C71   A    
C5    H87   S    
Cr4   O6    S    
C92   H39   S    
C57   C58   S    
C5    C6    S    
C107  H54   S    
C51   H27   S    
C1    O4    A    
C82   C88   A    
Cr4   O37   S    
C115  H80   S    
Cr1   O4    S    
C1    C49   S    
C45   O25   S    
C41   C48   S    
C30   H78   S    
C51   C55   S    
C65   C66   A    
C91   C98   A    
C37   C41   S    
C69   C70   A    
C23   H23   S    
Cr4   O11   S    
C67   H42   S    
C7    H93   S    
C18   H9    S    
C92   C104  A    
C23   C24   S    
C22   C26   S    
C63   C64   T    
C87   H44   S    
C45   C46   S    
Cr4   O5    S    
C26   C31   S    
C39   C50   A    
C111  H69   S    
C52   H29   S    
C56   O23   A    
Cr1   O18   S    
C11   O30   S    
C12   H104  S    
C44   O18   A    
C111  O25   S    
C3    H81   S    
C73   C77   A    
C21   C72   A    
C3    C115  S    
C22   O20   S    
C106  O10   A    
C59   H35   S    
C89   C90   A    
C66   O31   S    
C42   H24   S    
C16   H5    S    
C90   C98   A    
C103  O9    A    
C50   O28   S    
C11   C12   S    
Cr5   O7    S    
C8    O29   S    
C112  H70   S    
