data_mof_unit_37747.cif
_audit_creation_date              2012-12-10T18:16:19-0500
_audit_creation_method            fapswitch 2.2
_symmetry_space_group_name_H-M    P1
_symmetry_Int_Tables_number       1
_space_group_crystal_system       triclinic
_cell_length_a                    12.598675
_cell_length_b                    12.953824
_cell_length_c                    27.740041
_cell_angle_alpha                 89.925909
_cell_angle_beta                  102.966051
_cell_angle_gamma                 81.761897
_cell_volume                      4363.62348996

loop_
_atom_site_label
_atom_site_type_symbol
_atom_type_description
_atom_site_fract_x
_atom_site_fract_y
_atom_site_fract_z
_atom_type_partial_charge
C1    C     C_R   0.437784 0.692039 0.493731 0.903445
C2    C     C_R   0.412598 0.480152 0.713650 -0.090815
C3    C     C_R   0.508311 0.496244 0.747675 0.316594
C4    C     C_R   0.503420 0.491468 0.898120 -0.090770
C5    C     C_R   0.483843 0.588229 0.871200 -0.039097
C6    C     C_R   0.457520 0.682063 0.895188 -0.006483
C7    C     C_R   0.525451 0.396129 0.874498 -0.055107
C8    C     C_R   0.503859 0.498587 0.646818 -0.051291
C9    C     C_R   0.498403 0.496816 0.353033 -0.061441
C10   C     C_R   0.507150 0.581433 0.025985 0.049398
C11   C     C_R   0.495732 0.394175 0.024161 0.032900
C12   C     C_R   0.501295 0.499334 0.593862 0.883209
C13   C     C_R   0.503520 0.486805 0.050795 0.039935
C14   C     C_R   0.526728 0.670020 0.053824 -0.270241
C15   C     C_R   0.535346 0.668725 0.104652 0.139347
C16   C     C_R   0.522653 0.577142 0.129171 -0.013544
C17   C     C_R   0.506472 0.485494 0.102092 -0.094757
C18   C     C_R   0.493036 0.393074 0.126195 -0.108094
C19   C     C_R   0.494567 0.396333 0.177318 0.512501
C20   C     C_R   0.524880 0.574185 0.179975 0.524911
C21   C     C_R   0.405253 0.495016 0.266422 -0.131425
C22   C     C_R   0.399582 0.500212 0.316166 0.080772
C23   C     C_R   0.561316 0.308088 0.507356 0.850305
C24   C     C_R   0.599846 0.488779 0.339012 -0.245356
C25   C     C_R   0.603832 0.484101 0.289495 -0.102903
C26   C     C_R   0.506706 0.487235 0.253311 0.296018
C27   C     C_R   0.492804 0.584550 0.973962 0.073516
C28   C     C_R   0.501950 0.490121 0.949006 0.067072
C29   C     C_R   0.511796 0.394295 0.975080 0.015371
C30   C     C_R   0.467051 0.679283 0.946176 -0.297445
C31   C     C_R   0.549304 0.300994 0.902954 0.107100
C32   C     C_R   0.469124 0.306096 0.046793 0.032931
C33   C     C_R   0.472446 0.303469 0.097965 -0.032554
C34   C     C_R   0.498877 0.499949 0.406043 0.864221
C35   C     C_R   0.543711 0.301829 0.952369 -0.151893
C36   C     C_R   0.648707 0.081092 0.595223 -0.175912
C37   C     C_R   0.595818 0.199740 0.523870 -0.075459
C38   C     C_R   0.318931 0.836050 0.440638 0.076134
C39   C     C_R   0.299631 0.941135 0.425902 -0.167111
C40   C     C_R   0.362854 0.010168 0.452649 -0.193438
C41   C     C_R   0.441082 0.976635 0.497037 0.058154
C42   C     C_R   0.441765 0.877181 0.517602 -0.006720
C43   C     C_R   0.518089 0.038962 0.521416 0.098286
C44   C     C_R   0.578590 0.012208 0.570641 0.073039
C45   C     C_R   0.494217 0.586955 0.821752 0.535490
C46   C     C_R   0.561358 0.922184 0.595108 -0.124443
C47   C     C_R   0.491504 0.854757 0.568612 -0.071778
C48   C     C_R   0.536029 0.128090 0.497609 -0.228771
C49   C     C_R   0.654001 0.175523 0.572540 -0.195721
C50   C     C_R   0.394190 0.803004 0.485635 -0.054872
C51   C     C_R   0.105215 0.315699 0.448648 -0.063746
C52   C     C_R   0.792138 0.649728 0.545111 0.306152
C53   C     C_R   0.885285 0.693886 0.542386 -0.288866
C54   C     C_R   0.964533 0.639686 0.520941 -0.185311
C55   C     C_R   0.957577 0.535808 0.507228 -0.006671
C56   C     C_R   0.525011 0.400564 0.823736 0.503808
C57   C     C_R   0.863533 0.492852 0.512490 0.178824
C58   C     C_R   0.041789 0.472562 0.489896 -0.045671
C59   C     C_R   0.024521 0.371733 0.471496 0.077039
C60   C     C_R   0.932368 0.329487 0.480510 -0.054734
C61   C     C_R   0.867186 0.384575 0.509819 -0.054873
C62   C     C_R   0.144915 0.504493 0.492490 -0.041364
C63   C     C_R   0.202685 0.356350 0.450159 0.004664
C64   C     C_R   0.601842 0.513838 0.731598 -0.082339
C65   C     C_R   0.599779 0.514996 0.681283 -0.212388
C66   C     C_R   0.410184 0.481330 0.663380 -0.162193
H1    H     H_    0.335128 0.468700 0.637623 0.171185
H2    H     H_    0.675848 0.526351 0.758115 0.144117
H3    H     H_    0.676711 0.485323 0.366372 0.179163
H4    H     H_    0.682343 0.478189 0.279132 0.149336
H5    H     H_    0.570088 0.228751 0.973350 0.174637
H6    H     H_    0.695457 0.232961 0.594565 0.185205
H7    H     H_    0.693458 0.067121 0.633263 0.145173
H8    H     H_    0.340247 0.466755 0.726298 0.144744
H9    H     H_    0.496598 0.148662 0.459389 0.131864
H10   H     H_    0.347108 0.089872 0.438498 0.160463
H11   H     H_    0.240644 0.968016 0.391909 0.180585
H12   H     H_    0.267742 0.312900 0.435465 0.161159
H13   H     H_    0.168831 0.572838 0.511551 0.150666
H14   H     H_    0.031050 0.680149 0.516598 0.160807
H15   H     H_    0.894803 0.771187 0.555949 0.158454
H16   H     H_    0.330786 0.498426 0.237569 0.139319
H17   H     H_    0.539942 0.741040 0.037078 0.144145
H18   H     H_    0.445836 0.752113 0.963176 0.136986
H19   H     H_    0.673011 0.528680 0.669453 0.181991
N1    N     N_R   0.509975 0.494554 0.799191 -0.360922
N2    N     N_R   0.510378 0.485356 0.202306 -0.353734
N3    N     N_R   0.222180 0.444690 0.474320 -0.122096
N4    N     N_R   0.776980 0.554780 0.525420 -0.094378
O1    O     O_R   0.366730 0.627160 0.487740 -0.574118
O2    O     O_2   0.539441 0.659477 0.207171 -0.524503
O3    O     O_2   0.539635 0.312671 0.798567 -0.569078
O4    O     O_2   0.479318 0.312425 0.202350 -0.560180
O5    O     O_R   0.544830 0.662520 0.504140 -0.621238
O6    O     O_R   0.410970 0.482310 0.563040 -0.606076
O7    O     O_R   0.589070 0.517670 0.579450 -0.592268
O8    O     O_R   0.455170 0.337480 0.495860 -0.613826
O9    O     O_R   0.633270 0.372840 0.512260 -0.609272
O10   O     O_R   0.410930 0.482330 0.420550 -0.589728
O11   O     O_R   0.589030 0.517690 0.436960 -0.625367
O12   O     O_2   0.491724 0.676464 0.796376 -0.488561
Zn1   Zn    Zn3+2 0.381080 0.476390 0.489050 0.980708
Zn2   Zn    Zn3+2 0.618920 0.523610 0.510950 0.989338
N5    N     N_3   0.581969 0.201657 0.883800 -0.442678
H20   H     H_    0.652065 0.204755 0.869913 0.236454
H21   H     H_    0.517157 0.182778 0.856138 0.250510
N6    N     N_3   0.429025 0.223279 0.016767 -0.455226
H22   H     H_    0.347281 0.220959 0.018313 0.248602
H23   H     H_    0.476926 0.152137 0.030388 0.183806
C67   C     C_2   0.457415 0.204736 0.121067 0.482305
H24   H     H_    0.523132 0.164307 0.149914 0.100758
O13   O     O_2   0.371342 0.168776 0.108486 -0.562364
C68   C     C_2   0.616759 0.898568 0.648079 0.363892
H25   H     H_    0.704200 0.901402 0.660754 0.062043
O14   O     O_2   0.564643 0.878114 0.678125 -0.510580
N7    N     N_3   0.265902 0.762423 0.408856 -0.447326
H26   H     H_    0.286738 0.767719 0.374604 0.176818
H27   H     H_    0.180769 0.784313 0.403308 0.194735
C69   C     C_2   0.465987 0.765084 0.595333 0.494387
H28   H     H_    0.529128 0.720927 0.623947 0.089650
O15   O     O_2   0.372980 0.742253 0.586733 -0.578831
N8    N     N_3   0.908753 0.229067 0.463372 -0.476345
H29   H     H_    0.824407 0.234619 0.447715 0.201175
H30   H     H_    0.929299 0.175253 0.493251 0.169313
C70   C     C_2   0.098168 0.212391 0.426306 0.396639
H31   H     H_    0.078624 0.148103 0.446018 0.098344
O16   O     O_2   0.120193 0.196663 0.386018 -0.573286
N9    N     N_3   0.713742 0.704291 0.569355 -0.416046
H32   H     H_    0.753143 0.712262 0.606279 0.151310
H33   H     H_    0.691216 0.779053 0.552794 0.162791
C71   C     C_2   0.413012 0.784503 0.869187 0.529715
H34   H     H_    0.438935 0.855223 0.885850 0.033306
O17   O     O_2   0.341063 0.791702 0.831130 -0.499082
C72   C     C_2   0.844353 0.326201 0.551518 0.451822
H35   H     H_    0.845702 0.242486 0.550658 0.040156
O18   O     O_2   0.827010 0.370825 0.588395 -0.570433
N10   N     N_3   0.294234 0.510621 0.328977 -0.409580
H36   H     H_    0.232051 0.501195 0.297975 0.190511
H37   H     H_    0.276990 0.587089 0.340055 0.189575
N11   N     N_3   0.556677 0.761737 0.130801 -0.369686
H38   H     H_    0.630789 0.781300 0.125167 0.184093
H39   H     H_    0.493750 0.822269 0.115481 0.198518

loop_
_geom_bond_atom_site_label_1
_geom_bond_atom_site_label_2
_ccdc_geom_bond_type
C10   C27   A    
C58   C62   A    
C59   C60   A    
C21   C26   A    
C8    C66   A    
C1    O1    A    
C63   N3    A    
N6    H23   S    
C41   C42   A    
C65   H19   S    
N9    H32   S    
N5    H21   S    
C52   N9    S    
C53   C54   A    
N10   H37   S    
C22   N10   S    
C57   N4    A    
C64   H2    S    
C28   C29   A    
C1    O5    A    
N11   H39   S    
C15   N11   S    
C19   N2    A    
C5    C6    A    
C9    C22   A    
O9    Zn2   S    
C20   N2    A    
C37   C49   A    
N7    H26   S    
C53   H15   S    
C18   C19   A    
C67   H24   S    
O1    Zn1   S    
C54   C55   A    
C16   C17   A    
C49   H6    S    
C61   C72   S    
C34   O11   A    
N6    H22   S    
C12   O6    A    
C43   C48   A    
O8    Zn1   S    
C19   O4    S    
O6    Zn1   S    
C8    C12   S    
C25   H4    S    
C47   C69   S    
C66   H1    S    
C35   H5    S    
C8    C65   A    
C21   C22   A    
N4    Zn2   S    
C3    N1    S    
C30   H18   S    
C41   C43   A    
C48   H9    S    
C52   N4    A    
C14   H17   S    
C4    C7    A    
N5    H20   S    
C4    C28   A    
C44   C46   A    
C24   H3    S    
C17   C18   A    
C54   H14   S    
C69   O15   D    
C38   C39   A    
C20   O2    S    
C7    C31   A    
C51   C70   S    
C62   H13   S    
C51   C63   A    
N11   H38   S    
C10   C14   A    
C39   C40   A    
C27   C30   A    
C26   N2    S    
C72   O18   D    
C71   O17   D    
C58   C59   A    
C23   C37   S    
C62   N3    A    
C32   N6    S    
O11   Zn2   S    
C40   H10   S    
C32   C33   A    
N9    H33   S    
C60   C61   A    
C43   C44   A    
C38   N7    S    
C56   N1    A    
C16   C20   A    
C23   O9    A    
C34   O10   A    
C24   C25   A    
C37   C48   A    
C60   N8    S    
C45   O12   S    
C42   C50   A    
C40   C41   A    
C23   O8    A    
O5    Zn2   S    
C55   C57   A    
C70   H31   S    
C31   C35   A    
C36   C44   A    
C51   C59   A    
N8    H30   S    
C71   H34   S    
C39   H11   S    
C52   C53   A    
C68   H25   S    
C1    C50   S    
C46   C47   A    
C46   C68   S    
C6    C30   A    
C6    C71   S    
C2    C66   A    
C10   C13   A    
C2    H8    S    
C11   C32   A    
N3    Zn1   S    
C69   H28   S    
C9    C24   A    
C57   C61   A    
C72   H35   S    
C38   C50   A    
N10   H36   S    
C29   C35   A    
C13   C17   A    
C31   N5    S    
C2    C3    A    
C25   C26   A    
C64   C65   A    
C11   C13   A    
C9    C34   S    
C5    C45   A    
C4    C5    A    
N7    H27   S    
C45   N1    A    
C7    C56   A    
C42   C47   A    
C3    C64   A    
C18   C33   A    
C67   O13   D    
C36   H7    S    
C56   O3    S    
O10   Zn1   S    
C21   H16   S    
C11   C29   A    
C55   C58   A    
C27   C28   A    
C70   O16   D    
C14   C15   A    
C12   O7    A    
C33   C67   S    
N8    H29   S    
O7    Zn2   S    
C36   C49   A    
C15   C16   A    
C68   O14   D    
C63   H12   S    
