data_mof_unit_10878.cif
_audit_creation_date              2013-03-05T15:40:52-0500
_audit_creation_method            fapswitch 2.2
_symmetry_space_group_name_H-M    P1
_symmetry_Int_Tables_number       1
_space_group_crystal_system       triclinic
_cell_length_a                    16.699801
_cell_length_b                    16.821133
_cell_length_c                    16.853734
_cell_angle_alpha                 66.08191
_cell_angle_beta                  65.707401
_cell_angle_gamma                 66.083159
_cell_volume                      3779.38546281

loop_
_atom_site_label
_atom_site_type_symbol
_atom_site_description
_atom_site_fract_x
_atom_site_fract_y
_atom_site_fract_z
_atom_type_partial_charge
O1    O     O_R   0.982940 0.138950 0.510160 -0.623654
O2    O     O_R   0.017060 0.861050 0.489840 -0.647559
O3    O     O_R   0.138950 0.510160 0.982940 -0.654304
O4    O     O_R   0.861050 0.489840 0.017060 -0.643046
O5    O     O_R   0.510160 0.982940 0.138950 -0.629875
O6    O     O_R   0.489840 0.017060 0.861050 -0.656145
O7    O     O_R   0.489840 0.861050 0.017060 -0.636353
O8    O     O_R   0.510160 0.138950 0.982940 -0.659677
O9    O     O_R   0.017060 0.489840 0.861050 -0.656930
O10   O     O_R   0.982940 0.510160 0.138950 -0.640754
O11   O     O_R   0.861050 0.017060 0.489840 -0.653385
O12   O     O_R   0.138950 0.982940 0.510160 -0.654149
O13   O     O_R   0.867700 0.025880 0.612340 -0.571585
O14   O     O_R   0.132300 0.974120 0.387660 -0.568817
O15   O     O_R   0.025880 0.612340 0.867700 -0.554891
O16   O     O_R   0.974120 0.387660 0.132300 -0.564311
O17   O     O_R   0.612340 0.867700 0.025880 -0.569648
O18   O     O_R   0.387660 0.132300 0.974120 -0.565317
O19   O     O_R   0.387660 0.974120 0.132300 -0.565243
O20   O     O_R   0.612340 0.025880 0.867700 -0.598344
O21   O     O_R   0.132300 0.387660 0.974120 -0.557779
O22   O     O_R   0.867700 0.612340 0.025880 -0.567589
O23   O     O_R   0.974120 0.132300 0.387660 -0.573358
O24   O     O_R   0.025880 0.867700 0.612340 -0.571632
C1    C     C_R   0.432105 0.969626 0.688185 0.521771
C2    C     C_R   0.515429 0.088513 0.312645 0.507264
C3    C     C_R   0.024817 0.673503 0.408671 0.474513
C4    C     C_R   0.092121 0.303867 0.519708 0.507898
C5    C     C_R   0.678688 0.401845 0.025177 0.443102
C6    C     C_R   0.349854 0.600040 0.936327 0.434951
C7    C     C_R   0.363465 0.901179 0.597222 0.521281
C8    C     C_R   0.654293 0.060503 0.399298 0.539117
C9    C     C_R   0.612724 0.338110 0.920563 0.501780
C10   C     C_R   0.489034 0.692451 0.900347 0.556006
C11   C     C_R   0.919759 0.594163 0.362682 0.510571
C12   C     C_R   0.067955 0.396433 0.655187 0.531658
C13   C     C_R   0.977488 0.176671 0.430977 0.944331
C14   C     C_R   0.036765 0.820612 0.562524 0.905771
C15   C     C_R   0.180169 0.438036 0.961747 0.920015
C16   C     C_R   0.820492 0.559817 0.041603 0.910283
C17   C     C_R   0.430421 0.977758 0.176778 0.947359
C18   C     C_R   0.567917 0.024782 0.822014 0.944444
C19   C     C_R   0.568691 0.821889 0.024015 0.926737
C20   C     C_R   0.439086 0.179397 0.959464 0.945081
C21   C     C_R   0.038407 0.561934 0.820038 0.926133
C22   C     C_R   0.959687 0.439005 0.179652 0.905339
C23   C     C_R   0.819909 0.039130 0.561441 0.947943
C24   C     C_R   0.178984 0.957275 0.439968 0.889864
Zn1   Zn    Zn3+2 0.004880 0.004880 0.583590 1.027464
Zn2   Zn    Zn3+2 0.995120 0.995120 0.416410 1.048530
Zn3   Zn    Zn3+2 0.004880 0.583590 0.004880 1.039570
Zn4   Zn    Zn3+2 0.995120 0.416410 0.995120 1.061635
Zn5   Zn    Zn3+2 0.583590 0.004880 0.004880 1.021795
Zn6   Zn    Zn3+2 0.416410 0.995120 0.995120 1.061954
C25   C     C_R   0.486822 0.969244 0.731291 -0.291921
C26   C     C_R   0.477059 0.066908 0.266624 -0.318720
C27   C     C_R   0.052224 0.711649 0.448959 -0.224067
C28   C     C_R   0.070451 0.261615 0.477877 -0.300413
C29   C     C_R   0.709869 0.444171 0.058787 -0.225032
C30   C     C_R   0.299001 0.554482 0.930830 -0.262889
C31   C     C_R   0.308197 0.902574 0.551559 -0.308028
C32   C     C_R   0.701003 0.072448 0.444308 -0.230727
C33   C     C_R   0.562227 0.292705 0.914464 -0.271152
C34   C     C_R   0.523454 0.735435 0.929840 -0.317490
C35   C     C_R   0.912422 0.551041 0.310950 -0.267293
C36   C     C_R   0.075432 0.444148 0.702049 -0.229244
C37   C     C_R   0.541970 0.015016 0.543174 -0.102687
C38   C     C_R   0.445934 0.990829 0.454533 -0.111784
C39   C     C_R   0.037566 0.536795 0.535328 -0.101782
C40   C     C_R   0.002920 0.449622 0.445691 -0.110854
C41   C     C_R   0.568520 0.546449 0.980060 -0.107691
C42   C     C_R   0.477087 0.462673 0.943402 -0.111022
C43   C     C_R   0.569290 0.039652 0.447435 -0.047574
C44   C     C_R   0.423779 0.957570 0.550141 -0.025921
C45   C     C_R   0.051894 0.441633 0.568614 -0.054550
C46   C     C_R   0.976487 0.545211 0.421326 -0.045961
C47   C     C_R   0.497132 0.599133 0.940715 -0.050397
C48   C     C_R   0.566725 0.415958 0.951439 -0.040178
C49   C     C_R   0.512933 0.038333 0.403780 -0.024991
C50   C     C_R   0.465120 0.979928 0.594309 -0.074583
C51   C     C_R   0.441217 0.555419 0.938780 -0.027482
C52   C     C_R   0.606396 0.453108 0.984518 -0.018167
C53   C     C_R   0.048187 0.397156 0.513959 -0.034758
C54   C     C_R   0.009816 0.586910 0.455189 -0.035802
C55   C     C_R   0.560781 0.007815 0.683305 -0.037792
C56   C     C_R   0.424480 0.004977 0.313953 -0.016914
C57   C     C_R   0.052820 0.673668 0.540629 -0.011218
C58   C     C_R   0.010349 0.311434 0.424017 -0.020792
C59   C     C_R   0.677980 0.538915 0.046141 -0.010936
C60   C     C_R   0.333310 0.461017 0.935506 0.000349
C61   C     C_R   0.327390 0.938885 0.457785 -0.006139
C62   C     C_R   0.671089 0.055007 0.539283 -0.032765
C63   C     C_R   0.466178 0.327427 0.930976 -0.015062
C64   C     C_R   0.575779 0.684840 0.991125 -0.020224
C65   C     C_R   0.947203 0.456663 0.327582 -0.020416
C66   C     C_R   0.062038 0.538568 0.669508 -0.035177
C67   C     C_R   0.601002 0.035336 0.725279 -0.198063
C68   C     C_R   0.391245 0.971985 0.271293 -0.225644
C69   C     C_R   0.059409 0.721437 0.590761 -0.219111
C70   C     C_R   0.974638 0.270638 0.391496 -0.216210
C71   C     C_R   0.720857 0.586447 0.063063 -0.181899
C72   C     C_R   0.281197 0.410155 0.935677 -0.205725
C73   C     C_R   0.278549 0.933048 0.410018 -0.185533
C74   C     C_R   0.718916 0.063750 0.587995 -0.188941
C75   C     C_R   0.411793 0.278889 0.933023 -0.193136
C76   C     C_R   0.606493 0.725713 0.029114 -0.214538
C77   C     C_R   0.938613 0.409441 0.279013 -0.180463
C78   C     C_R   0.062884 0.589880 0.719689 -0.186573
C79   C     C_R   0.670549 0.077378 0.672537 0.225800
C80   C     C_R   0.321443 0.930073 0.321938 0.240878
C81   C     C_R   0.075438 0.675323 0.674823 0.252068
C82   C     C_R   0.933614 0.321954 0.321986 0.236730
C83   C     C_R   0.674637 0.672858 0.071933 0.235638
C84   C     C_R   0.325442 0.324884 0.921369 0.223108
C85   C     C_R   0.590439 0.027303 0.588247 0.061084
C86   C     C_R   0.400332 0.977064 0.408947 0.053457
C87   C     C_R   0.050870 0.582900 0.581946 0.052173
C88   C     C_R   0.985875 0.406141 0.399911 0.055976
C89   C     C_R   0.605833 0.589531 0.008050 0.054729
C90   C     C_R   0.425341 0.417221 0.936433 0.050278
H1    H     H_    0.464238 0.940962 0.803269 0.204158
H2    H     H_    0.483027 0.104106 0.195882 0.174179
H3    H     H_    0.074872 0.770657 0.404353 0.215405
H4    H     H_    0.105172 0.190234 0.484632 0.184295
H5    H     H_    0.760887 0.401289 0.094088 0.210444
H6    H     H_    0.233992 0.596261 0.919057 0.211013
H7    H     H_    0.254928 0.869038 0.586228 0.180640
H8    H     H_    0.760298 0.096994 0.402796 0.218579
H9    H     H_    0.600885 0.233995 0.889489 0.228825
H10   H     H_    0.516104 0.806792 0.897765 0.165547
H11   H     H_    0.873185 0.590788 0.262927 0.211262
H12   H     H_    0.095588 0.403950 0.763046 0.226338
O25   O     O_3   0.343902 0.965076 0.739823 -0.565188
C91   C     C_3   0.283651 0.053977 0.726564 0.114080
H13   H     H_    0.280377 0.083041 0.655364 0.161215
H14   H     H_    0.305424 0.098892 0.742561 0.164711
C92   C     C_3   0.187808 0.051533 0.789565 -0.759217
H15   H     H_    0.189549 0.016950 0.860942 0.247395
H16   H     H_    0.141895 0.121798 0.784668 0.254645
H17   H     H_    0.159969 0.015018 0.769749 0.234114
O26   O     O_3   0.543156 0.166629 0.273522 -0.599442
C93   C     C_3   0.464542 0.243169 0.276251 0.038105
H18   H     H_    0.403861 0.228683 0.334973 0.123754
H19   H     H_    0.445697 0.267268 0.212586 0.144435
C94   C     C_3   0.484888 0.319338 0.284780 -0.802484
H20   H     H_    0.534573 0.347324 0.221607 0.229762
H21   H     H_    0.420640 0.375138 0.297113 0.211700
H22   H     H_    0.513342 0.293627 0.342555 0.274649
O27   O     O_3   0.007543 0.726668 0.326624 -0.580609
C95   C     C_3   0.075727 0.694008 0.254037 0.104669
H23   H     H_    0.092858 0.619271 0.268728 0.120112
H24   H     H_    0.139278 0.711345 0.237959 0.144377
C96   C     C_3   0.039405 0.740129 0.171778 -0.778329
H25   H     H_    0.037212 0.812893 0.145469 0.241330
H26   H     H_    0.082628 0.706840 0.117294 0.195979
H27   H     H_    0.969094 0.735654 0.190695 0.288888
O28   O     O_3   0.161620 0.254440 0.560034 -0.574627
C97   C     C_3   0.247950 0.254668 0.493724 0.041559
H28   H     H_    0.244751 0.304214 0.425710 0.115807
H29   H     H_    0.282928 0.185660 0.484412 0.148149
C98   C     C_3   0.305786 0.277129 0.527367 -0.744218
H30   H     H_    0.309519 0.230734 0.595686 0.257468
H31   H     H_    0.376378 0.269657 0.479989 0.208441
H32   H     H_    0.274956 0.348111 0.531392 0.258264
O29   O     O_3   0.726758 0.312833 0.025418 -0.593139
C99   C     C_3   0.679964 0.253702 0.099527 0.166562
H33   H     H_    0.606673 0.273932 0.102914 0.133741
H34   H     H_    0.685093 0.251794 0.164079 0.198629
C100  C     C_3   0.724211 0.158727 0.087749 -0.687766
H35   H     H_    0.793999 0.130951 0.095881 0.242931
H36   H     H_    0.681807 0.113512 0.138911 0.234745
H37   H     H_    0.729268 0.160238 0.019434 0.250110
O30   O     O_3   0.308559 0.689486 0.937553 -0.600871
C101  C     C_3   0.283028 0.694361 0.026759 0.091689
H38   H     H_    0.342552 0.666040 0.053768 0.141432
H39   H     H_    0.232666 0.655911 0.073554 0.123654
C102  C     C_3   0.241598 0.793597 0.025685 -0.767256
H40   H     H_    0.179600 0.823893 0.002269 0.239676
H41   H     H_    0.222496 0.799488 0.094807 0.218754
H42   H     H_    0.292327 0.831837 0.978796 0.273207
O31   O     O_3   0.368205 0.841526 0.683006 -0.577768
C103  C     C_3   0.316259 0.778967 0.722456 0.182349
H43   H     H_    0.350046 0.719416 0.769408 0.230167
H44   H     H_    0.317823 0.749285 0.673729 0.137677
C104  C     C_3   0.219842 0.819067 0.778702 -0.657658
H45   H     H_    0.178785 0.874140 0.734522 0.216525
H46   H     H_    0.184795 0.765245 0.819729 0.251102
H47   H     H_    0.223915 0.846834 0.826016 0.282149
O32   O     O_3   0.696673 0.063542 0.308694 -0.592388
C105  C     C_3   0.742224 0.974010 0.301020 0.059141
H48   H     H_    0.736674 0.971482 0.238764 0.175901
H49   H     H_    0.711731 0.921116 0.358145 0.131593
C106  C     C_3   0.843647 0.949378 0.291107 -0.795317
H50   H     H_    0.852557 0.944148 0.354952 0.248443
H51   H     H_    0.879933 0.882949 0.276289 0.276062
H52   H     H_    0.874338 0.001782 0.234404 0.256586
O33   O     O_3   0.707067 0.312522 0.884813 -0.590860
C107  C     C_3   0.731570 0.353757 0.789649 0.137888
H53   H     H_    0.680630 0.363712 0.757089 0.162019
H54   H     H_    0.795985 0.307413 0.758375 0.167988
C108  C     C_3   0.748546 0.444311 0.766862 -0.898507
H55   H     H_    0.795886 0.436161 0.802147 0.276571
H56   H     H_    0.779034 0.469848 0.692389 0.217947
H57   H     H_    0.683275 0.495327 0.788433 0.254209
O34   O     O_3   0.464825 0.737053 0.820713 -0.556404
C109  C     C_3   0.545536 0.727210 0.745613 0.133959
H58   H     H_    0.610745 0.708552 0.761489 0.101905
H59   H     H_    0.541974 0.793305 0.692364 0.181802
C110  C     C_3   0.552946 0.657593 0.704602 -0.868070
H60   H     H_    0.501785 0.685026 0.667202 0.262033
H61   H     H_    0.622175 0.641070 0.655826 0.216235
H62   H     H_    0.542164 0.594125 0.758078 0.255591
O35   O     O_3   0.868364 0.683590 0.357010 -0.581863
C111  C     C_3   0.784035 0.688018 0.427315 0.133750
H63   H     H_    0.767068 0.622012 0.464076 0.124501
H64   H     H_    0.728454 0.735047 0.396071 0.175330
C112  C     C_3   0.782619 0.726890 0.495543 -0.866058
H65   H     H_    0.806606 0.788590 0.459647 0.278617
H66   H     H_    0.711725 0.745564 0.540803 0.205199
H67   H     H_    0.827601 0.675818 0.537826 0.247400
O36   O     O_3   0.074684 0.305356 0.697977 -0.570791
C113  C     C_3   0.986333 0.292803 0.741898 0.063904
H68   H     H_    0.990174 0.226870 0.738202 0.181003
H69   H     H_    0.933764 0.345291 0.708652 0.125282
C114  C     C_3   0.956242 0.288198 0.841902 -0.811293
H70   H     H_    0.944208 0.355343 0.848742 0.249357
H71   H     H_    0.891638 0.268422 0.877932 0.277565
H72   H     H_    0.009811 0.236976 0.874132 0.260100
N1    N     N_R   0.682692 0.143267 0.698408 0.223586
O37   O     O_R   0.753452 0.174587 0.653203 -0.393508
O38   O     O_R   0.612373 0.190149 0.748818 -0.415648
N2    N     N_R   0.293997 0.883540 0.286452 0.222207
O39   O     O_R   0.305903 0.796531 0.322042 -0.399405
O40   O     O_R   0.240021 0.929070 0.235002 -0.360627
N3    N     N_R   0.113221 0.711073 0.711390 0.205590
O41   O     O_R   0.059512 0.766191 0.760833 -0.389947
O42   O     O_R   0.196926 0.670075 0.715200 -0.456243
N4    N     N_R   0.884742 0.287746 0.295763 0.216117
O43   O     O_R   0.929080 0.235749 0.242128 -0.356659
O44   O     O_R   0.796770 0.324068 0.309612 -0.397578
N5    N     N_R   0.699246 0.705804 0.122848 0.216557
O45   O     O_R   0.685747 0.666700 0.209633 -0.399260
O46   O     O_R   0.752497 0.758636 0.081194 -0.364333
N6    N     N_R   0.286336 0.288801 0.886223 0.223094
O47   O     O_R   0.236062 0.234219 0.940402 -0.357362
O48   O     O_R   0.291396 0.320354 0.800471 -0.389384

loop_
_geom_bond_atom_site_label_1
_geom_bond_atom_site_label_2
_geom_bond_distance
_ccdc_geom_bond_type
C84   N6    1.441175 S    
C25   H1    1.068293 S    
O9    C21   1.242424 A    
O28   C97   1.415197 S    
C68   C80   1.394320 A    
C48   C52   1.436074 A    
C1    C50   1.405224 A    
C71   C83   1.379282 A    
C100  H35   1.110556 S    
C7    C31   1.413126 A    
O11   C23   1.241122 A    
O12   C24   1.249868 A    
C4    C28   1.399236 A    
C46   C54   1.424792 A    
C91   C92   1.520042 S    
C94   H20   1.107731 S    
C108  H56   1.110635 S    
C99   H34   1.112712 S    
C104  H47   1.109533 S    
C20   C75   1.466648 S    
C61   C86   1.398011 A    
C112  H67   1.109483 S    
O20   C18   1.279145 A    
C92   H16   1.108987 S    
C9    O33   1.381988 S    
O29   C99   1.407061 S    
C65   C77   1.427532 A    
O4    Zn4   2.030293 S    
C73   C80   1.369497 A    
C13   C70   1.433751 S    
O5    Zn5   2.038764 S    
C3    C54   1.416820 A    
C114  H70   1.109873 S    
C57   C87   1.405943 A    
O18   Zn6   2.063914 S    
C10   C47   1.408119 A    
C29   C59   1.413753 A    
C74   C79   1.379465 A    
C109  H59   1.107376 S    
C9    C48   1.408425 A    
C104  H46   1.108758 S    
C11   C35   1.405026 A    
C38   C44   1.411625 A    
O31   C103  1.414294 S    
C114  H72   1.110440 S    
N6    O47   1.302327 A    
C56   C86   1.399670 A    
N5    O45   1.300627 A    
C108  H55   1.109186 S    
C5    O29   1.381839 S    
C37   C85   1.429610 A    
C101  H38   1.111204 S    
C60   C72   1.445334 A    
C42   C48   1.415424 A    
O2    Zn2   2.047390 S    
C105  C106  1.524015 S    
C63   C75   1.430137 A    
C16   C71   1.460095 S    
C103  H43   1.101960 S    
C79   N1    1.451368 S    
C5    C29   1.403299 A    
C106  H51   1.109463 S    
C95   C96   1.526444 S    
C6    C30   1.402512 A    
O10   C22   1.243329 A    
O24   C14   1.289285 A    
N3    O41   1.302195 A    
C98   H31   1.108991 S    
C107  H53   1.116673 S    
C37   C43   1.410257 A    
C63   C90   1.407405 A    
O7    C19   1.242047 A    
C96   H26   1.105282 S    
C2    O26   1.383960 S    
C1    O25   1.384025 S    
C6    O30   1.382728 S    
C57   C69   1.438857 A    
C42   C51   1.407452 A    
C97   C98   1.522278 S    
C21   C78   1.480120 S    
O1    C13   1.248352 A    
C41   C52   1.417437 A    
C106  H52   1.110517 S    
C38   C49   1.416082 A    
C66   C78   1.439471 A    
O22   C16   1.294341 A    
C65   C88   1.409970 A    
C44   C50   1.425683 A    
C7    O31   1.398854 S    
C4    C53   1.418392 A    
C97   H29   1.111656 S    
N3    O42   1.300014 A    
C93   C94   1.523238 S    
C99   H33   1.112492 S    
O33   C107  1.417402 S    
O9    Zn4   2.046526 S    
O6    Zn6   2.038765 S    
O14   Zn2   2.043772 S    
C56   C68   1.426385 A    
O10   Zn3   2.046526 S    
C82   N4    1.440935 S    
N2    O40   1.302239 A    
C35   H11   1.083412 S    
C98   H30   1.108908 S    
C36   H12   1.078824 S    
C10   O34   1.382620 S    
C114  H71   1.109747 S    
C92   H17   1.109305 S    
N4    O44   1.300689 A    
C11   C46   1.424911 A    
C4    O28   1.381548 S    
C93   H18   1.115892 S    
C94   H21   1.110644 S    
C76   C83   1.393341 A    
O4    C16   1.238249 A    
C66   C87   1.410703 A    
C55   C85   1.404408 A    
O16   Zn4   2.065416 S    
C3    C27   1.389008 A    
C18   C67   1.448608 S    
O16   C22   1.293357 A    
C8    C43   1.421846 A    
O13   C23   1.298673 A    
O3    Zn3   2.030293 S    
C109  H58   1.118259 S    
O20   Zn5   2.064599 S    
O23   Zn2   2.063849 S    
O14   C24   1.284183 A    
C113  C114  1.525790 S    
C102  H41   1.109471 S    
C112  H65   1.110046 S    
O34   C109  1.425289 S    
C24   C73   1.453379 S    
C27   C57   1.415062 A    
C32   C62   1.406387 A    
N5    O46   1.301798 A    
C19   C76   1.458410 S    
C26   H2    1.082048 S    
C25   C55   1.415236 A    
O17   C19   1.272829 A    
C105  H48   1.109361 S    
O12   Zn1   2.025135 S    
N1    O37   1.301122 A    
C72   C84   1.391397 A    
C12   C45   1.426900 A    
O18   C20   1.282428 A    
C27   H3    1.076481 S    
O36   C113  1.413052 S    
C67   C79   1.394986 A    
C64   C89   1.413543 A    
C75   C84   1.386305 A    
C26   C56   1.408576 A    
O21   C15   1.292060 A    
C47   C51   1.419469 A    
C9    C33   1.400820 A    
C102  H42   1.111196 S    
C69   C81   1.390362 A    
C22   C77   1.468738 S    
C42   C90   1.427274 A    
C107  C108  1.527819 S    
C10   C34   1.401349 A    
C110  H60   1.108044 S    
C43   C49   1.423899 A    
C31   H7    1.078400 S    
C77   C82   1.372171 A    
C96   H27   1.109149 S    
C113  H69   1.113243 S    
C40   C53   1.423197 A    
C11   O35   1.382985 S    
C101  C102  1.521463 S    
O8    C20   1.241602 A    
C58   C70   1.425729 A    
C80   N2    1.441006 S    
C38   C86   1.411542 A    
O13   Zn1   2.043772 S    
O19   Zn6   2.064600 S    
C34   H10   1.075649 S    
C70   C82   1.395626 A    
O15   Zn3   2.065416 S    
C81   N3    1.437950 S    
C40   C46   1.409652 A    
O25   C91   1.411608 S    
C108  H57   1.106891 S    
C95   H24   1.111344 S    
C112  H66   1.109900 S    
O15   C21   1.295416 A    
C58   C88   1.397816 A    
O17   Zn5   2.063912 S    
C41   C47   1.401309 A    
C98   H32   1.110775 S    
C94   H22   1.110650 S    
C15   C72   1.474804 S    
C36   C66   1.407108 A    
C100  H36   1.107227 S    
O24   Zn1   2.063851 S    
C59   C89   1.396468 A    
O5    C17   1.240093 A    
N4    O43   1.302193 A    
C64   C76   1.434835 A    
C105  H49   1.116812 S    
C23   C74   1.476225 S    
C59   C71   1.431938 A    
C111  H63   1.117921 S    
C28   H4    1.081601 S    
C102  H40   1.110276 S    
C37   C50   1.424723 A    
C1    C25   1.378578 A    
C61   C73   1.411499 A    
C14   C69   1.464693 S    
C7    C44   1.432021 A    
C111  C112  1.524830 S    
C28   C58   1.408727 A    
O8    Zn5   2.044752 S    
C91   H14   1.115484 S    
C91   H13   1.112912 S    
C30   C60   1.418663 A    
C29   H5    1.082115 S    
C92   H15   1.110864 S    
C33   C63   1.412912 A    
C83   N5    1.439730 S    
C2    C49   1.413508 A    
C95   H23   1.112601 S    
C78   C81   1.383479 A    
C41   C89   1.421675 A    
O2    C14   1.243425 A    
C6    C51   1.411085 A    
C30   H6    1.075831 S    
C111  H64   1.110693 S    
C34   C64   1.407672 A    
C5    C52   1.424095 A    
N1    O38   1.301623 A    
O11   Zn2   2.025135 S    
O23   C13   1.266049 A    
O26   C93   1.418139 S    
C32   H8    1.080613 S    
C109  C110  1.527375 S    
C45   C53   1.433656 A    
C104  H45   1.108360 S    
C97   H28   1.118498 S    
C40   C88   1.420700 A    
O35   C111  1.416445 S    
C12   O36   1.382394 S    
C39   C87   1.430229 A    
N2    O39   1.300678 A    
C100  H37   1.109697 S    
C101  H39   1.108753 S    
N6    O48   1.300561 A    
C8    O32   1.382798 S    
C39   C45   1.416349 A    
C12   C36   1.399987 A    
C33   H9    1.079716 S    
O32   C105  1.418308 S    
C113  H68   1.110449 S    
C62   C85   1.412348 A    
C103  H44   1.108442 S    
C55   C67   1.440339 A    
C62   C74   1.437430 A    
C2    C26   1.403776 A    
O30   C101  1.411765 S    
C31   C61   1.390248 A    
C35   C65   1.400610 A    
C99   C100  1.522165 S    
C3    O27   1.382531 S    
C106  H50   1.110000 S    
O6    C18   1.229632 A    
C39   C54   1.422891 A    
C110  H61   1.110122 S    
C17   C68   1.429512 S    
C107  H54   1.108787 S    
C8    C32   1.400677 A    
O7    Zn6   2.044753 S    
C96   H25   1.110398 S    
O27   C95   1.409471 S    
O1    Zn1   2.047390 S    
C110  H62   1.107520 S    
C103  C104  1.525840 S    
O21   Zn4   2.044660 S    
C93   H19   1.111931 S    
O3    C15   1.243066 A    
O19   C17   1.260417 A    
C60   C90   1.413303 A    
O22   Zn3   2.044659 S    
