data_mof_unit_16102.cif
_audit_creation_date              2012-12-10T19:45:46-0500
_audit_creation_method            fapswitch 2.2
_symmetry_space_group_name_H-M    P1
_symmetry_Int_Tables_number       1
_space_group_crystal_system       triclinic
_cell_length_a                    10.871755
_cell_length_b                    14.6675
_cell_length_c                    14.728028
_cell_angle_alpha                 65.257391
_cell_angle_beta                  101.999623
_cell_angle_gamma                 102.697203
_cell_volume                      2062.90479995

loop_
_atom_site_label
_atom_site_type_symbol
_atom_type_description
_atom_site_fract_x
_atom_site_fract_y
_atom_site_fract_z
_atom_type_partial_charge
C1    C     C_R   0.477237 0.119756 0.312641 0.788676
C2    C     C_R   0.676513 0.779744 0.957992 -0.203240
C3    C     C_R   0.391394 0.151781 0.132790 -0.209285
C4    C     C_R   0.642697 0.847427 0.860225 -0.207140
C5    C     C_R   0.511647 0.290132 0.177578 -0.257121
C6    C     C_R   0.509469 0.709343 0.821827 -0.258195
C7    C     C_R   0.494526 0.359361 0.076809 0.089519
C8    C     C_R   0.549891 0.638414 0.917256 0.090899
C9    C     C_R   0.423054 0.321789 0.004080 0.169861
C10   C     C_R   0.630862 0.675656 0.986970 0.168223
C11   C     C_R   0.542853 0.464898 0.046870 0.063908
C12   C     C_R   0.526101 0.880295 0.687067 0.792240
C13   C     C_R   0.510970 0.532060 0.945386 0.063209
C14   C     C_R   0.444011 0.490623 0.874663 -0.223104
C15   C     C_R   0.622573 0.505544 0.114499 -0.223296
C16   C     C_R   0.262779 0.999835 0.501991 0.796946
C17   C     C_R   0.736992 0.000747 0.497082 0.790909
C18   C     C_R   0.400921 0.387570 0.903812 -0.236470
C19   C     C_R   0.666497 0.608736 0.084489 -0.238825
C20   C     C_R   0.701767 0.281340 0.672947 -0.320144
C21   C     C_R   0.299405 0.719033 0.326478 -0.327795
C22   C     C_R   0.672247 0.200601 0.642098 0.072966
C23   C     C_R   0.870216 0.000946 0.494438 -0.086969
C24   C     C_R   0.327209 0.799058 0.358298 0.069423
C25   C     C_R   0.524020 0.287146 0.506667 0.029119
C26   C     C_R   0.478510 0.714051 0.491823 0.026081
C27   C     C_R   0.550465 0.372548 0.533565 -0.020135
C28   C     C_R   0.453826 0.629373 0.463955 -0.017880
C29   C     C_R   0.640594 0.367098 0.619568 0.164355
C30   C     C_R   0.362929 0.634410 0.378443 0.163765
C31   C     C_R   0.488819 0.461056 0.480472 0.058367
C32   C     C_R   0.517000 0.541606 0.516141 0.061885
C33   C     C_R   0.606915 0.531465 0.602861 -0.243607
C34   C     C_R   0.129169 0.001176 0.502236 -0.087823
C35   C     C_R   0.399203 0.471329 0.393568 -0.244993
C36   C     C_R   0.667739 0.446328 0.652806 -0.203433
C37   C     C_R   0.337184 0.555852 0.344358 -0.206932
C38   C     C_R   0.305650 0.107101 0.762062 0.226417
C39   C     C_R   0.667574 0.899265 0.241942 0.222665
C40   C     C_R   0.230332 0.056772 0.702250 -0.136073
C41   C     C_R   0.747743 0.947771 0.301480 -0.112509
C42   C     C_R   0.177449 0.112030 0.604029 0.098772
C43   C     C_R   0.820065 0.892086 0.390550 0.090519
C44   C     C_R   0.197123 0.218448 0.566137 -0.158016
C45   C     C_R   0.909111 0.945294 0.449638 0.011231
C46   C     C_R   0.812495 0.787016 0.419788 -0.167646
C47   C     C_R   0.271233 0.268892 0.625652 -0.176076
C48   C     C_R   0.732251 0.738267 0.360953 -0.176391
C49   C     C_R   0.326701 0.213656 0.722777 -0.152075
C50   C     C_R   0.659533 0.793929 0.272524 -0.150728
C51   C     C_R   0.961145 0.056922 0.541077 -0.238836
C52   C     C_R   0.038148 0.945676 0.454849 -0.237808
C53   C     C_3   0.360161 0.046646 0.868066 -0.466850
C54   C     C_3   0.455657 0.984929 0.867745 -0.793535
C55   C     C_3   0.591831 0.960651 0.146193 -0.427925
C56   C     C_R   0.089865 0.057777 0.545718 0.006315
C57   C     C_3   0.678560 0.029604 0.066565 -0.854509
C58   C     C_R   0.460816 0.187426 0.205747 -0.048663
C59   C     C_R   0.557343 0.812513 0.792278 -0.054007
C60   C     C_R   0.373069 0.218528 0.032462 -0.203164
Cu1   Cu    Cu3+1 0.466270 0.918260 0.475690 0.935664
Cu2   Cu    Cu3+1 0.533730 0.081740 0.524310 0.939874
H1    H     H_    0.385048 0.253927 0.767434 0.123606
H2    H     H_    0.717997 0.133755 0.684095 0.116406
H3    H     H_    0.632305 0.588011 0.634867 0.137821
H4    H     H_    0.374491 0.415102 0.361169 0.137249
H5    H     H_    0.210698 0.974566 0.732643 0.114644
H6    H     H_    0.754347 0.029065 0.278324 0.111044
H7    H     H_    0.153986 0.262048 0.491186 0.133668
H8    H     H_    0.868621 0.743062 0.487997 0.137125
H9    H     H_    0.285276 0.350937 0.596677 0.155119
H10   H     H_    0.726455 0.657203 0.383870 0.153151
H11   H     H_    0.932215 0.098402 0.577225 0.161971
H12   H     H_    0.597936 0.755012 0.227724 0.131791
H13   H     H_    0.067337 0.904330 0.418712 0.160636
H14   H     H_    0.348235 0.359435 0.847394 0.137885
H15   H     H_    0.728506 0.636403 0.138388 0.141794
H16   H     H_    0.439530 0.686599 0.768798 0.147274
H17   H     H_    0.561608 0.314294 0.236648 0.148438
H18   H     H_    0.683727 0.926723 0.837681 0.146160
H19   H     H_    0.349057 0.072876 0.153536 0.139604
H20   H     H_    0.317544 0.189832 0.977232 0.124123
H21   H     H_    0.740372 0.808462 0.010361 0.131494
H22   H     H_    0.770913 0.276248 0.738901 0.136472
H23   H     H_    0.425561 0.535506 0.795142 0.144224
H24   H     H_    0.229721 0.723803 0.260884 0.135041
H25   H     H_    0.410033 0.932599 0.829543 0.251115
H26   H     H_    0.536633 0.036636 0.828639 0.255256
H27   H     H_    0.492003 0.938086 0.946020 0.247629
H28   H     H_    0.408574 0.097328 0.907661 0.200950
H29   H     H_    0.281991 0.994757 0.910817 0.198049
H30   H     H_    0.752600 0.079956 0.095406 0.250645
H31   H     H_    0.725261 0.983150 0.044467 0.248243
H32   H     H_    0.621933 0.078546 0.998853 0.254670
H33   H     H_    0.520068 0.910148 0.116000 0.195261
H34   H     H_    0.656328 0.459674 0.190932 0.142529
H35   H     H_    0.539620 0.007583 0.162818 0.215641
H36   H     H_    0.736025 0.442023 0.719080 0.144465
H37   H     H_    0.268624 0.560006 0.278260 0.142751
H38   H     H_    0.549628 0.718738 0.553096 0.128026
H39   H     H_    0.453346 0.282862 0.445019 0.126052
H40   H     H_    0.279949 0.865215 0.317219 0.120070
N1    N     N_R   0.584450 0.204570 0.560790 -0.175730
N2    N     N_R   0.415550 0.795430 0.439210 -0.178364
O1    O     O_R   0.455540 0.022090 0.338120 -0.596330
O2    O     O_R   0.544460 0.977910 0.661880 -0.589488
O3    O     O_R   0.512510 0.160150 0.379180 -0.593274
O4    O     O_R   0.487490 0.839850 0.620820 -0.590739
O5    O     O_R   0.291160 0.930970 0.479480 -0.589686
O6    O     O_R   0.708840 0.069030 0.520520 -0.590558
O7    O     O_R   0.348130 0.069020 0.520540 -0.569332
O8    O     O_R   0.651870 0.930980 0.479460 -0.575199

loop_
_geom_bond_atom_site_label_1
_geom_bond_atom_site_label_2
_ccdc_geom_bond_type
C12   O2    A    
C34   C56   A    
C8    C13   A    
C49   H1    S    
C57   H30   S    
C27   C29   A    
C14   C18   A    
C52   H13   S    
Cu1   O5    S    
C17   O6    A    
C33   H3    S    
C39   C41   A    
C38   C49   A    
C53   C54   S    
C7    C11   A    
C29   C36   A    
C17   C23   S    
C5    C58   A    
C23   C45   A    
C35   C37   A    
C4    H18   S    
C50   H12   S    
C54   H25   S    
C6    H16   S    
C33   C36   A    
C51   C56   A    
C19   H15   S    
Cu1   O4    S    
C16   C34   S    
C15   C19   A    
C12   C59   S    
C60   H20   S    
C39   C55   S    
Cu2   O7    S    
C40   H5    S    
C53   H29   S    
C5    H17   S    
Cu1   O1    S    
C44   C47   A    
C26   N2    A    
C3    C60   A    
C40   C42   A    
C38   C40   A    
C57   H31   S    
C13   C14   A    
C41   C43   A    
C2    H21   S    
C42   C44   A    
C48   H10   S    
C16   O5    A    
C41   H6    S    
C20   C29   A    
C46   C48   A    
C27   C31   A    
C28   C32   A    
Cu1   N2    S    
C54   H27   S    
C55   H33   S    
C15   H34   S    
C12   O4    A    
C25   N1    A    
C6    C8    A    
Cu2   O3    S    
C45   C52   A    
C22   N1    A    
C30   C37   A    
C24   N2    A    
C2    C4    A    
C3    H19   S    
C23   C51   A    
C31   C32   A    
Cu2   O6    S    
C10   C19   A    
C55   H35   S    
C44   H7    S    
C42   C56   S    
C48   C50   A    
C43   C45   S    
C47   H9    S    
C1    O3    A    
C20   C22   A    
C11   C15   A    
C57   H32   S    
C55   C57   S    
C31   C35   A    
C25   C27   A    
C2    C10   A    
C17   O8    A    
C37   H37   S    
C5    C7    A    
Cu2   N1    S    
C7    C9    A    
C21   H24   S    
C18   H14   S    
C26   C28   A    
C6    C59   A    
C51   H11   S    
C14   H23   S    
Cu2   O2    S    
C47   C49   A    
C21   C30   A    
C34   C52   A    
C35   H4    S    
C9    C60   A    
C32   C33   A    
C20   H22   S    
C1    C58   S    
C54   H26   S    
C11   C13   A    
C25   H39   S    
C38   C53   S    
C4    C59   A    
C28   C30   A    
C24   H40   S    
Cu1   Cu2   S    
C43   C46   A    
C46   H8    S    
C22   H2    S    
C3    C58   A    
C9    C18   A    
C39   C50   A    
C8    C10   A    
C21   C24   A    
C1    O1    A    
C53   H28   S    
C36   H36   S    
Cu1   O8    S    
C16   O7    A    
C26   H38   S    
