data_mof_unit_50026.cif
_audit_creation_date              2012-12-10T16:52:39-0500
_audit_creation_method            fapswitch 2.2
_symmetry_space_group_name_H-M    P1
_symmetry_Int_Tables_number       1
_space_group_crystal_system       triclinic
_cell_length_a                    7.890854
_cell_length_b                    8.556488
_cell_length_c                    13.734612
_cell_angle_alpha                 94.108929
_cell_angle_beta                  93.088878
_cell_angle_gamma                 93.983617
_cell_volume                      921.099206109

loop_
_atom_site_label
_atom_site_type_symbol
_atom_type_description
_atom_site_fract_x
_atom_site_fract_y
_atom_site_fract_z
_atom_type_partial_charge
C1    C     C_R   0.044797 0.794396 0.497661 0.948323
C2    C     C_R   0.936533 0.486136 0.317986 0.851422
C3    C     C_R   0.092383 0.517470 0.787698 -0.054524
C4    C     C_R   0.900031 0.453493 0.213667 -0.064590
C5    C     C_R   0.036477 0.621650 0.949670 -0.190406
C6    C     C_R   0.920365 0.286353 0.066228 -0.190131
C7    C     C_R   0.987284 0.595979 0.850632 -0.185139
C8    C     C_R   0.986288 0.343007 0.159263 -0.178882
C9    C     C_R   0.237539 0.453649 0.824623 -0.239444
C10   C     C_R   0.753376 0.510630 0.174212 -0.238502
C11   C     C_R   0.289399 0.476914 0.923535 0.084217
C12   C     C_R   0.955186 0.205596 0.502272 0.948076
C13   C     C_R   0.674277 0.442102 0.086854 0.097655
C14   C     C_R   0.190070 0.568040 0.985726 0.175160
C15   C     C_R   0.763219 0.333112 0.030326 0.166069
C16   C     C_R   0.444163 0.422443 0.960106 0.059314
C17   C     C_R   0.508861 0.478363 0.055214 0.064154
C18   C     C_R   0.404120 0.564517 0.116721 -0.207101
C19   C     C_R   0.536219 0.314220 0.904892 -0.210597
C20   C     C_R   0.246944 0.607402 0.082407 -0.223249
C21   C     C_R   0.692472 0.269741 0.940040 -0.216431
C22   C     C_2   0.068083 0.958108 0.496222 -0.364019
C23   C     C_2   0.931878 0.041877 0.503623 -0.361278
C24   C     C_R   0.062834 0.510774 0.682117 0.856032
Cl1   Cl    Cl    0.502665 0.304738 0.398422 -0.520227
Cl2   Cl    Cl    0.497292 0.695804 0.601147 -0.520629
H1    H     H_    0.171073 0.674441 0.131364 0.152452
H2    H     H_    0.487702 0.256496 0.835688 0.157262
H3    H     H_    0.196589 0.009095 0.489103 0.216122
H4    H     H_    0.803370 0.990890 0.510734 0.216099
H5    H     H_    0.758061 0.185166 0.896321 0.154390
H6    H     H_    0.699452 0.604607 0.215917 0.150267
H7    H     H_    0.314766 0.395259 0.773124 0.166780
H8    H     H_    0.100458 0.297089 0.189730 0.178422
H9    H     H_    0.872659 0.644222 0.822652 0.177309
H10   H     H_    0.957893 0.688044 0.997316 0.143769
H11   H     H_    0.988350 0.201629 0.024155 0.143080
H12   H     H_    0.437709 0.596706 0.192963 0.171193
N1    N     N_2   0.440860 0.456490 0.474790 0.136688
N2    N     N_2   0.559140 0.543510 0.525210 0.138315
O1    O     O_R   0.891570 0.738930 0.506190 -0.598774
O2    O     O_R   0.108430 0.261070 0.493810 -0.599778
O3    O     O_R   0.174650 0.711050 0.490030 -0.576362
O4    O     O_R   0.825350 0.288950 0.509970 -0.575897
O5    O     O_R   0.909850 0.521900 0.644940 -0.610537
O6    O     O_R   0.090150 0.478100 0.355060 -0.614789
O7    O     O_R   0.192930 0.494020 0.628780 -0.580412
O8    O     O_R   0.807070 0.505980 0.371220 -0.575412
Zn1   Zn    Zn3+2 0.810990 0.518620 0.510790 1.074609
Zn2   Zn    Zn3+2 0.189010 0.481380 0.489210 1.069929

loop_
_geom_bond_atom_site_label_1
_geom_bond_atom_site_label_2
_ccdc_geom_bond_type
O4    Zn1   S    
C2    C4    S    
C23   H4    S    
O3    Zn2   S    
C3    C9    A    
C22   H3    S    
O5    Zn1   S    
C9    C11   A    
C11   C16   A    
O6    Zn2   S    
C18   C20   A    
C13   C17   A    
C4    C8    A    
C2    O8    A    
C17   C18   A    
C5    C14   A    
C6    H11   S    
C1    C22   S    
C12   O4    A    
C8    H8    S    
C2    O6    A    
C9    H7    S    
C19   H2    S    
C21   H5    S    
C12   C23   S    
Cl2   N2    S    
C3    C24   S    
O2    Zn2   S    
C16   C19   A    
C6    C8    A    
C24   O5    A    
O1    Zn1   S    
O8    Zn1   S    
C20   H1    S    
O7    Zn2   S    
C3    C7    A    
C13   C15   A    
C18   H12   S    
C11   C14   A    
C4    C10   A    
N2    Zn1   S    
C5    H10   S    
C10   H6    S    
C15   C21   A    
N1    Zn2   S    
C14   C20   A    
C1    O1    A    
N1    N2    D    
C5    C7    A    
C22   C23   D    
C12   O2    A    
C19   C21   A    
C6    C15   A    
C24   O7    A    
C7    H9    S    
C1    O3    A    
Cl1   N1    S    
C16   C17   A    
C10   C13   A    
