data_mof_unit_31151.cif
_audit_creation_date              2012-12-10T19:52:00-0500
_audit_creation_method            fapswitch 2.2
_symmetry_space_group_name_H-M    P1
_symmetry_Int_Tables_number       1
_space_group_crystal_system       triclinic
_cell_length_a                    25.930331
_cell_length_b                    25.969227
_cell_length_c                    22.167577
_cell_angle_alpha                 89.966011
_cell_angle_beta                  125.625699
_cell_angle_gamma                 90.058159
_cell_volume                      12133.6070759

loop_
_atom_site_label
_atom_site_type_symbol
_atom_type_description
_atom_site_fract_x
_atom_site_fract_y
_atom_site_fract_z
_atom_type_partial_charge
C1    C     C_R   0.650325 0.750073 0.300607 0.499428
C2    C     C_3   0.519496 0.797708 0.023310 0.272552
C3    C     C_R   0.280324 0.525940 0.480918 -0.020172
C4    C     C_R   0.743893 0.945455 0.495898 0.006688
C5    C     C_R   0.743908 0.054559 0.495911 0.006885
C6    C     C_R   0.244126 0.445448 0.496112 0.006823
C7    C     C_R   0.244220 0.554542 0.496263 0.006605
C8    C     C_R   0.704316 0.972541 0.510224 -0.048360
C9    C     C_R   0.704335 0.027387 0.510247 -0.048266
C10   C     C_R   0.204297 0.472523 0.510051 -0.048066
C11   C     C_R   0.204341 0.527364 0.510119 -0.047916
C12   C     C_3   0.824133 0.029988 0.457808 -0.117168
C13   C     C_3   0.018542 0.701449 0.023285 0.265799
C14   C     C_3   0.824462 0.970050 0.458401 -0.117433
C15   C     C_3   0.324848 0.529993 0.458741 -0.117909
C16   C     C_3   0.324835 0.470032 0.458802 -0.117846
C17   C     C_R   0.610092 0.749849 0.500263 0.516250
C18   C     C_R   0.610090 0.250083 0.500243 0.509627
C19   C     C_R   0.110000 0.249989 0.500094 0.530082
C20   C     C_R   0.110085 0.750094 0.500257 0.509871
C21   C     C_R   0.748490 0.889923 0.498849 0.510204
C22   C     C_R   0.748485 0.110083 0.498862 0.509985
C23   C     C_R   0.248524 0.389918 0.498871 0.509004
C24   C     C_3   0.019658 0.298252 0.023192 0.272818
C25   C     C_R   0.248492 0.610083 0.498875 0.508188
C26   C     C_R   0.749568 0.609807 0.500375 0.503893
C27   C     C_R   0.749729 0.390178 0.500173 0.497378
C28   C     C_R   0.249802 0.109829 0.501136 0.517056
C29   C     C_R   0.249970 0.890144 0.499836 0.500026
C30   C     C_R   0.690268 0.526493 0.464044 0.035996
C31   C     C_R   0.690863 0.473228 0.463158 0.000589
C32   C     C_R   0.194188 0.026196 0.480879 0.035683
C33   C     C_R   0.193856 0.973182 0.476824 0.013860
C34   C     C_R   0.747755 0.554051 0.505193 -0.003157
C35   C     C_3   0.947283 0.714908 0.973642 0.199084
C36   C     C_R   0.748221 0.445914 0.504751 -0.009247
C37   C     C_R   0.249859 0.054076 0.507581 0.001297
C38   C     C_R   0.249830 0.945890 0.503957 -0.004472
C39   C     C_R   0.804271 0.526889 0.554689 -0.142534
C40   C     C_R   0.804465 0.473229 0.554624 -0.140457
C41   C     C_R   0.307496 0.026909 0.543755 -0.143567
C42   C     C_R   0.307501 0.973177 0.542432 -0.142192
C43   C     C_R   0.351654 0.703903 0.316931 0.058401
C44   C     C_R   0.343017 0.745897 0.271595 -0.100522
C45   C     C_R   0.283274 0.756012 0.206242 -0.137846
C46   C     C_3   0.948123 0.285869 0.973528 0.190110
C47   C     C_R   0.231545 0.724883 0.185951 -0.088455
C48   C     C_R   0.239567 0.683425 0.230842 -0.054037
C49   C     C_R   0.299291 0.672767 0.295728 -0.051258
C50   C     C_R   0.351145 0.293957 0.315837 0.057546
C51   C     C_R   0.342137 0.251055 0.271735 -0.101164
C52   C     C_R   0.282200 0.240410 0.206943 -0.137664
C53   C     C_R   0.230675 0.271945 0.186011 -0.088749
C54   C     C_R   0.239059 0.314246 0.229780 -0.053416
C55   C     C_R   0.298956 0.325414 0.294075 -0.051043
C56   C     C_R   0.849758 0.209552 0.314174 0.055182
C57   C     C_3   0.449023 0.213879 0.973496 0.237459
C58   C     C_R   0.841177 0.252924 0.270974 -0.101568
C59   C     C_R   0.781393 0.263997 0.206228 -0.136846
C60   C     C_R   0.729616 0.232472 0.184583 -0.090448
C61   C     C_R   0.737568 0.189804 0.227601 -0.054903
C62   C     C_R   0.797302 0.178169 0.291745 -0.053321
C63   C     C_R   0.851174 0.793934 0.315746 0.056501
C64   C     C_R   0.842639 0.751592 0.271016 -0.101301
C65   C     C_R   0.782895 0.741084 0.205834 -0.136222
C66   C     C_R   0.731076 0.772132 0.185207 -0.089813
C67   C     C_R   0.738993 0.813859 0.229604 -0.055062
C68   C     C_3   0.447975 0.785213 0.973643 0.186573
C69   C     C_R   0.798708 0.824942 0.294233 -0.052077
C70   C     C_R   0.658957 0.944396 0.518503 0.056895
C71   C     C_R   0.672439 0.936605 0.589034 -0.058234
C72   C     C_R   0.628818 0.910964 0.596204 -0.080963
C73   C     C_R   0.571725 0.892921 0.533141 -0.087961
C74   C     C_R   0.558496 0.899875 0.462883 -0.111309
C75   C     C_R   0.601939 0.925578 0.455465 -0.085919
C76   C     C_R   0.659027 0.055477 0.518581 0.056500
C77   C     C_R   0.602225 0.074612 0.455621 -0.085386
C78   C     C_R   0.558987 0.100505 0.463124 -0.109555
C79   C     C_1   0.888197 0.749727 0.778512 0.080419
C80   C     C_R   0.572204 0.107338 0.533389 -0.087525
C81   C     C_R   0.629059 0.088932 0.596371 -0.080769
C82   C     C_R   0.672477 0.063104 0.589117 -0.057826
C83   C     C_R   0.158610 0.444327 0.517730 0.056996
C84   C     C_R   0.171375 0.436783 0.587954 -0.058479
C85   C     C_R   0.127668 0.410747 0.594596 -0.080887
C86   C     C_R   0.071206 0.392047 0.531314 -0.087354
C87   C     C_R   0.058666 0.398810 0.461364 -0.111598
C88   C     C_R   0.102193 0.424910 0.454472 -0.086028
C89   C     C_R   0.158645 0.555451 0.517779 0.056672
C90   C     C_1   0.888207 0.250262 0.778514 0.088788
C91   C     C_R   0.101917 0.574320 0.454433 -0.085554
C92   C     C_R   0.058357 0.600283 0.461305 -0.109553
C93   C     C_R   0.071178 0.607453 0.531323 -0.087071
C94   C     C_R   0.127949 0.589298 0.594684 -0.081276
C95   C     C_R   0.171686 0.563395 0.588060 -0.058132
C96   C     C_R   0.887221 0.056445 0.513052 0.046520
C97   C     C_R   0.907049 0.070958 0.584897 -0.071448
C98   C     C_R   0.964376 0.097193 0.632124 -0.079929
C99   C     C_R   0.002621 0.108986 0.608604 -0.070597
C100  C     C_R   0.983936 0.094114 0.538043 -0.090857
C101  C     C_1   0.388291 0.249962 0.778484 0.081384
C102  C     C_R   0.926645 0.067918 0.490560 -0.090240
C103  C     C_R   0.887648 0.944245 0.515000 0.047653
C104  C     C_R   0.927632 0.932050 0.493607 -0.089567
C105  C     C_R   0.984962 0.906305 0.542389 -0.092844
C106  C     C_R   0.003202 0.892699 0.613206 -0.063872
C107  C     C_R   0.964458 0.905317 0.635698 -0.077426
C108  C     C_R   0.907065 0.931062 0.587162 -0.070772
C109  C     C_R   0.388229 0.556098 0.513920 0.048369
C110  C     C_R   0.406802 0.573480 0.584204 -0.069975
C111  C     C_R   0.464496 0.599287 0.631209 -0.080409
C112  C     C_R   0.650329 0.249935 0.300619 0.502976
C113  C     C_1   0.388232 0.750127 0.778528 0.090326
C114  C     C_R   0.504427 0.607710 0.609108 -0.075734
C115  C     C_R   0.487017 0.589933 0.540183 -0.108375
C116  C     C_R   0.429236 0.564356 0.492800 -0.097443
C117  C     C_R   0.387993 0.443909 0.514695 0.049987
C118  C     C_R   0.427884 0.432482 0.492895 -0.094784
C119  C     C_R   0.485446 0.406889 0.541169 -0.105253
C120  C     C_R   0.503826 0.392400 0.611757 -0.066318
C121  C     C_R   0.465064 0.404071 0.634559 -0.075614
C122  C     C_R   0.407553 0.429824 0.586612 -0.068910
C123  C     C_R   0.414563 0.270778 0.046171 0.086205
C124  C     C_1   0.609691 0.248789 0.221391 0.014455
C125  C     C_R   0.351912 0.286397 0.991794 0.011562
C126  C     C_R   0.309921 0.296455 0.010540 -0.080644
C127  C     C_R   0.329833 0.290705 0.083775 -0.094060
C128  C     C_R   0.391641 0.274562 0.138178 -0.091797
C129  C     C_R   0.433756 0.264453 0.119592 -0.051823
C130  C     C_R   0.415143 0.725975 0.046219 0.056326
C131  C     C_R   0.352704 0.709950 0.991603 0.005764
C132  C     C_R   0.310943 0.698363 0.010244 -0.080970
C133  C     C_R   0.330897 0.702909 0.083637 -0.094208
C134  C     C_R   0.392539 0.719305 0.138327 -0.102156
C135  C     C_1   0.609689 0.751267 0.221403 0.009934
C136  C     C_R   0.434416 0.730954 0.119843 -0.090497
C137  C     C_R   0.915780 0.774749 0.046452 0.086364
C138  C     C_R   0.853881 0.792068 0.992271 0.016035
C139  C     C_R   0.812236 0.803660 0.011052 -0.076785
C140  C     C_R   0.831708 0.797705 0.084097 -0.091636
C141  C     C_R   0.892729 0.779870 0.138276 -0.091734
C142  C     C_R   0.934499 0.768241 0.119661 -0.056609
C143  C     C_R   0.915042 0.227632 0.046312 0.054055
C144  C     C_R   0.852964 0.210538 0.992271 0.014710
C145  C     C_R   0.810994 0.200173 0.010996 -0.074383
C146  C     C_1   0.109682 0.748605 0.221406 0.014377
C147  C     C_R   0.830307 0.207193 0.083815 -0.095480
C148  C     C_R   0.891497 0.224866 0.137815 -0.112210
C149  C     C_R   0.933618 0.235217 0.119280 -0.098184
C150  C     C_R   0.590980 0.325493 0.055718 0.070441
C151  C     C_R   0.631847 0.328237 0.033612 -0.081600
C152  C     C_R   0.677915 0.366915 0.061673 -0.105346
C153  C     C_R   0.683574 0.403005 0.111955 -0.097792
C154  C     C_R   0.642993 0.400601 0.134061 -0.097628
C155  C     C_R   0.596763 0.362090 0.105964 -0.035159
C156  C     C_R   0.592996 0.676663 0.055695 0.070677
C157  C     C_1   0.109565 0.251484 0.221389 0.009174
C158  C     C_R   0.634058 0.675628 0.033784 -0.080787
C159  C     C_R   0.681173 0.637913 0.061766 -0.103428
C160  C     C_R   0.687719 0.601116 0.111819 -0.096952
C161  C     C_R   0.646979 0.601841 0.133765 -0.100182
C162  C     C_R   0.599696 0.639376 0.105732 -0.037610
C163  C     C_R   0.094710 0.821308 0.055414 0.070830
C164  C     C_R   0.135548 0.821217 0.033161 -0.081746
C165  C     C_R   0.183499 0.858221 0.060872 -0.106078
C166  C     C_R   0.191151 0.895398 0.111049 -0.098135
C167  C     C_R   0.150648 0.895791 0.133338 -0.099530
C168  C     C_3   0.030173 0.735558 0.974985 -0.164687
C169  C     C_R   0.102497 0.858995 0.105529 -0.036969
C170  C     C_R   0.093091 0.177255 0.055641 0.070505
C171  C     C_R   0.133161 0.175707 0.032336 -0.076251
C172  C     C_R   0.180512 0.138203 0.060362 -0.104614
C173  C     C_R   0.188312 0.102131 0.111875 -0.095067
C174  C     C_R   0.148589 0.103376 0.135236 -0.106470
C175  C     C_R   0.101068 0.140701 0.107157 -0.068834
C176  C     C_3   0.030519 0.263354 0.975004 -0.165046
C177  C     C_3   0.530899 0.238560 0.975025 -0.175479
C178  C     C_3   0.530476 0.762977 0.975079 -0.167373
C179  C     C_3   0.958824 0.749299 0.926034 -0.031378
C180  C     C_R   0.150294 0.250111 0.300599 0.500578
C181  C     C_3   0.958861 0.250682 0.926014 -0.027316
C182  C     C_3   0.458925 0.249932 0.925974 -0.038994
C183  C     C_3   0.458827 0.750220 0.926036 -0.030624
C184  C     C_3   0.540597 0.284453 0.025487 -0.052355
C185  C     C_3   0.541458 0.716604 0.025483 -0.047807
C186  C     C_3   0.042233 0.782185 0.025404 -0.049449
C187  C     C_3   0.041400 0.217061 0.025483 -0.049414
C188  C     C_3   0.531213 0.248295 0.073714 -0.060048
C189  C     C_3   0.531108 0.751692 0.073773 -0.058223
C190  C     C_3   0.031213 0.747757 0.073743 -0.056312
C191  C     C_R   0.150332 0.749912 0.300622 0.502483
C192  C     C_3   0.031138 0.252336 0.073727 -0.055539
C193  C     C_3   0.970934 0.795761 0.975771 0.236222
C194  C     C_3   0.969775 0.204523 0.975798 0.222699
C195  C     C_3   0.468683 0.295704 0.975717 0.234024
C196  C     C_3   0.469871 0.703978 0.975730 0.245796
C197  C     C_R   0.849573 0.750050 0.699334 0.517263
C198  C     C_R   0.849580 0.249952 0.699350 0.527733
C199  C     C_R   0.349583 0.250080 0.699323 0.518818
C200  C     C_R   0.349581 0.749938 0.699355 0.527510
C201  C     C_3   0.458848 0.259690 0.024074 -0.056772
C202  C     C_3   0.636082 0.469854 0.382760 0.133996
C203  C     C_3   0.459076 0.738910 0.024158 -0.068652
C204  C     C_3   0.959463 0.761469 0.024187 -0.057756
C205  C     C_3   0.959063 0.239687 0.024112 -0.070397
C206  C     C_1   0.920122 0.749595 0.845112 0.072519
C207  C     C_1   0.920144 0.250383 0.845107 0.072437
C208  C     C_1   0.420231 0.250064 0.845074 0.072850
C209  C     C_1   0.420138 0.750078 0.845124 0.073744
C210  C     C_1   0.574617 0.248063 0.154760 -0.024332
C211  C     C_1   0.574575 0.751997 0.154787 -0.027286
C212  C     C_1   0.074619 0.747689 0.154784 -0.022388
C213  C     C_3   0.634848 0.529363 0.383571 0.121770
C214  C     C_1   0.074483 0.252437 0.154770 -0.026293
C215  C     C_R   0.494851 0.739153 0.437306 -0.041542
C216  C     C_R   0.494727 0.259734 0.436910 -0.040756
C217  C     C_R   0.994254 0.241967 0.436207 -0.037824
C218  C     C_R   0.994686 0.759725 0.436916 -0.041038
C219  C     C_R   0.554748 0.750451 0.500961 -0.020649
C220  C     C_R   0.554743 0.249355 0.500908 -0.022705
C221  C     C_R   0.054575 0.250864 0.500651 -0.013641
C222  C     C_R   0.054719 0.749362 0.500926 -0.020776
C223  C     C_R   0.560932 0.764721 0.565833 -0.142948
C224  C     C_3   0.129759 0.972460 0.403620 0.143587
C225  C     C_R   0.561081 0.236119 0.566216 -0.146188
C226  C     C_R   0.061200 0.263163 0.566393 -0.140309
C227  C     C_R   0.061060 0.736101 0.566222 -0.144936
C228  C     C_R   0.508801 0.762912 0.569364 0.219428
C229  C     C_R   0.508923 0.238228 0.569699 0.216391
C230  C     C_R   0.008989 0.261261 0.569809 0.219417
C231  C     C_R   0.008892 0.738158 0.569679 0.216744
C232  C     C_R   0.448366 0.748867 0.504662 0.008081
C233  C     C_R   0.448382 0.251449 0.504652 0.010405
C234  C     C_R   0.948229 0.248952 0.504414 0.006524
C235  C     C_3   0.128242 0.031357 0.412187 0.131746
C236  C     C_R   0.948324 0.751263 0.504583 0.009632
C237  C     C_R   0.442548 0.738887 0.439122 -0.037171
C238  C     C_R   0.442477 0.260387 0.438818 -0.039842
C239  C     C_R   0.942040 0.241242 0.438216 -0.036180
C240  C     C_R   0.942356 0.760165 0.438719 -0.040042
C241  C     C_3   0.414914 0.692793 0.389591 -0.121911
C242  C     C_3   0.414615 0.305763 0.387849 -0.119694
C243  C     C_3   0.913165 0.196809 0.385603 -0.115027
C244  C     C_3   0.914445 0.805669 0.388053 -0.121188
C245  C     C_R   0.891154 0.751243 0.502188 0.553054
C246  C     C_3   0.520865 0.202731 0.023180 0.278494
C247  C     C_R   0.891128 0.248822 0.502141 0.547188
C248  C     C_R   0.391170 0.251280 0.502205 0.552417
C249  C     C_R   0.391177 0.748789 0.502235 0.544894
C250  C     C_3   0.472480 0.693237 0.387326 -0.213896
C251  C     C_3   0.471915 0.304589 0.385035 -0.215766
C252  C     C_3   0.970165 0.198277 0.382331 -0.237229
C253  C     C_3   0.971924 0.804926 0.385676 -0.214799
C254  C     C_R   0.779398 0.974161 0.479716 -0.020242
C255  C     C_R   0.779413 0.025951 0.479700 -0.019992
C256  C     C_R   0.280152 0.474145 0.480686 -0.019803
H1    H     H_    0.848978 0.546899 0.590838 0.171720
H2    H     H_    0.414077 0.340513 0.416661 0.130862
H3    H     H_    0.006209 0.087634 0.326177 0.330718
H4    H     H_    0.921052 0.617833 0.028413 0.386641
H5    H     H_    0.897233 0.343070 0.040461 0.332017
H6    H     H_    0.363210 0.106242 0.983184 0.377167
H7    H     H_    0.397009 0.841561 0.040877 0.331004
H8    H     H_    0.536596 0.063703 0.009600 0.376202
H9    H     H_    0.532111 0.937084 0.008898 0.377810
H10   H     H_    0.030119 0.561714 0.010675 0.378290
H11   H     H_    0.032298 0.437565 0.008531 0.376897
H12   H     H_    0.335230 0.290428 0.934585 0.192023
H13   H     H_    0.912328 0.161469 0.413331 0.130992
H14   H     H_    0.261835 0.308534 0.968163 0.145443
H15   H     H_    0.297289 0.298445 0.098254 0.138391
H16   H     H_    0.406892 0.269566 0.194797 0.111958
H17   H     H_    0.480524 0.250987 0.162775 0.126980
H18   H     H_    0.336007 0.706800 0.934290 0.193747
H19   H     H_    0.262999 0.686037 0.967667 0.147106
H20   H     H_    0.298527 0.694015 0.098044 0.139953
H21   H     H_    0.407840 0.723297 0.195099 0.114724
H22   H     H_    0.481048 0.744538 0.163292 0.125112
H23   H     H_    0.837465 0.796164 0.935169 0.190870
H24   H     H_    0.913619 0.840216 0.416996 0.129216
H25   H     H_    0.764723 0.817020 0.968825 0.145762
H26   H     H_    0.799405 0.806542 0.098602 0.138931
H27   H     H_    0.907587 0.774671 0.194712 0.112028
H28   H     H_    0.980541 0.753352 0.162598 0.123937
H29   H     H_    0.836637 0.205757 0.935288 0.193864
H30   H     H_    0.763339 0.186983 0.968882 0.148617
H31   H     H_    0.797742 0.199342 0.098264 0.140105
H32   H     H_    0.906193 0.230973 0.194023 0.108748
H33   H     H_    0.979790 0.250083 0.162007 0.123790
H34   H     H_    0.930394 0.928356 0.988037 0.385846
H35   H     H_    0.503597 0.659194 0.415261 0.197910
H36   H     H_    0.976491 0.084788 0.029881 0.356486
H37   H     H_    0.421834 0.425958 0.987835 0.380760
H38   H     H_    0.426716 0.572195 0.987881 0.380316
H39   H     H_    0.628257 0.300724 0.994730 0.117211
H40   H     H_    0.709368 0.368818 0.044571 0.132851
H41   H     H_    0.719330 0.432861 0.133698 0.115248
H42   H     H_    0.647289 0.428624 0.172885 0.111836
H43   H     H_    0.565498 0.360748 0.123398 0.158387
H44   H     H_    0.629802 0.703717 0.995089 0.120989
H45   H     H_    0.712756 0.637315 0.044794 0.140647
H46   H     H_    0.502973 0.338944 0.411183 0.189483
H47   H     H_    0.724292 0.572016 0.133512 0.116529
H48   H     H_    0.651965 0.573270 0.172413 0.107096
H49   H     H_    0.568326 0.639422 0.123048 0.150447
H50   H     H_    0.130468 0.792818 0.994377 0.116600
H51   H     H_    0.214894 0.857952 0.043626 0.132541
H52   H     H_    0.228395 0.923927 0.132571 0.116022
H53   H     H_    0.156485 0.924667 0.172069 0.110149
H54   H     H_    0.071297 0.859836 0.123070 0.154245
H55   H     H_    0.127927 0.203206 0.992471 0.118977
H56   H     H_    0.211312 0.137212 0.042298 0.130832
H57   H     H_    0.000165 0.163422 0.406680 0.206202
H58   H     H_    0.225080 0.073201 0.133622 0.115222
H59   H     H_    0.154566 0.075382 0.175047 0.106693
H60   H     H_    0.070563 0.141193 0.125672 0.123146
H61   H     H_    0.002801 0.839206 0.412688 0.207364
H62   H     H_    0.462299 0.702535 0.332439 0.150093
H63   H     H_    0.461432 0.293873 0.330423 0.151609
H64   H     H_    0.959721 0.210149 0.328121 0.127816
H65   H     H_    0.849234 0.453380 0.590892 0.169487
H66   H     H_    0.961794 0.794833 0.331053 0.150300
H67   H     H_    0.799324 0.046364 0.400947 0.125934
H68   H     H_    0.800227 0.953073 0.401966 0.125095
H69   H     H_    0.300042 0.546586 0.402009 0.125302
H70   H     H_    0.300192 0.453320 0.402162 0.125227
H71   H     H_    0.651043 0.454828 0.348190 0.065654
H72   H     H_    0.648653 0.546735 0.349019 0.045151
H73   H     H_    0.133582 0.962385 0.357581 0.069923
H74   H     H_    0.126269 0.053407 0.367886 0.061969
H75   H     H_    0.058113 0.723829 0.953896 0.152663
H76   H     H_    0.352289 0.046970 0.569455 0.166563
H77   H     H_    0.058821 0.274240 0.954035 0.150442
H78   H     H_    0.559522 0.228794 0.954110 0.152619
H79   H     H_    0.558800 0.773960 0.954174 0.152160
H80   H     H_    0.498397 0.832685 0.704242 0.376228
H81   H     H_    0.491017 0.264855 0.718481 0.366424
H82   H     H_    0.000784 0.327926 0.708310 0.375219
H83   H     H_    0.990992 0.765069 0.718397 0.366714
H84   H     H_    0.382262 0.770996 0.286942 0.107312
H85   H     H_    0.277120 0.788161 0.171589 0.119012
H86   H     H_    0.185229 0.732975 0.135685 0.149470
H87   H     H_    0.352359 0.953300 0.568042 0.165902
H88   H     H_    0.199432 0.659758 0.216003 0.189846
H89   H     H_    0.304400 0.640674 0.330076 0.110776
H90   H     H_    0.381245 0.225679 0.287613 0.108211
H91   H     H_    0.275733 0.207563 0.173202 0.120922
H92   H     H_    0.184232 0.263522 0.136136 0.147821
H93   H     H_    0.199071 0.338177 0.214571 0.188790
H94   H     H_    0.304341 0.358183 0.327541 0.110060
H95   H     H_    0.880523 0.278241 0.287406 0.108480
H96   H     H_    0.775233 0.297155 0.173079 0.119742
H97   H     H_    0.683301 0.241157 0.134740 0.145828
H98   H     H_    0.607270 0.774754 0.614958 0.188833
H99   H     H_    0.697384 0.165911 0.211913 0.190804
H100  H     H_    0.802372 0.145030 0.324516 0.112102
H101  H     H_    0.881968 0.726562 0.286666 0.109284
H102  H     H_    0.776793 0.708690 0.171588 0.122254
H103  H     H_    0.684762 0.763777 0.135083 0.147403
H104  H     H_    0.698790 0.837413 0.214612 0.189162
H105  H     H_    0.803732 0.857280 0.328148 0.111138
H106  H     H_    0.716567 0.950406 0.638203 0.122421
H107  H     H_    0.639176 0.905193 0.650604 0.148047
H108  H     H_    0.537746 0.873533 0.538705 0.140266
H109  H     H_    0.607522 0.226765 0.615659 0.187850
H110  H     H_    0.514460 0.885545 0.414175 0.108527
H111  H     H_    0.591087 0.931133 0.400756 0.110390
H112  H     H_    0.591414 0.069212 0.400913 0.110913
H113  H     H_    0.515138 0.115113 0.414480 0.108896
H114  H     H_    0.538411 0.126927 0.539023 0.134310
H115  H     H_    0.639412 0.094602 0.650778 0.148145
H116  H     H_    0.716459 0.049086 0.638235 0.123132
H117  H     H_    0.215067 0.450996 0.637309 0.120838
H118  H     H_    0.137504 0.405128 0.648765 0.146674
H119  H     H_    0.037202 0.372271 0.536472 0.137994
H120  H     H_    0.107847 0.271652 0.616106 0.188444
H121  H     H_    0.015127 0.383971 0.412491 0.107720
H122  H     H_    0.091917 0.430227 0.400003 0.109876
H123  H     H_    0.091423 0.568676 0.399916 0.110733
H124  H     H_    0.014571 0.614692 0.412364 0.109238
H125  H     H_    0.037144 0.627112 0.536468 0.133760
H126  H     H_    0.137995 0.595229 0.648898 0.146521
H127  H     H_    0.215607 0.549585 0.637467 0.121268
H128  H     H_    0.878645 0.062191 0.604850 0.116118
H129  H     H_    0.979088 0.108521 0.687002 0.155711
H130  H     H_    0.046760 0.129606 0.645081 0.167184
H131  H     H_    0.107512 0.726794 0.615678 0.187834
H132  H     H_    0.013568 0.103319 0.519835 0.180649
H133  H     H_    0.912600 0.057050 0.435743 0.138017
H134  H     H_    0.913963 0.941938 0.438628 0.132864
H135  H     H_    0.014936 0.896407 0.524971 0.171162
H136  H     H_    0.047377 0.872418 0.650669 0.165511
H137  H     H_    0.978811 0.894982 0.690773 0.147955
H138  H     H_    0.878282 0.940468 0.606378 0.115497
H139  H     H_    0.377182 0.567317 0.603174 0.115648
H140  H     H_    0.478218 0.612850 0.684840 0.156306
H141  H     H_    0.548894 0.627942 0.645439 0.161798
H142  H     H_    0.414174 0.658672 0.419337 0.132056
H143  H     H_    0.517999 0.596422 0.523087 0.151188
H144  H     H_    0.416088 0.551378 0.439120 0.129828
H145  H     H_    0.414054 0.443015 0.438050 0.126175
H146  H     H_    0.515540 0.397877 0.523556 0.142244
H147  H     H_    0.548142 0.372199 0.648826 0.161796
H148  H     H_    0.479541 0.393055 0.689462 0.147500
H149  H     H_    0.378809 0.438548 0.606098 0.115308
H150  H     H_    0.604154 0.409353 0.479928 0.337104
H151  H     H_    0.516560 0.567465 0.250011 0.335586
H152  H     H_    0.125562 0.890717 0.507403 0.346675
O1    O     O_3   0.749980 0.749980 0.500000 -0.462632
O2    O     O_R   0.612630 0.280380 0.456900 -0.522475
O3    O     O_3   0.011904 0.403983 0.986044 -0.421299
O4    O     O_2   0.980626 0.884808 0.921040 -0.255134
O5    O     O_2   0.873459 0.856590 0.875329 -0.284024
O6    O     O_3   0.945742 0.893546 0.009440 -0.530653
O7    O     O_2   0.871140 0.145119 0.873666 -0.252776
O8    O     O_2   0.977550 0.114264 0.921801 -0.266359
O9    O     O_3   0.939238 0.107859 0.007422 -0.508367
O10   O     O_2   0.474112 0.386403 0.920995 -0.255113
O11   O     O_2   0.368365 0.354164 0.875126 -0.286294
O12   O     O_3   0.438719 0.391387 0.009221 -0.526507
O13   O     O_R   0.112630 0.219620 0.456900 -0.505854
O14   O     O_2   0.370984 0.644158 0.875353 -0.286140
O15   O     O_2   0.477437 0.614359 0.920581 -0.252721
O16   O     O_3   0.442753 0.606907 0.009320 -0.531262
O17   O     O_R   0.112630 0.780380 0.456900 -0.521045
O18   O     O_R   0.698160 0.780350 0.335610 -0.543596
O19   O     O_R   0.698160 0.219650 0.335610 -0.545051
O20   O     O_R   0.198160 0.280350 0.335610 -0.540749
O21   O     O_R   0.198160 0.719650 0.335610 -0.543051
O22   O     O_R   0.801810 0.780340 0.664390 -0.521397
O23   O     O_R   0.801810 0.219660 0.664390 -0.523551
O24   O     O_R   0.301810 0.280340 0.664390 -0.521531
O25   O     O_3   0.749980 0.250020 0.500000 -0.461280
O26   O     O_R   0.301810 0.719660 0.664390 -0.524482
O27   O     O_R   0.637440 0.719620 0.335610 -0.531112
O28   O     O_R   0.637440 0.280380 0.335610 -0.513135
O29   O     O_R   0.137440 0.219620 0.335610 -0.551375
O30   O     O_R   0.137440 0.780380 0.335610 -0.521579
O31   O     O_R   0.862520 0.719620 0.664390 -0.510423
O32   O     O_R   0.862520 0.280380 0.664390 -0.514171
O33   O     O_R   0.362520 0.219620 0.664390 -0.507671
O34   O     O_R   0.362520 0.780380 0.664390 -0.512272
O35   O     O_R   0.844240 0.780350 0.456900 -0.558618
O36   O     O_3   0.249980 0.249980 0.500000 -0.459968
O37   O     O_R   0.844240 0.219650 0.456900 -0.559015
O38   O     O_R   0.344240 0.280350 0.456900 -0.557926
O39   O     O_R   0.344240 0.719650 0.456900 -0.558824
O40   O     O_R   0.655730 0.780340 0.543100 -0.543474
O41   O     O_R   0.655730 0.219660 0.543100 -0.541393
O42   O     O_R   0.155730 0.280340 0.543100 -0.543310
O43   O     O_R   0.155730 0.719660 0.543100 -0.541494
O44   O     O_R   0.758800 0.865790 0.456890 -0.544425
O45   O     O_R   0.758800 0.134210 0.456890 -0.543938
O46   O     O_R   0.258800 0.365790 0.456890 -0.544531
O47   O     O_3   0.249980 0.750020 0.500000 -0.461112
O48   O     O_R   0.258800 0.634210 0.456890 -0.544872
O49   O     O_R   0.698070 0.634180 0.456910 -0.494370
O50   O     O_R   0.698070 0.365820 0.456910 -0.508920
O51   O     O_R   0.198070 0.134180 0.456910 -0.513003
O52   O     O_R   0.198070 0.865820 0.456910 -0.514921
O53   O     O_R   0.741170 0.865780 0.543090 -0.534000
O54   O     O_R   0.741170 0.134220 0.543090 -0.533088
O55   O     O_R   0.241170 0.365780 0.543090 -0.534605
O56   O     O_R   0.241170 0.634220 0.543090 -0.533434
O57   O     O_R   0.801880 0.634180 0.543110 -0.542782
O58   O     O_R   0.887330 0.719620 0.543100 -0.467567
O59   O     O_R   0.801880 0.365820 0.543110 -0.542680
O60   O     O_R   0.301880 0.134180 0.543110 -0.537687
O61   O     O_R   0.301880 0.865820 0.543110 -0.539942
O62   O     O_2   0.489787 0.732703 0.670975 -0.297036
O63   O     O_2   0.593172 0.770863 0.718091 -0.270740
O64   O     O_3   0.495941 0.831773 0.657956 -0.500007
O65   O     O_2   0.502184 0.176441 0.661503 -0.251324
O66   O     O_2   0.592996 0.235135 0.718666 -0.276185
O67   O     O_3   0.482943 0.273675 0.670185 -0.538484
O68   O     O_2   0.988235 0.228879 0.669176 -0.300761
O69   O     O_R   0.887330 0.280380 0.543100 -0.466175
O70   O     O_2   0.093193 0.264830 0.718892 -0.272951
O71   O     O_3   0.998355 0.328069 0.662028 -0.497718
O72   O     O_2   0.002149 0.676543 0.661637 -0.252002
O73   O     O_2   0.092977 0.735214 0.718658 -0.276550
O74   O     O_3   0.982935 0.773822 0.670091 -0.537819
O75   O     O_2   0.507984 0.453562 0.304482 -0.164886
O76   O     O_2   0.575282 0.378326 0.351902 -0.273118
O77   O     O_3   0.571693 0.434937 0.445774 -0.491599
O78   O     O_2   0.551261 0.540199 0.420194 -0.196558
O79   O     O_2   0.577718 0.617821 0.382014 -0.275992
O80   O     O_R   0.387330 0.219620 0.543100 -0.469126
O81   O     O_3   0.503173 0.553061 0.280278 -0.446458
O82   O     O_2   0.008295 0.956054 0.358754 -0.187322
O83   O     O_2   0.068338 0.881748 0.365865 -0.288694
O84   O     O_3   0.095652 0.920015 0.489638 -0.500548
O85   O     O_2   0.077445 0.024740 0.490940 -0.175489
O86   O     O_2   0.101329 0.110201 0.468978 -0.299827
O87   O     O_3   0.003024 0.063322 0.358324 -0.492290
O88   O     O_2   0.820978 0.699075 0.887888 -0.256041
O89   O     O_2   0.886410 0.630666 0.889993 -0.196448
O90   O     O_3   0.884767 0.641948 0.005717 -0.483033
O91   O     O_R   0.387330 0.780380 0.543100 -0.466197
O92   O     O_2   0.887194 0.366763 0.883140 -0.174010
O93   O     O_2   0.822495 0.305839 0.896230 -0.291777
O94   O     O_3   0.896010 0.368170 0.005996 -0.431542
O95   O     O_2   0.323976 0.192267 0.894786 -0.296643
O96   O     O_2   0.390812 0.131530 0.884957 -0.199431
O97   O     O_3   0.397949 0.131946 0.007166 -0.471959
O98   O     O_2   0.387380 0.866556 0.884108 -0.170398
O99   O     O_2   0.322276 0.805275 0.895914 -0.292002
O100  O     O_3   0.395610 0.866974 0.006619 -0.433361
O101  O     O_2   0.622961 0.143317 0.073340 -0.325412
O102  O     O_R   0.612630 0.719620 0.456900 -0.506111
O103  O     O_2   0.560260 0.125507 0.121726 -0.263435
O104  O     O_3   0.515055 0.096909 0.986984 -0.421551
O105  O     O_2   0.554750 0.875127 0.120599 -0.271235
O106  O     O_2   0.620491 0.859166 0.075822 -0.324581
O107  O     O_3   0.511677 0.903522 0.986365 -0.419877
O108  O     O_2   0.119063 0.639596 0.075960 -0.311221
O109  O     O_2   0.053855 0.624718 0.121674 -0.302532
O110  O     O_3   0.010015 0.595241 0.987606 -0.449244
O111  O     O_2   0.055135 0.375751 0.120394 -0.272954
O112  O     O_2   0.120720 0.359571 0.075458 -0.323070
S1    S     S_3+6 0.523273 0.773242 0.657223 0.016639
S2    S     S_3+6 0.885795 0.332348 0.936654 0.080141
S3    S     S_3+6 0.387701 0.166452 0.936763 0.067727
S4    S     S_3+6 0.385653 0.831693 0.936995 0.080002
S5    S     S_3+6 0.557157 0.140843 0.054301 0.052593
S6    S     S_3+6 0.553929 0.860197 0.054559 0.046400
S7    S     S_3+6 0.052627 0.638940 0.055126 0.015067
S8    S     S_3+6 0.054194 0.360709 0.054308 0.045319
S9    S     S_3+6 0.941264 0.859278 0.942223 0.006579
S10   S     S_3+6 0.938244 0.141415 0.941799 0.018936
S11   S     S_3+6 0.435968 0.358520 0.942094 0.005244
S12   S     S_3+6 0.523415 0.229502 0.657807 0.017795
S13   S     S_3+6 0.438795 0.640749 0.942070 0.008165
S14   S     S_3+6 0.023483 0.269335 0.658027 0.014737
S15   S     S_3+6 0.023393 0.729567 0.657815 0.017560
S16   S     S_3+6 0.570486 0.433330 0.369062 0.077133
S17   S     S_3+6 0.566195 0.561037 0.368748 0.068185
S18   S     S_3+6 0.072953 0.931819 0.402701 0.063760
S19   S     S_3+6 0.077528 0.057796 0.435374 0.052259
S20   S     S_3+6 0.882609 0.670606 0.936264 0.073623
Zn1   Zn    Zn3+2 0.824140 0.706600 0.561580 1.016115
Zn2   Zn    Zn3+2 0.737390 0.206640 0.561570 0.971112
Zn3   Zn    Zn3+2 0.237390 0.293360 0.561570 0.977009
Zn4   Zn    Zn3+2 0.237390 0.706640 0.561570 0.969396
Zn5   Zn    Zn3+2 0.675820 0.706600 0.438430 0.992225
Zn6   Zn    Zn3+2 0.675820 0.293400 0.438430 0.985264
Zn7   Zn    Zn3+2 0.175820 0.206600 0.438430 0.971010
Zn8   Zn    Zn3+2 0.175820 0.793400 0.438430 0.980375
Zn9   Zn    Zn3+2 0.824140 0.293400 0.561580 1.006732
Zn10  Zn    Zn3+2 0.324140 0.206600 0.561580 1.023180
Zn11  Zn    Zn3+2 0.324140 0.793400 0.561580 1.007364
Zn12  Zn    Zn3+2 0.762580 0.793360 0.438420 0.933354
Zn13  Zn    Zn3+2 0.762580 0.206640 0.438420 0.935294
Zn14  Zn    Zn3+2 0.262580 0.293360 0.438420 0.933464
Zn15  Zn    Zn3+2 0.262580 0.706640 0.438420 0.933800
Zn16  Zn    Zn3+2 0.737390 0.793360 0.561570 0.972872

loop_
_geom_bond_atom_site_label_1
_geom_bond_atom_site_label_2
_ccdc_geom_bond_type
C46   C205  S    
O25   Zn9   S    
C126  C127  A    
C96   C102  A    
C128  H16   S    
C15   C109  S    
C213  H72   S    
C135  C211  T    
C218  C240  A    
C202  S16   S    
C114  C115  A    
C191  O30   A    
C156  C185  S    
C189  C203  S    
H150  O77   S    
C176  C187  S    
C151  H39   S    
C242  C251  S    
C46   C181  S    
C181  C207  S    
C112  C124  S    
C169  H54   S    
O105  S6    D    
C106  C107  A    
C177  C182  S    
C240  C244  S    
C251  H46   S    
C180  O29   A    
C73   C74   A    
C192  C214  S    
C190  C212  S    
C110  C111  A    
O86   S19   D    
C186  C193  S    
C142  H28   S    
C188  C210  S    
O100  S4    S    
C44   H84   S    
C170  C187  S    
C231  C236  A    
C217  C252  S    
C248  O38   A    
C28   O60   A    
C75   H111  S    
C17   C219  S    
O13   Zn7   S    
C178  H79   S    
C83   C88   A    
O46   Zn14  S    
O69   Zn9   S    
C59   C60   A    
O112  S8    D    
C25   O48   A    
O25   Zn13  S    
O7    S10   D    
O63   S1    D    
O53   Zn16  S    
C104  C105  A    
C126  H14   S    
O16   S13   S    
O3    S8    S    
C45   C47   A    
C217  C221  A    
C85   H118  S    
C93   H125  S    
C68   S4    S    
C228  S1    S    
C139  H25   S    
C51   C52   A    
C95   H127  S    
C168  C186  S    
C177  H78   S    
C57   S3    S    
C120  H147  S    
C74   C75   A    
O17   Zn8   S    
C123  C201  S    
C144  C145  A    
O72   S15   D    
C186  C190  S    
C43   C44   A    
C234  C247  S    
C177  C246  S    
C183  C196  S    
C76   C77   A    
C181  C194  S    
C23   O46   A    
C154  C155  A    
C24   S8    S    
O111  S8    D    
C13   S7    S    
O1    Zn1   S    
C158  C159  A    
C56   C62   A    
C177  C184  S    
C91   C92   A    
C179  C193  S    
C153  H41   S    
C54   H93   S    
O66   S12   D    
C152  H40   S    
C134  H21   S    
O54   Zn2   S    
C43   C49   A    
C140  H26   S    
C72   C73   A    
C7    C25   S    
C139  C140  A    
C48   H88   S    
C195  C201  S    
C137  C204  S    
C184  C195  S    
C225  H109  S    
C20   O43   A    
C33   C38   A    
H7    O100  S    
C216  C238  A    
C156  C158  A    
C20   O17   A    
C24   C46   S    
C64   C65   A    
C30   C213  S    
C190  C204  S    
C61   H99   S    
C222  C227  A    
C55   H94   S    
O42   Zn3   S    
C67   H104  S    
C230  C234  A    
C182  C208  S    
C94   H126  S    
C160  H47   S    
O60   Zn10  S    
O9    S10   S    
O98   S4    D    
O61   Zn11  S    
C33   C224  S    
C236  C240  A    
C143  C149  A    
C241  H142  S    
C98   C99   A    
C148  H32   S    
C87   H121  S    
C31   C36   A    
C239  C243  S    
C67   C69   A    
C16   C117  S    
C143  C144  A    
H3    O87   S    
C18   O41   A    
C107  H137  S    
O65   S12   D    
C45   H85   S    
C137  C142  A    
C226  H120  S    
C198  O23   A    
C147  C148  A    
C4    C254  A    
C18   C220  S    
C128  C129  A    
C53   H92   S    
C27   O59   A    
C97   C98   A    
C121  H148  S    
H80   O64   S    
O96   S3    D    
O45   Zn13  S    
C85   C86   A    
O25   Zn6   S    
C62   H100  S    
C224  C235  S    
C13   C35   S    
C2    C68   S    
O5    S9    D    
C172  C173  A    
C78   C80   A    
O25   Zn2   S    
C170  C171  A    
O91   Zn11  S    
C115  C116  A    
C245  O35   A    
C4    C8    A    
C174  C175  A    
C92   C93   A    
C99   H130  S    
C63   C69   A    
O82   S18   D    
C29   C38   S    
C107  C108  A    
C215  C237  A    
C89   C91   A    
O102  Zn5   S    
O15   S13   D    
O14   S13   D    
C147  H31   S    
C66   C67   A    
C82   H116  S    
C127  H15   S    
C108  H138  S    
C1    O27   A    
O106  S6    D    
O90   S20   S    
C57   C182  S    
O18   Zn12  S    
C26   O57   A    
C35   C179  S    
O38   Zn14  S    
O57   Zn1   S    
C30   C34   A    
C34   C39   A    
O48   Zn15  S    
C76   C82   A    
C39   C40   A    
C42   H87   S    
C14   H68   S    
C13   C168  S    
C150  C184  S    
O26   Zn4   S    
C226  C230  A    
O2    Zn6   S    
C13   C190  S    
C247  O37   A    
O23   Zn2   S    
C136  H22   S    
C117  C122  A    
C122  H149  S    
C229  S12   S    
C5    C9    A    
C27   O50   A    
C11   C89   S    
O39   Zn15  S    
C83   C84   A    
C14   C254  S    
O36   Zn3   S    
C246  S5    S    
O73   S15   D    
C24   C192  S    
C32   C37   A    
C158  H44   S    
C187  C192  S    
O43   Zn4   S    
H34   O6    S    
C150  C155  A    
O68   S14   D    
C232  C237  A    
C173  H58   S    
O70   S14   D    
O89   S20   D    
C52   C53   A    
C21   O53   A    
C194  C205  S    
C54   C55   A    
C224  S18   S    
C216  C220  A    
C84   H117  S    
C176  H77   S    
C253  H61   S    
C101  C199  S    
C185  C189  S    
C86   H119  S    
H152  O84   S    
O104  S5    S    
C172  H56   S    
O77   S16   S    
C8    C70   S    
C200  O26   A    
C5    C255  A    
H9    O107  S    
C113  C209  T    
C71   C72   A    
C117  C118  A    
C14   C103  S    
C124  C210  T    
C28   C37   S    
C216  C251  S    
C63   C244  S    
C171  H55   S    
C245  O58   A    
O22   Zn16  S    
O27   Zn5   S    
O74   S15   S    
C37   C41   A    
C61   C62   A    
C146  C191  S    
C12   H67   S    
C115  H143  S    
O64   S1    S    
O1    Zn5   S    
C163  C164  A    
C10   C11   A    
O80   Zn10  S    
C63   C64   A    
O8    S10   D    
C152  C153  A    
C154  H42   S    
C57   C201  S    
C70   C75   A    
C133  H20   S    
C69   H105  S    
C150  C151  A    
C162  H49   S    
C232  C249  S    
C2    C178  S    
O30   Zn8   S    
C1    C135  S    
C32   C235  S    
O36   Zn10  S    
C130  C203  S    
O40   Zn16  S    
C77   H112  S    
O81   S17   S    
C87   C88   A    
C242  H2    S    
C41   C42   A    
C129  H17   S    
C72   H107  S    
H5    O94   S    
C58   H95   S    
C81   H115  S    
C161  C162  A    
C77   C78   A    
O76   S16   D    
O78   S17   D    
C157  C214  T    
C93   C94   A    
C199  O33   A    
C163  C186  S    
C164  C165  A    
C80   H114  S    
C3    C7    A    
C220  C225  A    
C195  S11   S    
C30   C31   A    
C35   C204  S    
C123  C125  A    
C78   H113  S    
O37   Zn13  S    
C251  H63   S    
C155  H43   S    
C10   C83   S    
C252  H64   S    
O51   Zn7   S    
C192  C205  S    
C3    C256  A    
C31   C202  S    
C109  C116  A    
C130  C131  A    
O93   S2    D    
C49   H89   S    
O41   Zn2   S    
C151  C152  A    
C100  H132  S    
C70   C71   A    
C243  C252  S    
C9    C76   S    
C174  H59   S    
C217  C239  A    
C178  C183  S    
O62   S1    D    
C231  S15   S    
O36   Zn14  S    
C223  H98   S    
C12   C255  S    
O47   Zn11  S    
H4    O90   S    
C145  C147  A    
C250  H62   S    
C170  C175  A    
O1    Zn12  S    
C176  C181  S    
C165  H51   S    
C166  H52   S    
C84   C85   A    
C131  H18   S    
C167  C169  A    
C197  O22   A    
C249  O91   A    
C2    C189  S    
C86   C87   A    
C57   C246  S    
C52   H91   S    
C19   O13   A    
C58   C59   A    
C53   C54   A    
C132  H19   S    
O87   S19   S    
C221  C226  A    
H8    O104  S    
C225  C229  A    
C60   C61   A    
C157  C180  S    
C89   C95   A    
H38   O16   S    
C233  C238  A    
C254  C255  A    
C101  C208  T    
C215  C219  A    
C133  C134  A    
C159  C160  A    
C227  H131  S    
O94   S2    S    
C50   C51   A    
C6    C256  A    
C202  H71   S    
C119  H146  S    
O34   Zn11  S    
C121  C122  A    
O107  S6    S    
H37   O12   S    
C90   C198  S    
O44   Zn12  S    
C48   C49   A    
C244  C253  S    
C51   H90   S    
C252  H57   S    
O47   Zn15  S    
O52   Zn8   S    
C185  C196  S    
C131  C132  A    
C228  C232  A    
C44   C45   A    
O6    S9    S    
O103  S5    D    
C236  C245  S    
O79   S17   D    
C241  C250  S    
O32   Zn9   S    
C6    C10   A    
C146  C212  T    
C119  C120  A    
C191  O21   A    
C237  C241  S    
C27   C36   S    
C25   O56   A    
C105  C106  A    
C18   O2    A    
C168  C179  S    
C105  H135  S    
C32   C33   A    
C180  O20   A    
C109  C110  A    
O55   Zn3   S    
C16   C256  S    
C227  C231  A    
C143  C205  S    
O67   S12   S    
C113  C200  S    
C111  C114  A    
O92   S2    D    
C202  C213  S    
C94   C95   A    
C163  C169  A    
O24   Zn3   S    
C17   O102  A    
C194  S10   S    
C138  C139  A    
C219  C223  A    
C47   H86   S    
C247  O69   A    
C26   O49   A    
C16   H70   S    
C88   H122  S    
H36   O9    S    
O88   S20   D    
C103  C104  A    
O50   Zn6   S    
O58   Zn1   S    
C12   C96   S    
C73   H108  S    
O99   S4    D    
C235  S19   S    
H83   O74   S    
H151  O81   S    
C171  C172  A    
C68   C183  S    
C249  O39   A    
C165  C166  A    
C79   C197  S    
C138  H23   S    
C29   O61   A    
C140  C141  A    
C19   C221  S    
C168  H75   S    
C46   S2    S    
C81   C82   A    
O19   Zn13  S    
C224  H73   S    
O71   S14   S    
O11   S11   D    
C173  C174  A    
C43   C241  S    
C7    C11   A    
O47   Zn4   S    
C167  H53   S    
C193  C204  S    
C65   H102  S    
C38   C42   A    
C40   H65   S    
O56   Zn4   S    
C59   H96   S    
C15   C16   S    
H81   O67   S    
C188  C201  S    
C244  H24   S    
C159  H45   S    
C161  H48   S    
C118  C119  A    
C141  H27   S    
C39   H1    S    
C23   O55   A    
O110  S7    S    
C178  C185  S    
C66   H103  S    
C26   C34   S    
C118  H145  S    
C5    C22   S    
C56   C58   A    
C132  C133  A    
C74   H110  S    
C215  C250  S    
C188  C246  S    
C103  C108  A    
O75   S16   D    
H11   O3    S    
O12   S11   S    
C156  C162  A    
C123  C129  A    
C68   C203  S    
C229  C233  A    
C28   O51   A    
C200  O34   A    
C64   H101  S    
C197  O31   A    
C15   H69   S    
C98   H129  S    
C198  O32   A    
C218  C222  A    
C184  C188  S    
C21   O44   A    
O20   Zn14  S    
O83   S18   D    
C149  H33   S    
O47   Zn8   S    
C2    S6    S    
C47   C48   A    
O97   S3    S    
C36   C40   A    
O84   S18   S    
C148  C149  A    
C19   O42   A    
C189  C211  S    
C71   H106  S    
C223  C228  A    
C8    C9    A    
C134  C136  A    
H82   O71   S    
C175  H60   S    
C250  H35   S    
H10   O110  S    
O28   Zn6   S    
C196  C203  S    
C243  H13   S    
C145  H30   S    
O10   S11   D    
C22   O45   A    
C99   C100  A    
C96   C97   A    
C100  C102  A    
O95   S3    D    
C213  S17   S    
C199  O24   A    
O59   Zn9   S    
O4    S9    D    
C104  H134  S    
O1    Zn16  S    
C110  H139  S    
C56   C243  S    
C12   C14   S    
C60   H97   S    
C92   H124  S    
C125  H12   S    
C166  C167  A    
C112  O19   A    
C193  S9    S    
C1    O18   A    
O36   Zn7   S    
C3    C15   S    
C35   S20   S    
C22   O54   A    
O49   Zn5   S    
C196  S13   S    
H6    O97   S    
C144  H29   S    
C116  H144  S    
C130  C136  A    
O109  S7    D    
C80   C81   A    
C50   C242  S    
C233  C248  S    
C182  C195  S    
C183  C209  S    
C79   C206  T    
C137  C138  A    
C238  C242  S    
O101  S5    D    
C50   C55   A    
C112  O28   A    
C160  C161  A    
O108  S7    D    
C106  H136  S    
C187  C194  S    
C29   O52   A    
C91   H123  S    
C141  C142  A    
C4    C21   S    
C125  C126  A    
C253  H66   S    
C97   H128  S    
C102  H133  S    
C6    C23   S    
O21   Zn15  S    
C218  C253  S    
C111  H140  S    
C234  C239  A    
C230  S14   S    
C17   O40   A    
O85   S19   D    
C179  C206  S    
C90   C207  T    
C114  H141  S    
C248  O80   A    
O31   Zn1   S    
C164  H50   S    
C235  H74   S    
C65   C66   A    
C20   C222  S    
C120  C121  A    
O29   Zn7   S    
O33   Zn10  S    
C153  C154  A    
O35   Zn12  S    
C127  C128  A    
C41   H76   S    
C24   C176  S    
