data_mof_unit_9913.cif
_audit_creation_date              2012-12-10T16:59:21-0500
_audit_creation_method            fapswitch 2.2
_symmetry_space_group_name_H-M    P1
_symmetry_Int_Tables_number       1
_space_group_crystal_system       triclinic
_cell_length_a                    7.825632
_cell_length_b                    8.557719
_cell_length_c                    27.70397
_cell_angle_alpha                 92.389668
_cell_angle_beta                  85.882754
_cell_angle_gamma                 92.50178
_cell_volume                      1847.38585039

loop_
_atom_site_label
_atom_site_type_symbol
_atom_type_description
_atom_site_fract_x
_atom_site_fract_y
_atom_site_fract_z
_atom_type_partial_charge
Br1   Br    Br    0.042846 0.315396 0.439848 -0.364183
Br2   Br    Br    0.957154 0.684604 0.560152 -0.364199
Br3   Br    Br    0.193697 0.640887 0.766812 -0.382536
Br4   Br    Br    0.806363 0.359310 0.233181 -0.382476
Br5   Br    Br    0.674747 0.977813 0.132012 -0.374676
Br6   Br    Br    0.325813 0.022363 0.868023 -0.374866
C1    C     C_R   0.543478 0.793586 0.497941 0.905829
C2    C     C_R   0.541330 0.646703 0.128640 -0.103807
C3    C     C_R   0.507928 0.497541 0.646131 -0.095579
C4    C     C_R   0.492084 0.502511 0.353870 -0.095583
C5    C     C_R   0.556503 0.638288 0.025728 -0.000026
C6    C     C_R   0.443748 0.362069 0.974278 0.000018
C7    C     C_R   0.429955 0.369064 0.025672 0.075100
C8    C     C_R   0.570110 0.631363 0.974328 0.075096
C9    C     C_R   0.489294 0.506422 0.051122 0.082631
C10   C     C_R   0.510864 0.493954 0.948881 0.082639
C11   C     C_R   0.605341 0.774565 0.052720 -0.264731
C12   C     C_R   0.456522 0.206414 0.502059 0.905834
C13   C     C_R   0.395192 0.225685 0.947299 -0.264843
C14   C     C_R   0.600454 0.779782 0.102923 0.331292
C15   C     C_R   0.400008 0.220444 0.897097 0.331255
C16   C     C_R   0.502207 0.499814 0.593743 0.889284
C17   C     C_R   0.497794 0.500192 0.406257 0.889287
C18   C     C_R   0.644159 0.756801 0.947231 -0.206946
C19   C     C_R   0.355563 0.243751 0.052758 -0.207014
C20   C     C_2   0.557698 0.952717 0.488446 -0.236707
C21   C     C_2   0.442302 0.047283 0.511553 -0.236711
C22   C     C_R   0.589399 0.616448 0.821759 0.592950
C23   C     C_R   0.519105 0.488645 0.897471 -0.093481
C24   C     C_R   0.410546 0.383895 0.178235 0.592864
C25   C     C_R   0.460700 0.358429 0.820542 0.581217
C26   C     C_R   0.539538 0.641798 0.179469 0.581273
C27   C     C_R   0.654566 0.431563 0.716057 -0.010696
C28   C     C_R   0.345489 0.568604 0.283948 -0.010702
C29   C     C_R   0.648897 0.435538 0.666083 -0.203684
C30   C     C_R   0.351131 0.564555 0.333921 -0.203701
C31   C     C_R   0.372926 0.556918 0.676427 -0.225292
C32   C     C_R   0.627096 0.443165 0.323571 -0.225281
C33   C     C_R   0.378789 0.555399 0.726398 0.329807
C34   C     C_R   0.481033 0.511697 0.102532 -0.093457
C35   C     C_R   0.621261 0.444761 0.273601 0.329796
C36   C     C_R   0.519378 0.492076 0.746242 0.189080
C37   C     C_R   0.480690 0.508127 0.253760 0.189091
C38   C     C_1   0.201580 0.636359 0.264002 0.264651
C39   C     C_1   0.798491 0.363847 0.736006 0.264679
C40   C     C_1   0.667484 0.994712 0.445847 0.256642
C41   C     C_1   0.332516 0.005287 0.554153 0.256649
C42   C     C_R   0.587327 0.619412 0.872101 -0.007955
C43   C     C_R   0.412627 0.380977 0.127894 -0.007954
C44   C     C_R   0.651697 0.750803 0.897235 -0.066264
C45   C     C_R   0.348026 0.249701 0.102752 -0.066417
C46   C     C_R   0.458942 0.353564 0.871372 -0.103766
H1    H     H_    0.264015 0.606024 0.661373 0.206245
H2    H     H_    0.299413 0.138750 0.036816 0.151558
H3    H     H_    0.735995 0.394030 0.338621 0.206249
H4    H     H_    0.707815 0.851010 0.878305 0.210743
H5    H     H_    0.291675 0.149570 0.121677 0.210709
H6    H     H_    0.246820 0.611720 0.357189 0.185040
H7    H     H_    0.753201 0.388351 0.642817 0.185041
H8    H     H_    0.646916 0.882092 0.036016 0.169124
H9    H     H_    0.353965 0.118089 0.964015 0.169109
H10   H     H_    0.699942 0.861988 0.963156 0.151453
N1    N     N_R   0.523979 0.488642 0.797500 -0.361552
N2    N     N_R   0.476107 0.511619 0.202503 -0.361539
N3    N     N_2   0.950320 0.457960 0.486880 0.074708
N4    N     N_2   0.049680 0.542040 0.513120 0.074706
N5    N     N_1   0.086464 0.691062 0.247982 -0.096707
N6    N     N_1   0.913621 0.309173 0.752028 -0.096767
N7    N     N_1   0.753924 0.027002 0.411766 -0.124849
N8    N     N_1   0.246076 0.972998 0.588234 -0.124847
O1    O     O_R   0.389250 0.738570 0.503220 -0.606019
O2    O     O_2   0.345442 0.259583 0.202971 -0.486081
O3    O     O_2   0.601949 0.763638 0.206132 -0.459728
O4    O     O_2   0.398417 0.236511 0.793888 -0.459701
O5    O     O_R   0.610750 0.261430 0.496780 -0.606014
O6    O     O_R   0.678390 0.711630 0.494810 -0.587358
O7    O     O_R   0.321610 0.288370 0.505190 -0.587358
O8    O     O_R   0.355440 0.513440 0.575450 -0.609167
O9    O     O_R   0.644560 0.486560 0.424550 -0.609167
O10   O     O_R   0.644590 0.486500 0.567040 -0.597881
O11   O     O_R   0.355410 0.513500 0.432960 -0.597880
O12   O     O_2   0.654350 0.740795 0.797015 -0.486019
Zn1   Zn    Zn3+2 0.306940 0.517990 0.505620 1.070257
Zn2   Zn    Zn3+2 0.693060 0.482010 0.494380 1.070260

loop_
_geom_bond_atom_site_label_1
_geom_bond_atom_site_label_2
_ccdc_geom_bond_type
C12   O5    A    
C24   N2    A    
C27   C39   S    
C25   C46   A    
O10   Zn2   S    
O6    Zn2   S    
Br5   C14   S    
C20   C21   D    
C2    C14   A    
C1    C20   S    
C27   C36   A    
C13   C15   A    
C30   H6    S    
C1    O1    A    
O9    Zn2   S    
C5    C8    A    
O5    Zn2   S    
Br4   C35   S    
O7    Zn1   S    
C34   C43   A    
C11   C14   A    
C29   H7    S    
C8    C18   A    
C40   N7    T    
N4    Zn1   S    
C5    C9    A    
O8    Zn1   S    
C5    C11   A    
C32   H3    S    
C6    C10   A    
C43   C45   A    
Br1   N3    S    
C45   H5    S    
C31   H1    S    
C42   C44   A    
Br3   C33   S    
C35   C37   A    
C7    C19   A    
O11   Zn1   S    
C37   N2    S    
C33   C36   A    
O1    Zn1   S    
C18   C44   A    
C28   C37   A    
C23   C42   A    
C22   O12   S    
C2    C26   A    
C25   N1    A    
C28   C38   S    
C19   H2    S    
C16   O8    A    
C32   C35   A    
C26   O3    S    
C25   O4    S    
C10   C23   A    
Br6   C15   S    
C44   H4    S    
C19   C45   A    
C41   N8    T    
C39   N6    T    
C3    C31   A    
C26   N2    A    
C24   C43   A    
C7    C9    A    
C8    C10   A    
C21   C41   S    
C22   C42   A    
C18   H10   S    
C17   O11   A    
C12   C21   S    
Br2   N4    S    
C24   O2    S    
C1    O6    A    
N3    Zn2   S    
C4    C17   S    
C4    C32   A    
C16   O10   A    
C31   C33   A    
C13   H9    S    
C12   O7    A    
C6    C13   A    
C27   C29   A    
C28   C30   A    
C3    C16   S    
C9    C34   A    
C20   C40   S    
C11   H8    S    
C22   N1    A    
C6    C7    A    
N3    N4    D    
C3    C29   A    
C38   N5    T    
C4    C30   A    
C2    C34   A    
C17   O9    A    
C36   N1    S    
C15   C46   A    
C23   C46   A    
