data_mof_unit_23715.cif
_audit_creation_date              2012-12-10T19:59:53-0500
_audit_creation_method            fapswitch 2.2
_symmetry_space_group_name_H-M    P1
_symmetry_Int_Tables_number       1
_space_group_crystal_system       triclinic
_cell_length_a                    18.465151
_cell_length_b                    18.284492
_cell_length_c                    36.193752
_cell_angle_alpha                 90.010168
_cell_angle_beta                  89.975305
_cell_angle_gamma                 89.471697
_cell_volume                      12219.4274989

loop_
_atom_site_label
_atom_site_type_symbol
_atom_type_description
_atom_site_fract_x
_atom_site_fract_y
_atom_site_fract_z
_atom_type_partial_charge
C1    C     C_R   0.500019 0.999993 0.901185 0.583415
C2    C     C_R   0.457098 0.949327 0.730896 0.043172
C3    C     C_R   0.277255 0.779480 0.536031 0.219436
C4    C     C_3   0.199857 0.739085 0.929415 0.316759
C5    C     C_3   0.357029 0.296691 0.956847 0.302979
C6    C     C_3   0.800660 0.260536 0.929507 0.316558
C7    C     C_3   0.642979 0.703267 0.956917 0.301941
C8    C     C_3   0.295416 0.358743 0.956981 0.371124
C9    C     C_3   0.261685 0.799661 0.929645 0.344310
C10   C     C_3   0.704606 0.641222 0.957018 0.370789
C11   C     C_3   0.738832 0.199972 0.929722 0.344175
C12   C     C_3   0.699856 0.239086 0.429416 0.316757
C13   C     C_R   0.972778 0.438677 0.730954 0.043503
C14   C     C_3   0.857034 0.796694 0.456852 0.302963
C15   C     C_3   0.300650 0.760544 0.429506 0.316559
C16   C     C_3   0.142971 0.203256 0.456923 0.302047
C17   C     C_3   0.795421 0.858746 0.456986 0.371122
C18   C     C_3   0.761683 0.299664 0.429646 0.344312
C19   C     C_3   0.204597 0.141211 0.457026 0.370760
C20   C     C_3   0.238824 0.699978 0.429721 0.344185
C21   C     C_R   0.973872 0.439606 0.769731 -0.077573
C22   C     C_R   0.537076 0.054848 0.769691 -0.079879
C23   C     C_R   0.025983 0.560386 0.769745 -0.077605
C24   C     C_R   0.536054 0.057254 0.730911 0.042829
C25   C     C_R   0.459607 0.949009 0.769670 -0.078499
C26   C     C_R   0.473876 0.939604 0.269731 -0.077575
C27   C     C_R   0.037101 0.554830 0.269691 -0.079884
C28   C     C_R   0.525977 0.060388 0.269745 -0.077608
C29   C     C_R   0.959582 0.449029 0.269670 -0.078505
C30   C     C_R   0.999933 0.499986 0.788868 -0.003660
C31   C     C_R   0.499139 0.001301 0.788834 -0.003909
C32   C     C_R   0.499932 0.999986 0.288868 -0.003661
C33   C     C_R   0.999139 0.501301 0.288834 -0.003914
C34   C     C_2   0.442758 0.872884 0.212122 0.611773
C35   C     C_R   0.499935 0.000021 0.211370 -0.008889
C36   C     C_2   0.077347 0.616320 0.212017 0.621622
C37   C     C_2   0.557079 0.127173 0.212157 0.611337
C38   C     C_2   0.913274 0.392176 0.212005 0.610238
C39   C     C_2   0.942749 0.372889 0.712122 0.611773
C40   C     C_2   0.577292 0.116358 0.712018 0.621625
C41   C     C_2   0.057090 0.627168 0.712157 0.611337
C42   C     C_2   0.413325 0.892135 0.712004 0.610249
C43   C     C_R   0.996115 0.503656 0.211309 -0.005804
C44   C     C_R   0.999936 0.500021 0.711370 -0.008889
C45   C     C_R   0.496114 0.003655 0.711309 -0.005803
C46   C     C_1   0.999951 0.499972 0.828477 0.008949
C47   C     C_1   0.499814 0.000672 0.828486 0.017381
C48   C     C_1   0.499950 0.999972 0.328477 0.008949
C49   C     C_R   0.999997 0.499993 0.901097 0.536588
C50   C     C_1   0.999814 0.500672 0.328486 0.017357
C51   C     C_1   0.499962 0.000028 0.171552 0.090323
C52   C     C_1   0.998390 0.501942 0.171480 0.085556
C53   C     C_1   0.999963 0.500027 0.671552 0.090322
C54   C     C_1   0.498390 0.001942 0.671480 0.085562
C55   C     C_1   0.499982 0.000021 0.138329 0.145275
C56   C     C_1   0.999640 0.500790 0.138251 0.114516
C57   C     C_1   0.999983 0.500021 0.638329 0.145275
C58   C     C_1   0.499640 0.000790 0.638251 0.114532
C59   C     C_1   0.999973 0.499978 0.861671 0.064327
C60   C     C_R   0.000019 0.499993 0.401185 0.583388
C61   C     C_1   0.500031 0.000283 0.861709 0.106441
C62   C     C_1   0.499973 0.999978 0.361671 0.064329
C63   C     C_1   0.000031 0.500283 0.361709 0.106399
C64   C     C_R   0.499999 0.000006 0.098900 0.542033
C65   C     C_R   0.999967 0.499964 0.098799 0.509677
C66   C     C_R   0.999999 0.500006 0.598900 0.542060
C67   C     C_R   0.499967 0.999964 0.598799 0.509712
C68   C     C_R   0.640346 0.860486 0.000424 0.601826
C69   C     C_R   0.139466 0.640578 0.999952 0.622778
C70   C     C_R   0.359692 0.139553 0.000411 0.602423
C71   C     C_R   0.499997 0.999993 0.401097 0.536577
C72   C     C_R   0.860542 0.359406 0.999974 0.622794
C73   C     C_R   0.640144 0.140478 0.000265 0.599158
C74   C     C_R   0.139768 0.359897 0.000001 0.617492
C75   C     C_R   0.359791 0.859606 0.000302 0.599747
C76   C     C_R   0.860239 0.640113 0.000028 0.616867
C77   C     C_R   0.140345 0.360485 0.500424 0.601841
C78   C     C_R   0.639466 0.140578 0.499952 0.622781
C79   C     C_R   0.859692 0.639552 0.500411 0.602426
C80   C     C_R   0.360542 0.859406 0.499973 0.622801
C81   C     C_R   0.140145 0.640477 0.500266 0.599173
C82   C     C_R   0.527071 0.061355 0.230969 0.043867
C83   C     C_R   0.639768 0.859897 0.500001 0.617456
C84   C     C_R   0.859790 0.359606 0.500302 0.599735
C85   C     C_R   0.360239 0.140113 0.500028 0.616883
C86   C     C_R   0.257042 0.795673 0.971469 -0.048149
C87   C     C_R   0.255672 0.308126 0.982188 -0.059420
C88   C     C_R   0.743368 0.203904 0.971559 -0.048020
C89   C     C_R   0.744349 0.691865 0.982205 -0.059251
C90   C     C_R   0.308098 0.256680 0.982775 -0.086459
C91   C     C_R   0.207233 0.741339 0.970753 -0.088416
C92   C     C_R   0.691943 0.743334 0.982787 -0.086769
C93   C     C_R   0.957074 0.449348 0.230896 0.043172
C94   C     C_R   0.793240 0.258222 0.970846 -0.088934
C95   C     C_R   0.757040 0.295675 0.471470 -0.048159
C96   C     C_R   0.755674 0.808127 0.482192 -0.059402
C97   C     C_R   0.243364 0.703909 0.471558 -0.048020
C98   C     C_R   0.244346 0.191861 0.482207 -0.059216
C99   C     C_R   0.808100 0.756682 0.482779 -0.086459
C100  C     C_R   0.707232 0.241341 0.470753 -0.088415
C101  C     C_R   0.191936 0.243326 0.482792 -0.086494
C102  C     C_R   0.293234 0.758228 0.470845 -0.088935
C103  C     C_R   0.301752 0.805774 0.002380 0.005162
C104  C     C_R   0.472782 0.938674 0.230954 0.043502
C105  C     C_R   0.192401 0.301567 0.002164 0.001073
C106  C     C_R   0.698005 0.194505 0.002304 0.004742
C107  C     C_R   0.807552 0.698400 0.002212 0.001072
C108  C     C_R   0.301523 0.192301 0.002479 -0.007643
C109  C     C_R   0.189951 0.700774 0.002090 -0.005757
C110  C     C_R   0.698520 0.807747 0.002472 -0.007574
C111  C     C_R   0.809964 0.299295 0.002104 -0.005615
C112  C     C_R   0.801752 0.305775 0.502380 0.005138
C113  C     C_R   0.692402 0.801567 0.502165 0.001053
C114  C     C_R   0.198009 0.694500 0.502306 0.004740
C115  C     C_R   0.036081 0.557236 0.230911 0.042829
C116  C     C_R   0.307552 0.198400 0.502211 0.001068
C117  C     C_R   0.801522 0.692300 0.502480 -0.007648
C118  C     C_R   0.689951 0.200774 0.502090 -0.005753
C119  C     C_R   0.198518 0.307745 0.502471 -0.007393
C120  C     C_R   0.309965 0.799294 0.502104 -0.005615
C121  C     C_R   0.284710 0.766260 0.035692 0.213892
C122  C     C_R   0.182698 0.238124 0.024544 0.170480
C123  C     C_R   0.714249 0.234832 0.035476 0.214040
C124  C     C_R   0.817132 0.761771 0.024663 0.169554
C125  C     C_R   0.237105 0.180863 0.023554 0.208919
C126  C     C_R   0.027076 0.561353 0.730969 0.043868
C127  C     C_R   0.221851 0.721324 0.036101 0.217902
C128  C     C_R   0.762884 0.819158 0.023564 0.208990
C129  C     C_R   0.777243 0.279491 0.036029 0.219447
C130  C     C_R   0.784710 0.266259 0.535693 0.213880
C131  C     C_R   0.682697 0.738123 0.524545 0.170403
C132  C     C_R   0.214262 0.734817 0.535480 0.214037
C133  C     C_R   0.317135 0.261773 0.524660 0.169544
C134  C     C_R   0.737102 0.680861 0.523553 0.208912
C135  C     C_R   0.721852 0.221323 0.536101 0.217896
C136  C     C_R   0.262886 0.319161 0.523561 0.208994
H1    H     H_    0.953369 0.393471 0.785254 0.181793
H2    H     H_    0.100939 0.334224 0.082981 0.350340
H3    H     H_    0.536579 0.250328 0.079120 0.379894
H4    H     H_    0.895678 0.665369 0.083537 0.355452
H5    H     H_    0.270552 0.987592 0.051106 0.372817
H6    H     H_    0.065535 0.673188 0.093053 0.382002
H7    H     H_    0.730165 0.012861 0.050538 0.371841
H8    H     H_    0.932287 0.326418 0.094237 0.378970
H9    H     H_    0.960989 0.252226 0.580758 0.379474
H10   H     H_    0.601077 0.834246 0.582978 0.350268
H11   H     H_    0.036608 0.750283 0.579142 0.379882
H12   H     H_    0.566933 0.095382 0.785210 0.179438
H13   H     H_    0.395688 0.165378 0.583533 0.355446
H14   H     H_    0.770478 0.487548 0.551068 0.372833
H15   H     H_    0.565538 0.173180 0.593053 0.381987
H16   H     H_    0.230175 0.512868 0.550530 0.371851
H17   H     H_    0.432312 0.826424 0.594227 0.379006
H18   H     H_    0.183015 0.668512 0.854519 0.368080
H19   H     H_    0.489167 0.363440 0.929142 0.390888
H20   H     H_    0.817404 0.330977 0.854604 0.368323
H21   H     H_    0.511145 0.635912 0.929451 0.391022
H22   H     H_    0.392089 0.530856 0.976150 0.416004
H23   H     H_    0.046485 0.606508 0.785278 0.181644
H24   H     H_    0.398863 0.723922 0.865218 0.398182
H25   H     H_    0.608079 0.468977 0.976076 0.416160
H26   H     H_    0.601843 0.275570 0.865203 0.396925
H27   H     H_    0.683018 0.168509 0.354520 0.368081
H28   H     H_    0.989166 0.863457 0.429155 0.390894
H29   H     H_    0.317391 0.831000 0.354605 0.368323
H30   H     H_    0.011148 0.135933 0.429441 0.391013
H31   H     H_    0.892091 0.030859 0.476157 0.416012
H32   H     H_    0.898861 0.223926 0.365219 0.398176
H33   H     H_    0.108067 0.968979 0.476117 0.416150
H34   H     H_    0.429966 0.908277 0.785172 0.179805
H35   H     H_    0.101830 0.775578 0.365206 0.396929
H36   H     H_    0.055572 0.791645 0.968194 0.370553
H37   H     H_    0.302051 0.148171 0.918823 0.367480
H38   H     H_    0.944814 0.208084 0.968284 0.370599
H39   H     H_    0.698377 0.851259 0.918974 0.367090
H40   H     H_    0.155217 0.444512 0.898120 0.371427
H41   H     H_    0.270128 0.870650 0.854139 0.373417
H42   H     H_    0.844671 0.555257 0.898069 0.371451
H43   H     H_    0.730451 0.128771 0.854229 0.374811
H44   H     H_    0.555567 0.291640 0.468193 0.370555
H45   H     H_    0.453377 0.893467 0.285254 0.181794
H46   H     H_    0.802055 0.648182 0.418826 0.367471
H47   H     H_    0.444809 0.708094 0.468277 0.370604
H48   H     H_    0.198139 0.351451 0.418875 0.367292
H49   H     H_    0.655222 0.944510 0.398122 0.371426
H50   H     H_    0.770125 0.370658 0.354141 0.373416
H51   H     H_    0.344680 0.055260 0.398085 0.371448
H52   H     H_    0.230439 0.628780 0.354228 0.374806
H53   H     H_    0.395427 0.829121 0.167059 0.395236
H54   H     H_    0.090567 0.680079 0.166997 0.387240
H55   H     H_    0.604462 0.170990 0.167115 0.395064
H56   H     H_    0.066978 0.595349 0.285210 0.179434
H57   H     H_    0.856930 0.360778 0.167006 0.394263
H58   H     H_    0.895414 0.329129 0.667059 0.395239
H59   H     H_    0.590483 0.180124 0.666998 0.387226
H60   H     H_    0.104475 0.670982 0.667114 0.395061
H61   H     H_    0.356996 0.860710 0.667006 0.394263
H62   H     H_    0.546475 0.106511 0.285278 0.181644
H63   H     H_    0.929923 0.408312 0.285173 0.179801
H64   H     H_    0.460986 0.752228 0.080759 0.379476
O1    O     O_3   0.500000 0.000000 0.000000 -0.516294
O2    O     O_R   0.500000 0.939300 0.418540 -0.478173
O3    O     O_3   0.412589 0.806795 0.570825 -0.483475
O4    O     O_2   0.288743 0.617134 0.926763 -0.145544
O5    O     O_2   0.160931 0.597060 0.917391 -0.258670
O6    O     O_3   0.231846 0.656316 0.864154 -0.408807
O7    O     O_2   0.433297 0.341123 0.017891 -0.168621
O8    O     O_2   0.490366 0.249381 0.979308 -0.202513
O9    O     O_3   0.486790 0.381800 0.954854 -0.396269
O10   O     O_2   0.711779 0.382495 0.926926 -0.146091
O11   O     O_2   0.839562 0.402596 0.917439 -0.258745
O12   O     O_3   0.768608 0.343297 0.864269 -0.408779
O13   O     O_R   0.060700 0.500000 0.418540 -0.480059
O14   O     O_2   0.566881 0.659279 0.018128 -0.167863
O15   O     O_2   0.509597 0.750569 0.979408 -0.202593
O16   O     O_3   0.513314 0.617943 0.955233 -0.396723
O17   O     O_2   0.249508 0.495387 0.976677 -0.211070
O18   O     O_2   0.326354 0.432615 0.020938 -0.219504
O19   O     O_3   0.385369 0.485784 0.961404 -0.387958
O20   O     O_2   0.401149 0.837778 0.914392 -0.245834
O21   O     O_2   0.383540 0.715836 0.939096 -0.216007
O22   O     O_3   0.348849 0.740947 0.870525 -0.447140
O23   O     O_2   0.750603 0.504658 0.976761 -0.211340
O24   O     O_R   0.500000 0.060700 0.418540 -0.478126
O25   O     O_2   0.673412 0.567329 0.020944 -0.217849
O26   O     O_3   0.614827 0.514049 0.961340 -0.388434
O27   O     O_2   0.599405 0.161829 0.914392 -0.246420
O28   O     O_2   0.616893 0.283804 0.939086 -0.215992
O29   O     O_3   0.651847 0.258584 0.870541 -0.447821
O30   O     O_2   0.788748 0.117139 0.426765 -0.145539
O31   O     O_2   0.660936 0.097060 0.417394 -0.258666
O32   O     O_3   0.731849 0.156315 0.364156 -0.408807
O33   O     O_2   0.933292 0.841118 0.517902 -0.168627
O34   O     O_2   0.990369 0.749385 0.479317 -0.202505
O35   O     O_R   0.500000 0.939270 0.081460 -0.520401
O36   O     O_3   0.986794 0.881807 0.454868 -0.396259
O37   O     O_2   0.211762 0.882499 0.426928 -0.146064
O38   O     O_2   0.339544 0.902608 0.417443 -0.258763
O39   O     O_3   0.268593 0.843312 0.364270 -0.408777
O40   O     O_2   0.066865 0.159234 0.518126 -0.167867
O41   O     O_2   0.009596 0.250563 0.479423 -0.202589
O42   O     O_3   0.013297 0.117954 0.455222 -0.396700
O43   O     O_2   0.749509 0.995389 0.476682 -0.211062
O44   O     O_2   0.826354 0.932618 0.520943 -0.219511
O45   O     O_3   0.885371 0.985789 0.461410 -0.387955
O46   O     O_R   0.060730 0.500000 0.081460 -0.523222
O47   O     O_2   0.901143 0.337788 0.414390 -0.245836
O48   O     O_2   0.883542 0.215846 0.439097 -0.215988
O49   O     O_3   0.848846 0.240952 0.370525 -0.447141
O50   O     O_2   0.250589 0.004645 0.476766 -0.211332
O51   O     O_2   0.173453 0.067342 0.520965 -0.217914
O52   O     O_3   0.114799 0.014054 0.461380 -0.388408
O53   O     O_2   0.099399 0.661830 0.414392 -0.246404
O54   O     O_2   0.116883 0.783803 0.439089 -0.215985
O55   O     O_3   0.151834 0.758593 0.370543 -0.447822
O56   O     O_2   0.108389 0.804775 0.879231 -0.138582
O57   O     O_R   0.500000 0.060730 0.081460 -0.519829
O58   O     O_2   0.059552 0.702364 0.912364 -0.224826
O59   O     O_3   0.071944 0.823755 0.947868 -0.411743
O60   O     O_2   0.387856 0.293378 0.883165 -0.168472
O61   O     O_2   0.433338 0.191146 0.919438 -0.264979
O62   O     O_3   0.297310 0.193862 0.904347 -0.425453
O63   O     O_2   0.892194 0.194839 0.879307 -0.138054
O64   O     O_2   0.940964 0.297304 0.912430 -0.224629
O65   O     O_3   0.928587 0.175946 0.947939 -0.411484
O66   O     O_2   0.611793 0.706397 0.883292 -0.167334
O67   O     O_2   0.566687 0.808840 0.919573 -0.263692
O68   O     O_R   0.939270 0.500000 0.081460 -0.511734
O69   O     O_3   0.702603 0.805841 0.904234 -0.424466
O70   O     O_2   0.294055 0.409429 0.886568 -0.154679
O71   O     O_2   0.213328 0.306535 0.899501 -0.187603
O72   O     O_3   0.175677 0.433602 0.922823 -0.486186
O73   O     O_2   0.171782 0.920514 0.929508 -0.131047
O74   O     O_2   0.297635 0.943147 0.915460 -0.216667
O75   O     O_3   0.222234 0.881869 0.865202 -0.410075
O76   O     O_2   0.705980 0.590720 0.886556 -0.154762
O77   O     O_2   0.786885 0.693419 0.899583 -0.187993
O78   O     O_3   0.824254 0.566217 0.922787 -0.486072
O79   O     O_R   1.000000 0.439270 0.581460 -0.520392
O80   O     O_2   0.828784 0.079155 0.929586 -0.131002
O81   O     O_2   0.702943 0.056451 0.915591 -0.216096
O82   O     O_3   0.778356 0.117674 0.865287 -0.407991
O83   O     O_2   0.608389 0.304773 0.379231 -0.138582
O84   O     O_2   0.559554 0.202359 0.412363 -0.224831
O85   O     O_3   0.571939 0.323750 0.447866 -0.411735
O86   O     O_2   0.887875 0.793388 0.383172 -0.168478
O87   O     O_2   0.933348 0.691151 0.419445 -0.264959
O88   O     O_3   0.797324 0.693872 0.404347 -0.425445
O89   O     O_2   0.392180 0.694855 0.379301 -0.138055
O90   O     O_R   0.560730 0.000000 0.581460 -0.523215
O91   O     O_2   0.440950 0.797319 0.412425 -0.224639
O92   O     O_3   0.428583 0.675958 0.447931 -0.411479
O93   O     O_2   0.111865 0.206387 0.383287 -0.167322
O94   O     O_2   0.066648 0.308786 0.419565 -0.263872
O95   O     O_3   0.202595 0.305874 0.404272 -0.424714
O96   O     O_2   0.794064 0.909432 0.386572 -0.154673
O97   O     O_2   0.713336 0.806538 0.399504 -0.187616
O98   O     O_3   0.675684 0.933606 0.422825 -0.486178
O99   O     O_2   0.671774 0.420513 0.429509 -0.131054
O100  O     O_2   0.797626 0.443153 0.415463 -0.216664
O101  O     O_R   1.000000 0.560730 0.581460 -0.519834
O102  O     O_3   0.722230 0.381874 0.365204 -0.410070
O103  O     O_2   0.205959 0.090624 0.386581 -0.154777
O104  O     O_2   0.286811 0.193389 0.399561 -0.187811
O105  O     O_3   0.324269 0.066236 0.422802 -0.486142
O106  O     O_2   0.328781 0.579164 0.429582 -0.130984
O107  O     O_2   0.202940 0.556455 0.415590 -0.216170
O108  O     O_3   0.278345 0.617684 0.365285 -0.407998
O109  O     O_2   0.441697 0.814177 0.228329 -0.435115
O110  O     O_R   0.414169 0.877667 0.176423 -0.652752
O111  O     O_2   0.127613 0.645881 0.227986 -0.434331
O112  O     O_3   1.000000 0.500000 0.000000 -0.509152
O113  O     O_R   0.439270 0.000000 0.581460 -0.511740
O114  O     O_R   0.058285 0.639646 0.176500 -0.674113
O115  O     O_2   0.558087 0.185871 0.228384 -0.437022
O116  O     O_R   0.585716 0.122429 0.176454 -0.652681
O117  O     O_2   0.899959 0.334876 0.227980 -0.437735
O118  O     O_R   0.885713 0.403843 0.176486 -0.660484
O119  O     O_2   0.941683 0.314181 0.728329 -0.435118
O120  O     O_R   0.914160 0.377673 0.676423 -0.652747
O121  O     O_2   0.627544 0.145943 0.727986 -0.434327
O122  O     O_R   0.558220 0.139675 0.676500 -0.674125
O123  O     O_2   0.058104 0.685866 0.728384 -0.437022
O124  O     O_R   0.646180 0.914510 0.978640 -0.493147
O125  O     O_R   0.085726 0.622422 0.676454 -0.652682
O126  O     O_2   0.400037 0.834828 0.727979 -0.437725
O127  O     O_R   0.385759 0.903789 0.676486 -0.660478
O128  O     O_R   0.085490 0.646180 0.978640 -0.497774
O129  O     O_R   0.353820 0.085490 0.978640 -0.493411
O130  O     O_R   0.914510 0.353820 0.978640 -0.497931
O131  O     O_R   0.646180 0.085490 0.978640 -0.469702
O132  O     O_R   0.085490 0.353820 0.978640 -0.476904
O133  O     O_R   0.353820 0.914510 0.978640 -0.469888
O134  O     O_R   0.914510 0.646180 0.978640 -0.477811
O135  O     O_R   0.146180 0.414510 0.478640 -0.493175
O136  O     O_3   1.000000 0.500000 0.500000 -0.516277
O137  O     O_R   0.585490 0.146180 0.478640 -0.497776
O138  O     O_R   0.853820 0.585490 0.478640 -0.493409
O139  O     O_R   0.414510 0.853820 0.478640 -0.497939
O140  O     O_R   0.146180 0.585490 0.478640 -0.469690
O141  O     O_R   0.585490 0.853820 0.478640 -0.476909
O142  O     O_R   0.853820 0.414510 0.478640 -0.469899
O143  O     O_R   0.414510 0.146180 0.478640 -0.477792
O144  O     O_R   0.414550 0.146120 0.021350 -0.489866
O145  O     O_R   0.853880 0.414550 0.021350 -0.456809
O146  O     O_R   0.585450 0.853880 0.021350 -0.489502
O147  O     O_3   0.500000 1.000000 0.500000 -0.509149
O148  O     O_R   0.146120 0.585450 0.021350 -0.458328
O149  O     O_R   0.414550 0.853880 0.021350 -0.457507
O150  O     O_R   0.853880 0.585450 0.021350 -0.490299
O151  O     O_R   0.585450 0.146120 0.021350 -0.458228
O152  O     O_R   0.146120 0.414550 0.021350 -0.491327
O153  O     O_R   0.914550 0.646120 0.521350 -0.489858
O154  O     O_R   0.353880 0.914550 0.521350 -0.456810
O155  O     O_R   0.085450 0.353880 0.521350 -0.489553
O156  O     O_R   0.646120 0.085450 0.521350 -0.458329
O157  O     O_R   0.914550 0.353880 0.521350 -0.457491
O158  O     O_R   0.439300 0.000000 0.918540 -0.480455
O159  O     O_R   0.353880 0.085450 0.521350 -0.490299
O160  O     O_R   0.085450 0.646120 0.521350 -0.458221
O161  O     O_R   0.646120 0.914550 0.521350 -0.491361
O162  O     O_2   0.349842 0.842499 0.089773 -0.277130
O163  O     O_2   0.322544 0.715604 0.105185 -0.153873
O164  O     O_3   0.427582 0.737552 0.060729 -0.420772
O165  O     O_2   0.046749 0.190165 0.032136 -0.162583
O166  O     O_2   0.118745 0.193377 0.088712 -0.156690
O167  O     O_3   0.068820 0.314829 0.063463 -0.537573
O168  O     O_2   0.647803 0.161002 0.090013 -0.275519
O169  O     O_R   1.000000 0.439300 0.918540 -0.478168
O170  O     O_2   0.674154 0.288757 0.104023 -0.156999
O171  O     O_3   0.570501 0.264166 0.059149 -0.418838
O172  O     O_2   0.953583 0.808024 0.032626 -0.163599
O173  O     O_2   0.880547 0.806930 0.088921 -0.153192
O174  O     O_3   0.929082 0.684309 0.064445 -0.535549
O175  O     O_2   0.242756 0.111635 0.088746 -0.210636
O176  O     O_2   0.149083 0.071568 0.045414 -0.134303
O177  O     O_3   0.280214 0.028934 0.034170 -0.532684
O178  O     O_2   0.202921 0.631358 0.094098 -0.203931
O179  O     O_2   0.184937 0.762924 0.105429 -0.179509
O180  O     O_R   0.560700 0.000000 0.918540 -0.479931
O181  O     O_3   0.085609 0.694032 0.070003 -0.484519
O182  O     O_2   0.756793 0.889156 0.088553 -0.210957
O183  O     O_2   0.851326 0.928091 0.045394 -0.134509
O184  O     O_3   0.720634 0.971452 0.033622 -0.531925
O185  O     O_2   0.794975 0.371273 0.093366 -0.207253
O186  O     O_2   0.811425 0.239989 0.106012 -0.180807
O187  O     O_3   0.912568 0.306788 0.070833 -0.483482
O188  O     O_2   0.849845 0.342497 0.589773 -0.277110
O189  O     O_2   0.822547 0.215601 0.605184 -0.153871
O190  O     O_3   0.927583 0.237551 0.560727 -0.420771
O191  O     O_R   1.000000 0.560700 0.918540 -0.478122
O192  O     O_2   0.546720 0.690221 0.532123 -0.162650
O193  O     O_2   0.618723 0.693335 0.588703 -0.156592
O194  O     O_3   0.568860 0.814847 0.563489 -0.537454
O195  O     O_2   0.147833 0.660947 0.590010 -0.275547
O196  O     O_2   0.174196 0.788690 0.604044 -0.157000
O197  O     O_3   0.070526 0.764144 0.559173 -0.418857
O198  O     O_2   0.453586 0.308029 0.532618 -0.163595
O199  O     O_2   0.380556 0.306939 0.588915 -0.153196
O200  O     O_3   0.429089 0.184316 0.564441 -0.535551
O201  O     O_2   0.742731 0.611612 0.588742 -0.210578
O202  O     O_R   0.939300 0.500000 0.418540 -0.480430
O203  O     O_2   0.649069 0.571565 0.545395 -0.134370
O204  O     O_3   0.780205 0.528922 0.534163 -0.532690
O205  O     O_2   0.702924 0.131355 0.594097 -0.203924
O206  O     O_2   0.684939 0.262921 0.605430 -0.179503
O207  O     O_3   0.585611 0.194030 0.570004 -0.484523
O208  O     O_2   0.256804 0.389165 0.588547 -0.210964
O209  O     O_2   0.351331 0.428096 0.545384 -0.134498
O210  O     O_3   0.220638 0.471456 0.533616 -0.531902
O211  O     O_2   0.294988 0.871244 0.593375 -0.207247
O212  O     O_2   0.311474 0.739958 0.606007 -0.180791
S1    S     S_3+6 0.345035 0.766081 0.074665 0.117325
S2    S     S_3+6 0.603316 0.732018 0.552913 0.117236
S3    S     S_3+6 0.152769 0.736629 0.574004 0.118084
S4    S     S_3+6 0.396045 0.267428 0.553354 0.119029
S5    S     S_3+6 0.725848 0.597289 0.548783 0.116672
S6    S     S_3+6 0.674839 0.201978 0.578072 0.110452
S7    S     S_3+6 0.274337 0.402918 0.548606 0.116398
S8    S     S_3+6 0.323032 0.799839 0.578214 0.107852
S9    S     S_3+6 0.221342 0.649553 0.910158 0.136867
S10   S     S_3+6 0.443207 0.316667 0.978621 0.152087
S11   S     S_3+6 0.779160 0.350073 0.910265 0.136471
S12   S     S_3+6 0.103318 0.232013 0.052912 0.117223
S13   S     S_3+6 0.556858 0.683353 0.978813 0.152117
S14   S     S_3+6 0.313445 0.444623 0.980400 0.145405
S15   S     S_3+6 0.351728 0.773006 0.913981 0.090261
S16   S     S_3+6 0.686573 0.555331 0.980420 0.145706
S17   S     S_3+6 0.648826 0.226602 0.914003 0.089719
S18   S     S_3+6 0.721345 0.149555 0.410159 0.136868
S19   S     S_3+6 0.943209 0.816669 0.478631 0.152082
S20   S     S_3+6 0.279145 0.850083 0.410267 0.136477
S21   S     S_3+6 0.056848 0.183340 0.478816 0.152099
S22   S     S_3+6 0.813447 0.944626 0.480405 0.145404
S23   S     S_3+6 0.652740 0.236669 0.073993 0.118103
S24   S     S_3+6 0.851726 0.273013 0.413980 0.090263
S25   S     S_3+6 0.186571 0.055329 0.480438 0.145671
S26   S     S_3+6 0.148816 0.726605 0.414004 0.089730
S27   S     S_3+6 0.108340 0.767160 0.916046 0.128862
S28   S     S_3+6 0.370759 0.243525 0.914888 0.098580
S29   S     S_3+6 0.892197 0.232489 0.916120 0.129159
S30   S     S_3+6 0.629143 0.756328 0.914949 0.099804
S31   S     S_3+6 0.244957 0.375514 0.914768 0.143498
S32   S     S_3+6 0.237688 0.889161 0.910834 0.156764
S33   S     S_3+6 0.755093 0.624460 0.914786 0.143293
S34   S     S_3+6 0.896040 0.767422 0.053359 0.119024
S35   S     S_3+6 0.762876 0.110451 0.910925 0.157538
S36   S     S_3+6 0.608339 0.267158 0.416045 0.128864
S37   S     S_3+6 0.870771 0.743532 0.414894 0.098585
S38   S     S_3+6 0.392186 0.732502 0.416115 0.129156
S39   S     S_3+6 0.129144 0.256317 0.414955 0.099698
S40   S     S_3+6 0.744965 0.875517 0.414772 0.143499
S41   S     S_3+6 0.737682 0.389164 0.410836 0.156760
S42   S     S_3+6 0.255071 0.124430 0.414793 0.143343
S43   S     S_3+6 0.262870 0.610459 0.410923 0.157522
S44   S     S_3+6 0.225860 0.097299 0.048791 0.116678
S45   S     S_3+6 0.174837 0.701980 0.078072 0.110448
S46   S     S_3+6 0.774332 0.902913 0.048612 0.116376
S47   S     S_3+6 0.823008 0.299855 0.078215 0.107843
S48   S     S_3+6 0.845037 0.266079 0.574664 0.117326
Zn1   Zn    Zn3+2 0.500000 0.913220 0.030510 1.092338
Zn2   Zn    Zn3+2 1.000000 0.586770 0.969480 1.133312
Zn3   Zn    Zn3+2 0.413230 0.000000 0.969480 1.127861
Zn4   Zn    Zn3+2 1.000000 0.413230 0.969480 1.133452
Zn5   Zn    Zn3+2 0.086770 0.500000 0.469480 1.127952
Zn6   Zn    Zn3+2 0.500000 0.086770 0.469480 1.133310
Zn7   Zn    Zn3+2 0.913230 0.500000 0.469480 1.127865
Zn8   Zn    Zn3+2 0.500000 0.913230 0.469480 1.133447
Zn9   Zn    Zn3+2 0.086780 0.500000 0.030510 1.107755
Zn10  Zn    Zn3+2 0.500000 0.086780 0.030510 1.091928
Zn11  Zn    Zn3+2 0.913220 0.500000 0.030510 1.113712
Zn12  Zn    Zn3+2 1.000000 0.413220 0.530510 1.092342
Zn13  Zn    Zn3+2 0.586780 0.000000 0.530510 1.107752
Zn14  Zn    Zn3+2 1.000000 0.586780 0.530510 1.091957
Zn15  Zn    Zn3+2 0.413220 0.000000 0.530510 1.113718
Zn16  Zn    Zn3+2 0.586770 0.000000 0.969480 1.128066

loop_
_geom_bond_atom_site_label_1
_geom_bond_atom_site_label_2
_ccdc_geom_bond_type
H24   O22   S    
C50   C63   T    
C71   O2    A    
O67   S30   D    
C21   H1    S    
O26   S16   S    
C70   O129  A    
O130  Zn4   S    
C5    S10   S    
H32   O49   S    
O181  S45   S    
O150  Zn11  S    
C37   O115  D    
O144  Zn10  S    
O97   S40   D    
C78   O156  A    
C96   C99   A    
C29   C33   A    
C94   C111  A    
C26   C104  A    
O11   S11   D    
C44   C53   S    
C109  C127  A    
C20   C97   S    
H14   O204  S    
C29   H63   S    
C79   O138  A    
O22   S15   S    
O187  S47   S    
H39   O69   S    
C134  S5    S    
O145  Zn11  S    
O42   S21   S    
O4    S9    D    
C75   C103  S    
C78   O137  A    
C107  C124  A    
C42   O127  S    
C88   C106  A    
O105  S42   S    
C4    S27   S    
C15   C20   S    
O188  S48   D    
O47   S24   D    
C129  S47   S    
O210  S7    S    
C28   C32   A    
O45   S22   S    
C34   O109  D    
H11   O197  S    
C35   C104  A    
O203  S5    D    
C6    C11   S    
O1    Zn1   S    
O21   S15   D    
C116  C133  A    
O113  Zn15  S    
C33   C50   S    
O71   S31   D    
C1    O158  A    
H64   O164  S    
C17   S22   S    
O134  Zn2   S    
H42   O78   S    
C70   O144  A    
C124  S34   S    
O48   S24   D    
O85   S36   S    
C13   C21   A    
C17   C96   S    
C84   C112  S    
O60   S28   D    
O98   S40   S    
C39   O120  S    
O112  Zn9   S    
C15   S20   S    
O136  Zn7   S    
C22   H12   S    
C76   C107  S    
C36   O114  S    
O7    S10   D    
C35   C51   S    
C103  C121  A    
C4    S9    S    
O138  Zn7   S    
O96   S40   D    
H9    O190  S    
O172  S34   D    
C85   C116  S    
O198  S4    D    
O147  Zn8   S    
C17   S40   S    
O72   S31   S    
H58   O120  S    
C5    C8    S    
O41   S21   D    
C34   O110  S    
H5    O177  S    
C119  C136  A    
C132  S3    S    
C95   C112  A    
O37   S20   D    
C68   O124  A    
C40   O122  S    
O136  Zn14  S    
C84   O157  A    
O174  S34   S    
O131  Zn16  S    
C7    C92   S    
O74   S32   D    
O176  S44   D    
C51   C55   T    
C85   O143  A    
O147  Zn15  S    
C11   S17   S    
H26   O29   S    
C122  S12   S    
O20   S15   D    
C58   C67   S    
C72   O130  A    
O167  S12   S    
C65   O68   A    
C13   C44   A    
O171  S23   S    
C110  C128  A    
H17   O3    S    
C27   C115  A    
C25   C31   A    
C65   O46   A    
O180  Zn16  S    
C66   O101  A    
C26   C32   A    
C57   C66   S    
O149  Zn1   S    
O1    Zn3   S    
O136  Zn12  S    
C27   C33   A    
C127  S45   S    
O193  S2    D    
O204  S5    S    
O8    S10   D    
C78   C118  S    
C14   S37   S    
O49   S24   S    
O65   S29   S    
C7    S13   S    
C43   C52   S    
O30   S18   D    
O157  Zn12  S    
C130  S48   S    
O94   S39   D    
H49   O98   S    
H44   O85   S    
O112  Zn11  S    
O32   S18   S    
C80   O154  A    
O166  S12   D    
O1    Zn16  S    
O2    Zn8   S    
O3    S8    S    
C23   H23   S    
C81   C114  S    
O103  S42   D    
H52   O108  S    
O158  Zn3   S    
O27   S17   D    
O58   S27   D    
C4    C91   S    
O207  S6    S    
O189  S48   D    
O100  S41   D    
O66   S30   D    
C18   C95   S    
C14   C17   S    
H50   O102  S    
O147  Zn6   S    
O84   S36   D    
H48   O95   S    
O163  S1    D    
C35   C82   A    
C2    C45   A    
C88   C94   A    
O54   S26   D    
C28   C82   A    
C10   S33   S    
O169  Zn4   S    
C66   O79   A    
H27   O32   S    
O76   S33   D    
O128  Zn2   S    
O16   S13   S    
C6    C94   S    
O95   S39   S    
O62   S28   S    
O78   S33   S    
C136  S7    S    
O147  Zn13  S    
C99   C117  A    
O146  Zn1   S    
C48   C62   T    
C87   C105  A    
C19   S25   S    
O52   S25   S    
O108  S43   S    
H36   O59   S    
C6    S29   S    
H37   O62   S    
O107  S43   D    
O191  Zn2   S    
C84   O142  A    
O156  Zn13  S    
O161  Zn13  S    
C23   C126  A    
O143  Zn6   S    
O43   S22   D    
C27   H56   S    
O141  Zn8   S    
C64   O57   A    
H25   O26   S    
O28   S17   D    
C71   O24   A    
C76   O150  A    
C30   C46   S    
C68   O146  A    
O64   S29   D    
O14   S13   D    
C49   C59   S    
C38   O117  D    
C122  C125  A    
C90   C108  A    
C121  S1    S    
C74   C105  S    
O70   S31   D    
C92   C110  A    
C60   O202  A    
C2    C42   S    
H4    O174  S    
C38   C93   S    
C62   C71   S    
O80   S35   D    
C77   O135  A    
C8    S31   S    
C1    O180  A    
O173  S34   D    
O15   S13   D    
C83   O161  A    
C16   C101  S    
O212  S8    D    
O159  Zn15  S    
C16   S39   S    
O153  Zn14  S    
C112  C130  A    
C97   C114  A    
C25   H34   S    
C131  S2    S    
C20   S43   S    
H28   O36   S    
O39   S20   S    
C83   C113  S    
C130  C135  A    
O34   S19   D    
C131  C134  A    
C18   S41   S    
O202  Zn7   S    
O199  S4    D    
H43   O82   S    
O182  S46   D    
C3    S8    S    
O209  S7    D    
O93   S39   D    
O178  S45   D    
O124  Zn16  S    
H16   O210  S    
C121  C127  A    
C86   C91   A    
O196  S3    D    
C135  S6    S    
C9    S15   S    
O86   S37   D    
O24   Zn6   S    
C81   O140  A    
C75   O149  A    
C20   S26   S    
C6    S11   S    
C19   S42   S    
C111  C129  A    
H22   O19   S    
C39   O119  D    
O61   S28   D    
C97   C102  A    
C124  C128  A    
C133  S4    S    
O192  S2    D    
O18   S14   D    
C72   C111  S    
O195  S3    D    
C36   O111  D    
C31   C47   S    
C72   O145  A    
C32   C48   S    
C117  C134  A    
C37   O116  S    
O179  S45   D    
O175  S44   D    
O142  Zn7   S    
O87   S37   D    
H15   O207  S    
C95   C100  A    
O6    S9    S    
O164  S1    S    
O19   S14   S    
O53   S26   D    
C28   H62   S    
C3    C132  A    
H13   O200  S    
O104  S42   D    
H60   O125  S    
C81   O160  A    
O13   Zn5   S    
C49   O169  A    
O38   S20   D    
O75   S32   S    
C7    S30   S    
O77   S33   D    
H51   O105  S    
C89   C107  A    
O148  Zn9   S    
O99   S41   D    
H57   O118  S    
C64   O35   A    
C76   O134  A    
O89   S38   D    
O46   Zn9   S    
O81   S35   D    
O211  S8    D    
C22   C24   A    
C96   C113  A    
C100  C118  A    
C69   O148  A    
C42   O126  D    
C102  C120  A    
H41   O75   S    
H61   O127  S    
O33   S19   D    
H21   O16   S    
C53   C57   T    
C83   O141  A    
O140  Zn5   S    
H38   O65   S    
C41   C126  S    
O63   S29   D    
O88   S37   S    
C1    C61   S    
C47   C61   T    
O82   S35   S    
O44   S22   D    
C98   C101  A    
C21   C30   A    
O29   S17   S    
O10   S11   D    
C18   S24   S    
C29   C93   A    
C73   O131  A    
O25   S16   D    
C80   O139  A    
C79   C117  S    
H19   O9    S    
C43   C93   A    
C2    C25   A    
H7    O184  S    
C49   O191  A    
C12   S36   S    
O92   S38   S    
C12   C100  S    
O208  S7    D    
O5    S9    D    
O185  S47   D    
C26   H45   S    
O112  Zn2   S    
C87   C90   A    
H35   O55   S    
O57   Zn10  S    
H8    O187  S    
C70   C108  S    
O205  S6    D    
O50   S25   D    
C118  C135  A    
O132  Zn4   S    
C69   O128  A    
O9    S10   S    
C80   C120  S    
C14   S19   S    
C46   C59   T    
H20   O12   S    
O23   S16   D    
O90   Zn13  S    
C14   C99   S    
C128  S46   S    
C16   S21   S    
C75   O133  A    
C67   O90   A    
C44   C126  A    
O56   S27   D    
O201  S5    D    
C60   C63   S    
C24   C45   A    
H33   O52   S    
C12   S18   S    
H47   O92   S    
C40   O121  D    
O133  Zn3   S    
O155  Zn12  S    
C73   O151  A    
O73   S32   D    
C56   C65   S    
C41   O125  S    
C7    C10   S    
O91   S38   D    
C43   C115  A    
C69   C109  S    
O197  S3    S    
O31   S18   D    
C67   O113  A    
C106  C123  A    
C105  C122  A    
C133  C136  A    
C108  C125  A    
H59   O122  S    
C5    C90   S    
C85   O159  A    
O137  Zn6   S    
O129  Zn3   S    
O154  Zn15  S    
C123  C129  A    
O101  Zn14  S    
H6    O181  S    
C86   C103  A    
C19   C98   S    
C79   O153  A    
C77   O155  A    
C11   S35   S    
O79   Zn12  S    
C16   C19   S    
O206  S6    D    
O1    Zn10  S    
H29   O39   S    
C22   C31   A    
C101  C119  A    
C23   C30   A    
C10   C89   S    
C41   O123  D    
O12   S11   S    
O102  S41   S    
C68   C110  S    
H31   O45   S    
C34   C104  S    
O152  Zn9   S    
C38   O118  S    
C60   O13   A    
O177  S44   S    
O165  S12   D    
C9    C86   S    
H3    O171  S    
O194  S2    S    
C98   C116  A    
O112  Zn4   S    
O162  S1    D    
C11   C88   S    
C9    S32   S    
C55   C64   S    
O51   S25   D    
O184  S46   S    
C89   C92   A    
O160  Zn14  S    
H53   O110  S    
H18   O6    S    
C74   O132  A    
C45   C54   S    
O170  S23   D    
O168  S23   D    
O35   Zn1   S    
O200  S4    S    
O83   S36   D    
C10   S16   S    
H40   O72   S    
C54   C58   T    
O135  Zn5   S    
O55   S26   S    
O69   S30   S    
C113  C131  A    
C15   S38   S    
C114  C132  A    
O139  Zn8   S    
C125  S44   S    
O40   S21   D    
C77   C119  S    
O106  S43   D    
O190  S48   S    
C5    S28   S    
H54   O114  S    
C8    C87   S    
C91   C109  A    
C4    C9    S    
H2    O167  S    
H46   O88   S    
C73   C106  S    
H30   O42   S    
C24   C40   S    
C8    S14   S    
O17   S14   D    
C15   C102  S    
C37   C82   S    
O183  S46   D    
C13   C39   S    
C3    C120  A    
O36   S19   S    
C74   O152  A    
C123  S23   S    
H55   O116  S    
C12   C18   S    
H10   O194  S    
O151  Zn10  S    
O68   Zn11  S    
C36   C115  S    
O59   S27   S    
O186  S47   D    
C52   C56   T    
O136  Zn5   S    
