data_mof_unit_52584.cif
_audit_creation_date              2012-12-11T15:39:11-0500
_audit_creation_method            fapswitch 2.2
_symmetry_space_group_name_H-M    P1
_symmetry_Int_Tables_number       1
_space_group_crystal_system       triclinic
_cell_length_a                    14.350807
_cell_length_b                    14.787312
_cell_length_c                    33.185837
_cell_angle_alpha                 97.543966
_cell_angle_beta                  90.343479
_cell_angle_gamma                 118.896233
_cell_volume                      6092.60335633

loop_
_atom_site_label
_atom_site_type_symbol
_atom_type_description
_atom_site_fract_x
_atom_site_fract_y
_atom_site_fract_z
_atom_type_partial_charge
C1    C     C_R   0.616889 0.910432 0.436978 0.543505
C2    C     C_R   0.742683 0.425140 0.187917 0.030608
C3    C     C_R   0.757144 0.868317 0.638803 -0.119137
C4    C     C_R   0.672313 0.784994 0.654166 0.033338
C5    C     C_R   0.636738 0.858882 0.584694 0.019338
C6    C     C_R   0.052784 0.781670 0.063824 0.564950
C7    C     C_R   0.743990 0.486864 0.066237 0.547444
C8    C     C_R   0.742611 0.789229 0.066340 0.556235
C9    C     C_R   0.021489 0.732053 0.947352 0.530826
C10   C     C_R   0.712435 0.438136 0.949140 0.534126
C11   C     C_R   0.743552 0.716491 0.945947 0.561461
C12   C     C_R   0.830169 0.440942 0.165359 -0.117803
C13   C     C_R   0.828006 0.453807 0.124545 -0.123338
C14   C     C_R   0.782002 0.357231 0.246836 -0.112824
C15   C     C_R   0.774940 0.344789 0.287784 -0.110966
C16   C     C_R   0.733967 0.396807 0.314298 0.031030
C17   C     C_R   0.706040 0.466072 0.299735 -0.114578
C18   C     C_R   0.712558 0.478016 0.258767 -0.112526
C19   C     C_R   0.747535 0.421252 0.231845 0.029918
C20   C     C_R   0.607440 0.346716 0.368665 -0.117813
C21   C     C_R   0.594095 0.205702 0.456672 0.544357
C22   C     C_R   0.572807 0.299585 0.403317 -0.125968
C23   C     C_R   0.741061 0.301038 0.413246 -0.126620
C24   C     C_R   0.775786 0.348473 0.378648 -0.121551
C25   C     C_R   0.707646 0.367987 0.355216 0.032820
C26   C     C_R   0.637679 0.272566 0.424944 0.022002
C27   C     C_R   0.245184 0.878736 0.393420 0.020227
C28   C     C_R   0.232745 0.960142 0.381053 -0.127383
C29   C     C_R   0.209858 0.958906 0.339956 -0.114544
C30   C     C_R   0.198404 0.876096 0.310856 0.040186
C31   C     C_R   0.203473 0.791487 0.323151 -0.112700
C32   C     C_R   0.295602 0.892881 0.434418 0.541911
C33   C     C_R   0.226503 0.792557 0.364212 -0.127937
C34   C     C_R   0.180570 0.792980 0.164425 -0.125787
C35   C     C_R   0.152784 0.771881 0.122704 -0.152508
C36   C     C_R   0.118712 0.918663 0.128085 0.150447
C37   C     C_R   0.146107 0.938589 0.170213 -0.079779
C38   C     C_R   0.172362 0.873012 0.188495 0.007931
C39   C     C_1   0.182492 0.880761 0.232027 -0.025768
C40   C     C_1   0.189005 0.880573 0.268176 -0.025549
C41   C     C_R   0.114595 0.829588 0.104210 0.031931
C42   C     C_R   0.637219 0.879497 0.395306 0.020254
C43   C     C_R   0.613882 0.904728 0.551553 0.543436
C44   C     C_R   0.552265 0.801701 0.368177 -0.130102
C45   C     C_R   0.564226 0.790592 0.326411 -0.116796
C46   C     C_R   0.661200 0.856415 0.311485 0.038558
C47   C     C_R   0.748380 0.928688 0.338464 -0.114095
C48   C     C_R   0.736645 0.940095 0.380210 -0.125758
C49   C     C_R   0.772264 0.925473 0.173471 -0.109551
C50   C     C_R   0.787427 0.911319 0.132054 -0.114065
C51   C     C_R   0.619155 0.748989 0.121850 -0.124917
C52   C     C_R   0.604012 0.763489 0.163115 -0.113667
C53   C     C_R   0.682410 0.849544 0.189186 0.036833
C54   C     C_R   0.589789 0.199624 0.570815 0.541555
C55   C     C_1   0.675114 0.853935 0.232327 -0.030326
C56   C     C_1   0.669073 0.854879 0.268446 -0.031055
C57   C     C_R   0.713450 0.820261 0.106287 0.016267
C58   C     C_R   0.623998 0.251930 0.613465 0.019873
C59   C     C_R   0.559989 0.285022 0.635804 -0.129248
C60   C     C_R   0.577724 0.311423 0.678149 -0.116555
C61   C     C_R   0.659608 0.305313 0.698512 0.041381
C62   C     C_R   0.728453 0.279873 0.676359 -0.114291
C63   C     C_R   0.711139 0.253747 0.633998 -0.129454
C64   C     C_R   0.764536 0.349654 0.844615 -0.115656
C65   C     C_R   0.288837 0.886677 0.548434 0.544523
C66   C     C_R   0.773266 0.373812 0.887031 -0.128386
C67   C     C_R   0.594626 0.352382 0.884599 -0.124882
C68   C     C_R   0.586133 0.328184 0.842195 -0.113110
C69   C     C_R   0.672501 0.330561 0.822146 0.041971
C70   C     C_1   0.669695 0.321691 0.778600 -0.031373
C71   C     C_1   0.666544 0.315531 0.742102 -0.032098
C72   C     C_R   0.690237 0.380193 0.907319 0.022188
C73   C     C_R   0.064055 0.751117 0.907513 0.022141
C74   C     C_R   0.101914 0.849680 0.895524 -0.141006
C75   C     C_R   0.117346 0.861076 0.854690 -0.127733
C76   C     C_R   0.738049 0.450556 0.105811 0.020985
C77   C     C_R   0.095183 0.774029 0.825476 0.030891
C78   C     C_R   0.064069 0.677086 0.838030 -0.117684
C79   C     C_R   0.049292 0.665864 0.878771 -0.119772
C80   C     C_R   0.142758 0.730668 0.756471 -0.113038
C81   C     C_R   0.146760 0.737586 0.715146 -0.111211
C82   C     C_R   0.107959 0.796447 0.698328 0.032931
C83   C     C_R   0.063288 0.846895 0.723413 -0.109465
C84   C     C_R   0.059597 0.840227 0.764915 -0.109897
C85   C     C_R   0.099967 0.782539 0.781783 0.033026
C86   C     C_R   0.174027 0.917370 0.647110 -0.120858
C87   C     C_R   0.647961 0.427587 0.127810 -0.119219
C88   C     C_R   0.219734 0.939870 0.610322 -0.129249
C89   C     C_R   0.163204 0.756265 0.589313 -0.128088
C90   C     C_R   0.116735 0.733700 0.625918 -0.121930
C91   C     C_R   0.127290 0.814911 0.655977 0.032218
C92   C     C_R   0.219747 0.860199 0.582215 0.022032
C93   C     C_R   0.728315 0.701627 0.901140 0.016135
C94   C     C_R   0.629597 0.635817 0.878634 -0.123619
C95   C     C_R   0.620612 0.634849 0.836321 -0.115693
C96   C     C_R   0.710610 0.698302 0.816416 0.032546
C97   C     C_R   0.810081 0.755878 0.838717 -0.114187
C98   C     C_R   0.650469 0.415360 0.168558 -0.116545
C99   C     C_R   0.818388 0.758589 0.880458 -0.122842
C100  C     C_R   0.754727 0.819414 0.765579 -0.114779
C101  C     C_R   0.747412 0.840375 0.726464 -0.114901
C102  C     C_R   0.686319 0.759019 0.694656 0.032773
C103  C     C_R   0.633062 0.655458 0.702953 -0.111849
C104  C     C_R   0.640335 0.634334 0.742488 -0.110811
C105  C     C_R   0.701375 0.716458 0.774127 0.032887
C106  C     C_R   0.571079 0.734847 0.632870 -0.119500
C107  C     C_R   0.553572 0.771154 0.598415 -0.126875
C108  C     C_R   0.739369 0.905409 0.604580 -0.128632
Cr1   Cr    Cr6+3 0.424820 0.846020 0.489780 1.009059
Cr2   Cr    Cr6+3 0.657880 0.078580 0.505700 1.008247
Cr3   Cr    Cr6+3 0.417280 0.075360 0.504550 1.008610
Cr4   Cr    Cr6+3 0.903360 0.812540 0.006510 1.061146
Cr5   Cr    Cr6+3 0.914630 0.587050 0.006280 1.007918
Cr6   Cr    Cr6+3 0.673560 0.582680 0.008540 1.015396
H1    H     H_    0.577301 0.424085 0.114184 0.136507
H2    H     H_    0.492904 0.278878 0.411708 0.126391
H3    H     H_    0.901853 0.448188 0.179791 0.106861
H4    H     H_    0.793383 0.282386 0.429704 0.123419
H5    H     H_    0.153819 0.704885 0.105512 0.137401
H6    H     H_    0.202666 0.742845 0.178240 0.116315
H7    H     H_    0.194284 0.726793 0.300774 0.107124
H8    H     H_    0.235894 0.728937 0.372648 0.123505
H9    H     H_    0.246753 0.027743 0.402742 0.124116
H10   H     H_    0.143012 0.002835 0.188861 0.138022
H11   H     H_    0.898733 0.471624 0.108370 0.129808
H12   H     H_    0.205630 0.024527 0.330719 0.107343
H13   H     H_    0.860259 0.967856 0.120902 0.178918
H14   H     H_    0.833108 0.992700 0.193527 0.117796
H15   H     H_    0.823945 0.979458 0.327097 0.107899
H16   H     H_    0.803570 0.000523 0.400331 0.126082
H17   H     H_    0.474592 0.754199 0.378797 0.125797
H18   H     H_    0.533933 0.704667 0.175047 0.108224
H19   H     H_    0.560234 0.678427 0.102736 0.127726
H20   H     H_    0.496483 0.734061 0.305641 0.106315
H21   H     H_    0.848054 0.395045 0.903544 0.125224
H22   H     H_    0.854055 0.365747 0.369200 0.102744
H23   H     H_    0.831626 0.351218 0.829270 0.103788
H24   H     H_    0.792265 0.275302 0.691951 0.105816
H25   H     H_    0.761875 0.228656 0.617717 0.126886
H26   H     H_    0.492499 0.284752 0.620896 0.123569
H27   H     H_    0.514379 0.313028 0.824950 0.104519
H28   H     H_    0.529387 0.356902 0.899187 0.128758
H29   H     H_    0.524401 0.331620 0.695139 0.099779
H30   H     H_    0.113875 0.916413 0.917309 0.123262
H31   H     H_    0.018835 0.588692 0.887162 0.125003
H32   H     H_    0.078896 0.653767 0.631882 0.105287
H33   H     H_    0.795580 0.289729 0.298093 0.105768
H34   H     H_    0.184445 0.700416 0.696675 0.103608
H35   H     H_    0.175774 0.686986 0.768830 0.102182
H36   H     H_    0.143537 0.937082 0.845767 0.106234
H37   H     H_    0.032904 0.892677 0.711033 0.099090
H38   H     H_    0.025362 0.880283 0.783728 0.090592
H39   H     H_    0.183467 0.981395 0.669885 0.102297
H40   H     H_    0.262186 0.020617 0.605375 0.126630
H41   H     H_    0.045597 0.608547 0.816064 0.102952
H42   H     H_    0.160194 0.693209 0.567636 0.124672
H43   H     H_    0.559185 0.589528 0.893827 0.123727
H44   H     H_    0.809059 0.312726 0.226486 0.107784
H45   H     H_    0.895399 0.808894 0.896960 0.137575
H46   H     H_    0.836680 0.907132 0.654083 0.100264
H47   H     H_    0.786743 0.921130 0.721533 0.100198
H48   H     H_    0.800379 0.884645 0.789535 0.102765
H49   H     H_    0.542884 0.589235 0.819667 0.102034
H50   H     H_    0.585658 0.591047 0.678957 0.100415
H51   H     H_    0.599044 0.554272 0.748291 0.101401
H52   H     H_    0.503892 0.671280 0.644094 0.101233
H53   H     H_    0.473476 0.733357 0.583692 0.129070
H54   H     H_    0.881066 0.803367 0.824149 0.106581
H55   H     H_    0.581163 0.400653 0.185279 0.112082
H56   H     H_    0.805268 0.972162 0.594375 0.123776
H57   H     H_    0.675766 0.508170 0.319734 0.106266
H58   H     H_    0.687835 0.529672 0.247846 0.110012
H59   H     H_    0.552823 0.359981 0.350928 0.104685
O1    O     O_R   0.318160 0.824460 0.443680 -0.521579
O2    O     O_R   0.645130 0.163230 0.552140 -0.502478
O3    O     O_R   0.498360 0.178430 0.555780 -0.520101
O4    O     O_R   0.328690 0.978040 0.538950 -0.501772
O5    O     O_3   0.499990 0.999990 0.500010 -0.233207
O6    O     O_R   0.828710 0.851830 0.052170 -0.477000
O7    O     O_R   0.005980 0.823990 0.047210 -0.441702
O8    O     O_R   0.031900 0.688850 0.050170 -0.528510
O9    O     O_R   0.830940 0.518420 0.048680 -0.498906
O10   O     O_R   0.668160 0.499860 0.053480 -0.514367
O11   O     O_R   0.689170 0.693840 0.050110 -0.500737
O12   O     O_R   0.525040 0.857250 0.449830 -0.502588
O13   O     O_R   0.803860 0.812940 0.962540 -0.508106
O14   O     O_R   0.982950 0.787950 0.964120 -0.525886
O15   O     O_R   0.007050 0.649970 0.960540 -0.516977
O16   O     O_R   0.807910 0.482370 0.965590 -0.504627
O17   O     O_R   0.643310 0.460980 0.963840 -0.523684
O18   O     O_R   0.666140 0.657800 0.967020 -0.500252
O19   O     O_3   0.830520 0.660760 0.007110 -0.271369
O20   O     O_R   0.684760 0.998800 0.456360 -0.518369
O21   O     O_R   0.647540 0.166310 0.470260 -0.501536
O22   O     O_R   0.500960 0.181750 0.467450 -0.520045
O23   O     O_R   0.331100 0.981120 0.457080 -0.501482
O24   O     O_R   0.315560 0.821140 0.532010 -0.520369
O25   O     O_R   0.522630 0.854180 0.531710 -0.501139
O26   O     O_R   0.682160 0.995480 0.544690 -0.519207
Br1   Br    Br    0.085626 0.014624 0.106185 -0.538625

loop_
_geom_bond_atom_site_label_1
_geom_bond_atom_site_label_2
_ccdc_geom_bond_type
C65   C92   S    
C21   C26   S    
C101  C102  A    
Cr6   O17   S    
C99   H45   S    
C11   O13   A    
C51   H19   S    
C73   C74   A    
Cr1   O24   S    
C95   C96   A    
C100  C105  A    
C32   O23   A    
C9    O15   A    
C2    C12   A    
C23   H4    S    
C81   C82   A    
C36   C41   A    
C28   H9    S    
C79   H31   S    
C77   C78   A    
C27   C33   A    
C44   H17   S    
C45   H20   S    
C80   C85   A    
C9    C73   S    
C47   H15   S    
C83   C84   A    
C106  C107  A    
C106  H52   S    
C36   C37   A    
C86   H39   S    
C67   C72   A    
C108  H56   S    
C86   C91   A    
C60   H29   S    
Cr4   O13   S    
C38   C39   S    
C86   C88   A    
C78   H41   S    
C20   C25   A    
Cr2   O5    S    
C75   H36   S    
C15   C16   A    
C58   C63   A    
C18   C19   A    
C34   C35   A    
C23   C26   A    
C54   O3    A    
C49   H14   S    
C104  H51   S    
C98   H55   S    
C35   H5    S    
Cr1   O5    S    
C66   C72   A    
C88   C92   A    
C16   C17   A    
C6    C41   S    
C4    C102  S    
Cr2   O21   S    
Cr3   O5    S    
C23   C24   A    
C31   C33   A    
C70   C71   T    
C51   C57   A    
C21   O21   A    
C29   C30   A    
C93   C99   A    
C87   H1    S    
C61   C62   A    
Cr3   O23   S    
Cr4   O7    S    
C87   C98   A    
C13   H11   S    
C8    O11   A    
C22   H2    S    
C5    C43   S    
C77   C85   S    
C59   C60   A    
C29   H12   S    
C3    H46   S    
C48   H16   S    
Cr1   O25   S    
C69   C70   S    
C42   C44   A    
Cr4   O14   S    
C104  C105  A    
C97   C99   A    
C83   H37   S    
C64   H23   S    
C53   C55   S    
C34   H6    S    
C80   H35   S    
C107  H53   S    
C10   O16   A    
Cr6   O19   S    
C74   C75   A    
C6    O8    A    
Cr3   O3    S    
C52   H18   S    
C47   C48   A    
C24   C25   A    
C31   H7    S    
C39   C40   T    
C11   C93   S    
Cr1   O1    S    
C68   C69   A    
C89   H42   S    
C42   C48   A    
Cr1   O12   S    
C58   C59   A    
Cr2   O2    S    
Cr5   O15   S    
C4    C106  A    
C62   H24   S    
C82   C91   S    
C67   C68   A    
C60   C61   A    
C21   O22   A    
C88   H40   S    
C54   O2    A    
C1    O20   A    
C37   C38   A    
C95   H49   S    
C8    C57   S    
Cr4   O19   S    
C37   H10   S    
C20   H59   S    
C13   C76   A    
C66   H21   S    
C81   H34   S    
C96   C97   A    
C62   C63   A    
C54   C58   S    
C17   C18   A    
C73   C79   A    
C30   C40   S    
C68   H27   S    
C93   C94   A    
C10   O17   A    
C64   C69   A    
C84   C85   A    
C89   C92   A    
C75   C77   A    
C76   C87   A    
Cr4   O6    S    
C65   O24   A    
C84   H38   S    
C14   H44   S    
C49   C50   A    
C94   H43   S    
C1    O12   A    
C33   H8    S    
Cr5   O8    S    
C3    C4    A    
Cr6   O11   S    
Cr5   O9    S    
C103  C104  A    
C52   C53   A    
C96   C105  S    
C5    C107  A    
Cr2   O20   S    
C16   C25   S    
Cr5   O19   S    
C74   H30   S    
C46   C47   A    
C28   C29   A    
Cr6   O18   S    
C7    O9    A    
C6    O7    A    
Cr2   O26   S    
C34   C38   A    
C50   C57   A    
C63   H25   S    
C14   C19   A    
C44   C45   A    
C36   Br1   S    
C20   C22   A    
C80   C81   A    
C9    O14   A    
C43   O26   A    
C17   H57   S    
C103  H50   S    
C7    C76   S    
C32   O1    A    
C18   H58   S    
C3    C108  A    
C97   H54   S    
Cr5   O16   S    
C7    O10   A    
C101  H47   S    
C51   C52   A    
C90   H32   S    
C15   H33   S    
C78   C79   A    
C8    O6    A    
C24   H22   S    
C90   C91   A    
C30   C31   A    
Cr3   O22   S    
C65   O4    A    
C59   H26   S    
C49   C53   A    
C100  C101  A    
C43   O25   A    
C11   O18   A    
C102  C103  A    
C35   C41   A    
C27   C32   S    
C55   C56   T    
C61   C71   S    
C12   H3    S    
C45   C46   A    
C1    C42   S    
C12   C13   A    
C2    C98   A    
C82   C83   A    
C22   C26   A    
C46   C56   S    
C27   C28   A    
Cr3   O4    S    
C14   C15   A    
C100  H48   S    
C50   H13   S    
C89   C90   A    
C67   H28   S    
C94   C95   A    
Cr6   O10   S    
C2    C19   S    
C64   C66   A    
C5    C108  A    
C10   C72   S    
