data_mof_unit_9212.cif
_audit_creation_date              2012-12-11T15:56:54-0500
_audit_creation_method            fapswitch 2.2
_symmetry_space_group_name_H-M    P1
_symmetry_Int_Tables_number       1
_space_group_crystal_system       triclinic
_cell_length_a                    17.6253
_cell_length_b                    24.525769
_cell_length_c                    14.968888
_cell_angle_alpha                 90.120424
_cell_angle_beta                  126.025231
_cell_angle_gamma                 89.922431
_cell_volume                      5233.18824344

loop_
_atom_site_label
_atom_site_type_symbol
_atom_type_description
_atom_site_fract_x
_atom_site_fract_y
_atom_site_fract_z
_atom_type_partial_charge
C1    C     C_R   0.310293 0.124747 0.908232 -0.058752
C2    C     C_R   0.310568 0.875047 0.908043 -0.067150
C3    C     C_R   0.810247 0.624751 0.908349 -0.059668
C4    C     C_R   0.811149 0.374137 0.908211 -0.065945
C5    C     C_R   0.652402 0.150024 0.093628 -0.043255
C6    C     C_R   0.650969 0.849497 0.093496 -0.038172
C7    C     C_R   0.152502 0.650060 0.093227 -0.025871
C8    C     C_R   0.151566 0.349697 0.093481 -0.037814
C9    C     C_R   0.559503 0.848188 0.909588 -0.156552
C10   C     C_R   0.560304 0.151345 0.909555 -0.151142
C11   C     C_R   0.059874 0.348356 0.909500 -0.156131
C12   C     C_R   0.059786 0.651366 0.909186 -0.141943
C13   C     C_R   0.551062 0.999753 0.728081 0.016540
C14   C     C_R   0.050927 0.499800 0.727973 0.015989
C15   C     C_R   0.822911 0.000517 0.273640 0.108143
C16   C     C_R   0.323106 0.500350 0.273958 0.140153
C17   C     C_R   0.627393 0.179822 0.002583 0.014156
C18   C     C_R   0.625186 0.819163 0.002569 0.011257
C19   C     C_R   0.127031 0.679925 0.001810 0.011047
C20   C     C_R   0.126101 0.319548 0.002461 0.013524
C21   C     C_3   0.021918 0.952723 0.507594 -0.094500
C22   C     C_3   0.019124 0.041930 0.519327 -0.094882
C23   C     C_3   0.518599 0.453992 0.513573 -0.091518
C24   C     C_3   0.519174 0.543431 0.518078 -0.110106
C25   C     C_3   0.947931 0.995562 0.481874 -0.120633
C26   C     C_3   0.445783 0.498656 0.482482 -0.139817
C27   C     C_3   0.921370 0.000873 0.363447 -0.037463
C28   C     C_3   0.421412 0.500484 0.364555 -0.034009
C29   C     C_3   0.995684 0.958259 0.389918 -0.140627
C30   C     C_3   0.992870 0.047203 0.401722 -0.109184
C31   C     C_3   0.494521 0.455840 0.396550 -0.146149
C32   C     C_3   0.495527 0.545149 0.401553 -0.101362
C33   C     C_3   0.068662 0.004637 0.428592 -0.231626
C34   C     C_3   0.569781 0.500573 0.433574 -0.229214
C35   C     C_R   0.405824 0.873969 0.094015 -0.114125
C36   C     C_R   0.405398 0.125519 0.094159 -0.111014
C37   C     C_R   0.906473 0.373396 0.094272 -0.112552
C38   C     C_R   0.905196 0.625320 0.094167 -0.111363
C39   C     C_3   0.093117 0.999169 0.545270 0.084305
C40   C     C_3   0.591742 0.498932 0.549221 0.107412
C41   C     C_3   0.167529 0.827823 0.958600 -0.343635
C42   C     C_3   0.163976 0.172336 0.950872 -0.343785
C43   C     C_3   0.667374 0.326986 0.955800 -0.346005
C44   C     C_3   0.662514 0.672228 0.948216 -0.343622
C45   C     C_3   0.613521 0.277361 0.955001 -0.431341
C46   C     C_3   0.608675 0.722136 0.947371 -0.430337
C47   C     C_3   0.114330 0.778278 0.959480 -0.435200
C48   C     C_3   0.110227 0.222289 0.949818 -0.431681
C49   C     C_3   0.816426 0.288616 0.122297 -0.388404
C50   C     C_3   0.809103 0.706713 0.123326 -0.386105
C51   C     C_3   0.317478 0.787720 0.120515 -0.393975
C52   C     C_3   0.311657 0.208277 0.122880 -0.386940
C53   C     C_3   0.261204 0.764780 0.922990 -0.303792
C54   C     C_3   0.266895 0.235943 0.932034 -0.303981
C55   C     C_3   0.764692 0.263240 0.927354 -0.305055
C56   C     C_3   0.768412 0.736066 0.935145 -0.303039
C57   C     C_3   0.267929 0.810426 0.001431 0.249583
C58   C     C_3   0.266833 0.188519 0.002615 0.244198
C59   C     C_3   0.768791 0.309848 0.002468 0.245682
C60   C     C_3   0.766085 0.688020 0.002910 0.242128
C61   C     C_3   0.678644 0.226556 0.003015 0.283317
C62   C     C_3   0.675893 0.771744 0.003399 0.284960
C63   C     C_3   0.177850 0.726773 0.001274 0.291820
C64   C     C_3   0.176885 0.272280 0.003110 0.284917
C65   C     C_3   0.763381 0.240401 0.122708 -0.366594
C66   C     C_3   0.755799 0.755064 0.123645 -0.369873
C67   C     C_3   0.265815 0.738535 0.119998 -0.376568
C68   C     C_3   0.258469 0.256609 0.123243 -0.370088
C69   C     C_3   0.712554 0.213077 0.929106 -0.305370
C70   C     C_3   0.716305 0.786297 0.936902 -0.301092
C71   C     C_3   0.206567 0.715062 0.921543 -0.304667
C72   C     C_3   0.215064 0.286303 0.933985 -0.302243
C73   C     C_3   0.619095 0.049768 0.644002 -0.353650
C74   C     C_3   0.613569 0.947606 0.639526 -0.357574
C75   C     C_3   0.118007 0.549948 0.643077 -0.350532
C76   C     C_3   0.113558 0.447823 0.639481 -0.356928
C77   C     C_R   0.547280 0.045358 0.304297 -0.115237
C78   C     C_R   0.547407 0.954554 0.304031 -0.118310
C79   C     C_R   0.046776 0.545367 0.304021 -0.117740
C80   C     C_R   0.046670 0.454525 0.303650 -0.114358
C81   C     C_3   0.621564 0.049988 0.542908 -0.387362
C82   C     C_3   0.615633 0.947438 0.538288 -0.392908
C83   C     C_3   0.118629 0.550713 0.540791 -0.388674
C84   C     C_3   0.116731 0.448073 0.539028 -0.391149
C85   C     C_3   0.461845 0.001468 0.529370 -0.386837
C86   C     C_3   0.961195 0.501111 0.529186 -0.386522
C87   C     C_3   0.562605 0.999638 0.638413 0.326805
C88   C     C_3   0.062099 0.499670 0.638069 0.323789
C89   C     C_3   0.567508 0.999763 0.468306 0.344866
C90   C     C_3   0.066511 0.499763 0.467693 0.343812
C91   C     C_3   0.464849 0.001709 0.429982 -0.380054
C92   C     C_3   0.963883 0.500399 0.429569 -0.379471
C93   C     C_R   0.237817 0.953922 0.701286 -0.090988
C94   C     C_R   0.237495 0.045498 0.700622 -0.104465
C95   C     C_R   0.736548 0.453833 0.703395 -0.104750
C96   C     C_R   0.736271 0.545507 0.702637 -0.099283
C97   C     C_R   0.318618 0.141603 0.002243 -0.016674
C98   C     C_R   0.319392 0.857562 0.001827 -0.017729
C99   C     C_R   0.818241 0.641271 0.002358 -0.016900
C100  C     C_R   0.820282 0.356722 0.002257 -0.015450
C101  C     C_R   0.562384 0.999907 0.366808 -0.001711
C102  C     C_R   0.061247 0.499894 0.366179 -0.003681
C103  C     C_R   0.186120 0.999489 0.646566 0.112196
C104  C     C_R   0.684135 0.499430 0.650590 0.120549
C105  C     C_R   0.520861 0.045588 0.753785 -0.121246
C106  C     C_R   0.520784 0.954132 0.753839 -0.123612
C107  C     C_R   0.020753 0.545619 0.753720 -0.111574
C108  C     C_R   0.020782 0.454157 0.753821 -0.122537
C109  C     C_R   0.768497 0.954348 0.247737 -0.044668
C110  C     C_R   0.768156 0.046183 0.248657 -0.035632
C111  C     C_R   0.268495 0.454280 0.248035 -0.060761
C112  C     C_R   0.268319 0.546096 0.248922 -0.009578
H1    H     H_    0.253330 0.133018 0.823331 0.114154
H2    H     H_    0.253556 0.867126 0.823028 0.128833
H3    H     H_    0.753409 0.633326 0.823579 0.118165
H4    H     H_    0.754482 0.365513 0.823377 0.121967
H5    H     H_    0.120709 0.008234 0.409757 0.152431
H6    H     H_    0.623092 0.501236 0.416397 0.147999
H7    H     H_    0.170216 0.860801 0.011618 0.177243
H8    H     H_    0.161729 0.138761 0.999197 0.182972
H9    H     H_    0.668138 0.360117 0.007281 0.179524
H10   H     H_    0.658638 0.638171 0.994428 0.183151
H11   H     H_    0.129306 0.844259 0.873197 0.204061
H12   H     H_    0.129231 0.157158 0.865005 0.195110
H13   H     H_    0.630791 0.343113 0.870387 0.202744
H14   H     H_    0.628907 0.657877 0.862078 0.200363
H15   H     H_    0.050030 0.771471 0.874326 0.174913
H16   H     H_    0.050699 0.231466 0.862990 0.165207
H17   H     H_    0.551792 0.269341 0.868693 0.170720
H18   H     H_    0.550070 0.731980 0.860479 0.164866
H19   H     H_    0.587600 0.287004 0.005401 0.190431
H20   H     H_    0.578017 0.711773 0.992319 0.195052
H21   H     H_    0.092654 0.787295 0.014379 0.189343
H22   H     H_    0.081026 0.212350 0.996546 0.194560
H23   H     H_    0.817770 0.321482 0.174723 0.155707
H24   H     H_    0.806415 0.672707 0.170628 0.156338
H25   H     H_    0.319111 0.819600 0.174788 0.155559
H26   H     H_    0.310526 0.174750 0.172199 0.155254
H27   H     H_    0.738424 0.250995 0.173820 0.158749
H28   H     H_    0.725806 0.743723 0.168997 0.159488
H29   H     H_    0.244972 0.747243 0.175867 0.154486
H30   H     H_    0.230158 0.245569 0.170567 0.157751
H31   H     H_    0.437143 0.866365 0.180047 0.093396
H32   H     H_    0.436520 0.132898 0.180246 0.094471
H33   H     H_    0.938165 0.365647 0.180334 0.093679
H34   H     H_    0.936169 0.632566 0.180244 0.095135
H35   H     H_    0.216602 0.781126 0.837234 0.130811
H36   H     H_    0.223287 0.221892 0.844430 0.125553
H37   H     H_    0.719402 0.278354 0.840635 0.128511
H38   H     H_    0.726160 0.722714 0.847126 0.127623
H39   H     H_    0.140052 0.713063 0.836456 0.098825
H40   H     H_    0.152485 0.292496 0.847160 0.099262
H41   H     H_    0.648181 0.208157 0.843012 0.099141
H42   H     H_    0.654710 0.793057 0.849710 0.099374
H43   H     H_    0.890161 0.275980 0.161075 0.203261
H44   H     H_    0.883803 0.718738 0.167624 0.205960
H45   H     H_    0.391267 0.775806 0.157853 0.200125
H46   H     H_    0.386016 0.220548 0.165041 0.206016
H47   H     H_    0.812213 0.205295 0.163068 0.214476
H48   H     H_    0.805977 0.789000 0.170096 0.219419
H49   H     H_    0.313930 0.702932 0.154164 0.199016
H50   H     H_    0.308249 0.290955 0.167674 0.219781
H51   H     H_    0.586935 0.088636 0.644345 0.160744
H52   H     H_    0.577195 0.909935 0.636245 0.155451
H53   H     H_    0.086666 0.588802 0.645011 0.163391
H54   H     H_    0.076925 0.410084 0.635367 0.157063
H55   H     H_    0.691800 0.048384 0.721219 0.183628
H56   H     H_    0.686325 0.946147 0.716729 0.189396
H57   H     H_    0.191167 0.548146 0.719255 0.178721
H58   H     H_    0.186028 0.446292 0.717144 0.188223
H59   H     H_    0.695522 0.049392 0.570442 0.175090
H60   H     H_    0.689393 0.944939 0.565549 0.173109
H61   H     H_    0.192156 0.551639 0.566921 0.173315
H62   H     H_    0.190833 0.446934 0.567182 0.174609
H63   H     H_    0.589221 0.088646 0.497237 0.155592
H64   H     H_    0.578507 0.910208 0.489255 0.154714
H65   H     H_    0.083693 0.588857 0.494402 0.156737
H66   H     H_    0.081805 0.410299 0.490856 0.155156
H67   H     H_    0.424184 0.038631 0.526751 0.159203
H68   H     H_    0.420604 0.965518 0.523622 0.159824
H69   H     H_    0.923712 0.538510 0.525925 0.162355
H70   H     H_    0.919944 0.465399 0.524390 0.160216
H71   H     H_    0.560659 0.087363 0.331048 0.090118
H72   H     H_    0.561294 0.912536 0.330367 0.090435
H73   H     H_    0.060434 0.587347 0.330944 0.090615
H74   H     H_    0.060358 0.412509 0.329957 0.089447
H75   H     H_    0.429280 0.039117 0.380202 0.158472
H76   H     H_    0.424994 0.965954 0.376390 0.159256
H77   H     H_    0.926421 0.536956 0.377622 0.159285
H78   H     H_    0.925755 0.463750 0.378190 0.159575
H79   H     H_    0.223474 0.912439 0.671110 0.093558
H80   H     H_    0.221748 0.086899 0.670065 0.090389
H81   H     H_    0.721237 0.412389 0.672913 0.094068
H82   H     H_    0.720262 0.586778 0.671418 0.108949
H83   H     H_    0.526261 0.087723 0.737892 0.093714
H84   H     H_    0.526505 0.911871 0.738789 0.095114
H85   H     H_    0.026013 0.587768 0.737809 0.092550
H86   H     H_    0.026458 0.411916 0.738592 0.095239
H87   H     H_    0.792320 0.912562 0.265855 0.099603
H88   H     H_    0.791206 0.088041 0.267676 0.096244
H89   H     H_    0.292162 0.412484 0.266459 0.101854
H90   H     H_    0.291613 0.587901 0.268871 0.093736
H91   H     H_    0.695135 0.162419 0.179304 0.081516
H92   H     H_    0.693329 0.837242 0.179199 0.079575
H93   H     H_    0.195638 0.662406 0.178903 0.068941
H94   H     H_    0.194078 0.337418 0.179165 0.079135
H95   H     H_    0.518496 0.834279 0.824803 0.099866
H96   H     H_    0.519110 0.165248 0.824856 0.098625
H97   H     H_    0.018794 0.334415 0.824736 0.099448
H98   H     H_    0.018158 0.665177 0.824421 0.097859
N1    N     N_R   0.392450 0.103580 0.942190 -0.042438
N2    N     N_R   0.392450 0.896420 0.942190 -0.042226
N3    N     N_R   0.892450 0.603580 0.942190 -0.043129
N4    N     N_R   0.892450 0.396420 0.942190 -0.042558
N5    N     N_R   0.450490 0.896000 0.057360 -0.045973
N6    N     N_R   0.450490 0.104000 0.057360 -0.046830
N7    N     N_R   0.950490 0.396000 0.057360 -0.046413
N8    N     N_R   0.950490 0.604000 0.057360 -0.048035
N9    N     N_R   0.525490 0.028390 0.207550 -0.038382
N10   N     N_R   0.525490 0.971610 0.207550 -0.037397
N11   N     N_R   0.025490 0.528390 0.207550 -0.038082
N12   N     N_R   0.025490 0.471610 0.207550 -0.037345
N13   N     N_R   0.317450 0.971190 0.792000 -0.051475
N14   N     N_R   0.317450 0.028810 0.792000 -0.049154
N15   N     N_R   0.817450 0.471190 0.792000 -0.050904
N16   N     N_R   0.817450 0.528810 0.792000 -0.052922
N17   N     N_R   0.473900 0.028390 0.792280 -0.045925
N18   N     N_R   0.473900 0.971610 0.792280 -0.046193
N19   N     N_R   0.973900 0.528390 0.792280 -0.046058
N20   N     N_R   0.973900 0.471610 0.792280 -0.046167
N21   N     N_R   0.682310 0.971180 0.208170 -0.038630
N22   N     N_R   0.682310 0.028820 0.208170 -0.041134
N23   N     N_R   0.182310 0.471180 0.208170 -0.039415
N24   N     N_R   0.182310 0.528820 0.208170 -0.045737
N25   N     N_R   0.606470 0.103570 0.057210 -0.044196
N26   N     N_R   0.606470 0.896430 0.057210 -0.045267
N27   N     N_R   0.106470 0.603570 0.057210 -0.043174
N28   N     N_R   0.106470 0.396430 0.057210 -0.044026
N29   N     N_R   0.549740 0.896000 0.943240 -0.033592
N30   N     N_R   0.549740 0.104000 0.943240 -0.032442
N31   N     N_R   0.049740 0.396000 0.943240 -0.033024
N32   N     N_R   0.049740 0.604000 0.943240 -0.031491
Ni1   Ni    Ni4+2 0.433780 0.065390 0.868430 0.229580
Ni2   Ni    Ni4+2 0.433780 0.934610 0.868430 0.228899
Ni3   Ni    Ni4+2 0.933780 0.565390 0.868430 0.234469
Ni4   Ni    Ni4+2 0.933780 0.434610 0.868430 0.229715
Ni5   Ni    Ni4+2 0.565800 0.934190 0.131570 0.234638
Ni6   Ni    Ni4+2 0.565800 0.065810 0.131570 0.236071
Ni7   Ni    Ni4+2 0.065800 0.434190 0.131570 0.235535
Ni8   Ni    Ni4+2 0.065800 0.565810 0.131570 0.234254
C113  C     C_2   0.036056 0.900135 0.566962 0.462216
H99   H     H_    0.028570 0.861400 0.527698 0.063439
O1    O     O_2   0.056328 0.900645 0.660188 -0.558731
C114  C     C_2   0.031414 0.087912 0.593399 0.464498
H100  H     H_    0.018499 0.129648 0.564517 0.061916
O2    O     O_2   0.055593 0.078479 0.686762 -0.554435
C115  C     C_2   0.530666 0.403602 0.577679 0.465321
H101  H     H_    0.518636 0.363627 0.540745 0.061797
O3    O     O_2   0.553458 0.407373 0.671797 -0.558967
C116  C     C_2   0.530293 0.592647 0.584704 0.483562
H102  H     H_    0.516245 0.633010 0.548806 0.020799
O4    O     O_2   0.553887 0.587448 0.678904 -0.559309
C117  C     C_2   0.983682 0.914910 0.311791 1.037883
O5    O     O_2   0.982445 0.866803 0.331818 -0.675970
O6    O     O_R   0.975612 0.930205 0.216703 -0.746244
H103  H     H_    0.973534 0.897713 0.173364 0.354437
C118  C     C_2   0.979031 0.097905 0.337883 0.992128
O7    O     O_2   0.975525 0.142478 0.371838 -0.695892
O8    O     O_R   0.971923 0.093715 0.240180 -0.732934
H104  H     H_    0.967830 0.130674 0.207397 0.356756
C119  C     C_2   0.482955 0.409712 0.323611 1.023093
O9    O     O_2   0.479627 0.362665 0.347699 -0.684287
O10   O     O_R   0.477825 0.421119 0.228822 -0.751091
H105  H     H_    0.475793 0.386867 0.189461 0.358313
C120  C     C_2   0.492482 0.595359 0.342932 0.967107
O11   O     O_2   0.554955 0.629247 0.393014 -0.662776
O12   O     O_R   0.421651 0.602076 0.230791 -0.754262
H106  H     H_    0.431614 0.636104 0.200587 0.354155
C121  C     C_2   0.354632 0.751459 0.943681 1.069494
O13   O     O_2   0.419486 0.732072 0.031546 -0.666907
O14   O     O_R   0.365184 0.761725 0.859784 -0.801460
H107  H     H_    0.430032 0.752515 0.882210 0.313612
C122  C     C_2   0.362693 0.247595 0.958249 1.062570
O15   O     O_2   0.427732 0.263692 0.049630 -0.663092
O16   O     O_R   0.375584 0.238880 0.875795 -0.803000
H108  H     H_    0.442495 0.245125 0.902921 0.312935
C123  C     C_2   0.858522 0.250945 0.948511 1.065833
O17   O     O_2   0.924868 0.233937 0.038055 -0.668872
O18   O     O_R   0.867906 0.259825 0.863314 -0.802564
H109  H     H_    0.933396 0.252166 0.886453 0.313337
C124  C     C_2   0.865394 0.747570 0.964866 1.059394
O19   O     O_2   0.929143 0.763467 0.057142 -0.657817
O20   O     O_R   0.881080 0.738565 0.884872 -0.801911
H110  H     H_    0.949011 0.743439 0.915224 0.311886
C125  C     C_2   0.764194 0.159037 0.952365 1.053254
O21   O     O_2   0.792003 0.132615 0.035446 -0.634242
O22   O     O_R   0.777742 0.139043 0.875161 -0.805903
H111  H     H_    0.812597 0.103009 0.898442 0.332054
C126  C     C_2   0.771066 0.839616 0.968316 1.056666
O23   O     O_2   0.800677 0.862749 0.055439 -0.639974
O24   O     O_R   0.786239 0.862526 0.894599 -0.808414
H112  H     H_    0.822742 0.897956 0.923003 0.331565
C127  C     C_2   0.253005 0.660201 0.934444 1.041419
O25   O     O_2   0.276590 0.629659 0.011013 -0.614472
O26   O     O_R   0.266426 0.644248 0.854934 -0.805151
H113  H     H_    0.299667 0.607842 0.872736 0.328081
C128  C     C_2   0.269038 0.339792 0.962721 1.055238
O27   O     O_2   0.297965 0.364195 0.048427 -0.639603
O28   O     O_R   0.283880 0.361512 0.887875 -0.807101
H114  H     H_    0.319839 0.397164 0.914480 0.332413
C129  C     C_2   0.887261 0.991359 0.522146 1.035437
O29   O     O_2   0.924306 0.985194 0.620723 -0.553818
O30   O     O_R   0.789966 0.995439 0.448715 -0.834181
H115  H     H_    0.758406 0.992443 0.487183 0.309130
C130  C     C_2   0.384269 0.497805 0.521837 1.029737
O31   O     O_2   0.420683 0.496207 0.620932 -0.555424
O32   O     O_R   0.286905 0.499017 0.446880 -0.836798
H116  H     H_    0.254860 0.498235 0.484947 0.309328

loop_
_geom_bond_atom_site_label_1
_geom_bond_atom_site_label_2
_ccdc_geom_bond_type
C91   H76   S    
N5    Ni5   S    
C55   C59   S    
C38   N8    A    
C77   C101  A    
C124  O19   D    
C112  H90   S    
N24   Ni8   S    
C127  O26   S    
O24   H112  S    
N7    Ni7   S    
N27   N32   A    
C46   C62   S    
C86   C88   S    
C119  O9    D    
C29   C33   S    
C62   C70   S    
C15   C109  A    
C114  O2    D    
C17   C61   S    
N13   N14   A    
C19   C63   S    
C75   H57   S    
N31   Ni4   S    
C123  O18   S    
C79   C102  A    
C76   H54   S    
C36   C97   A    
C51   C57   S    
N20   Ni4   S    
C7    H93   S    
C78   C101  A    
N8    Ni8   S    
C42   C58   S    
C1    H1    S    
C73   C81   S    
C44   C46   S    
C52   H46   S    
C11   C20   A    
N32   Ni3   S    
C4    N4    A    
C117  O5    D    
C9    H95   S    
C106  H84   S    
C21   C29   S    
C51   H45   S    
C96   N16   A    
C24   C32   S    
N19   N20   A    
C90   C92   S    
C127  O25   D    
N18   Ni2   S    
C75   H53   S    
C76   H58   S    
C52   C58   S    
C14   C107  A    
C63   C71   S    
C7    C19   A    
C96   C104  A    
C109  H87   S    
N6    Ni6   S    
C53   C71   S    
C92   H77   S    
N16   Ni3   S    
C117  O6    S    
C6    N26   A    
C89   C101  S    
C49   H43   S    
N21   Ni5   S    
C13   C106  A    
C8    N28   A    
C3    N3    A    
C24   C116  S    
C36   H32   S    
C14   C88   S    
C73   H51   S    
C74   H52   S    
C2    H2    S    
C56   C124  S    
C77   H71   S    
C78   H72   S    
C121  O14   S    
C41   C57   S    
C65   H27   S    
C61   C65   S    
C66   H28   S    
N11   Ni8   S    
C80   H74   S    
N9    Ni6   S    
C30   C118  S    
C115  O3    D    
C16   C111  A    
C34   H6    S    
C27   C29   S    
C118  O8    S    
N25   N30   A    
C43   H13   S    
C125  O22   S    
C108  N20   A    
N11   N12   A    
C82   C89   S    
C64   C68   S    
C48   H22   S    
C124  O20   S    
C24   C26   S    
C46   H20   S    
C115  H101  S    
C10   H96   S    
C90   C102  S    
C22   C25   S    
C86   H69   S    
C70   C126  S    
C68   H30   S    
C74   C87   S    
C89   C91   S    
N23   N24   A    
C43   C59   S    
N19   Ni3   S    
C81   H59   S    
N1    N6    A    
C49   H23   S    
O12   H106  S    
C94   N14   A    
C59   C100  S    
C84   C90   S    
C55   H37   S    
C62   C66   S    
C110  H88   S    
C7    N27   A    
C77   N9    A    
C51   C67   S    
C80   C102  A    
N22   Ni6   S    
C95   N15   A    
O20   H110  S    
C50   C66   S    
N2    N5    A    
C13   C87   S    
C55   C123  S    
O18   H109  S    
C41   C47   S    
C31   C34   S    
C93   N13   A    
C42   C48   S    
N3    Ni3   S    
C43   C45   S    
C55   C69   S    
C129  O30   S    
C11   N31   A    
N27   Ni8   S    
C56   H38   S    
N25   Ni6   S    
C54   H36   S    
N15   Ni4   S    
C91   H75   S    
C22   C30   S    
C116  H102  S    
C46   H18   S    
N3    N8    A    
N14   Ni1   S    
C47   H15   S    
C26   C130  S    
C49   C59   S    
N26   N29   A    
C50   C60   S    
C83   H61   S    
C36   N6    A    
C42   H8    S    
C85   H68   S    
C112  N24   A    
C22   C39   S    
C96   H82   S    
C105  N17   A    
C80   N12   A    
C3    C99   A    
C9    C18   A    
C35   H31   S    
C122  O15   D    
C35   N5    A    
C37   C100  A    
C5    H91   S    
C45   H17   S    
C1    N1    A    
C120  O11   D    
C37   N7    A    
C73   H55   S    
C76   C84   S    
C74   H56   S    
N23   Ni7   S    
C113  H99   S    
C10   N30   A    
N28   N31   A    
C81   H63   S    
C71   C127  S    
C47   C63   S    
C48   C64   S    
C5    C17   A    
C23   C40   S    
C54   C122  S    
C119  O10   S    
C23   C26   S    
C73   C87   S    
C21   C25   S    
C78   N10   A    
C71   H39   S    
C25   C129  S    
C72   H40   S    
C9    N29   A    
C52   H26   S    
C121  O13   D    
C35   C98   A    
C43   H9    S    
C81   C89   S    
C14   C108  A    
C130  O31   D    
O8    H104  S    
C47   H21   S    
C15   C110  A    
C111  H89   S    
C74   C82   S    
C84   H62   S    
C92   H78   S    
C79   N11   A    
C93   H79   S    
C82   H60   S    
C83   H65   S    
C128  O27   D    
N1    Ni1   S    
C13   C105  A    
N9    N10   A    
C107  H85   S    
C53   C57   S    
N30   Ni1   S    
C69   H41   S    
C56   C60   S    
C126  O23   D    
C6    H92   S    
O16   H108  S    
C48   H16   S    
C67   H49   S    
C123  O17   D    
C28   C32   S    
N13   Ni2   S    
C118  O7    D    
C8    C20   A    
C41   H7    S    
C8    H94   S    
C51   H25   S    
N10   Ni5   S    
C94   C103  A    
C45   H19   S    
C31   C119  S    
C106  N18   A    
C125  O21   D    
C16   C112  A    
C53   C121  S    
C24   C40   S    
C26   C28   S    
C4    H4    S    
C28   C31   S    
C38   C99   A    
C39   C103  S    
C2    N2    A    
C114  H100  S    
C12   H98   S    
C32   C120  S    
C3    H3    S    
C109  N21   A    
C75   C83   S    
O30   H115  S    
C44   C60   S    
C57   C98   S    
C12   C19   A    
C45   C61   S    
C111  N23   A    
C108  H86   S    
O26   H113  S    
C86   H70   S    
C50   H24   S    
C23   C31   S    
C16   C28   S    
C129  O29   D    
C33   H5    S    
C122  O16   S    
O22   H111  S    
C65   H47   S    
C60   C99   S    
C66   H48   S    
C85   C91   S    
C42   H12   S    
O28   H114  S    
C44   H14   S    
C33   C39   S    
C49   C65   S    
C34   C40   S    
C120  O12   S    
O10   H105  S    
N17   Ni1   S    
C113  O1    D    
C10   C17   A    
C53   H35   S    
C44   H10   S    
C72   C128  S    
C32   C34   S    
C15   C27   S    
C38   H34   S    
N17   N18   A    
C50   H44   S    
C69   C125  S    
N29   Ni2   S    
O6    H103  S    
C76   C88   S    
C52   C68   S    
C95   H81   S    
C27   C30   S    
N26   Ni5   S    
C58   C97   S    
C85   C87   S    
C6    C18   A    
C63   C67   S    
C130  O32   S    
C116  O4    D    
C1    C97   A    
O14   H107  S    
C128  O28   S    
C20   C64   S    
C40   C104  S    
C21   C39   S    
C85   H67   S    
N15   N16   A    
N4    Ni4   S    
C84   H66   S    
C126  O24   S    
C2    C98   A    
C110  N22   A    
C82   H64   S    
C56   C70   S    
C4    C100  A    
N28   Ni7   S    
C95   C104  A    
C54   C58   S    
C61   C69   S    
C105  H83   S    
C83   C90   S    
C79   H73   S    
C30   C33   S    
C70   H42   S    
N4    N7    A    
C21   C113  S    
C68   H50   S    
C25   C27   S    
C12   N32   A    
C41   H11   S    
C107  N19   A    
N2    Ni2   S    
C86   C92   S    
C11   H97   S    
C29   C117  S    
C64   C72   S    
O32   H116  S    
C94   H80   S    
C22   C114  S    
N12   Ni7   S    
C75   C88   S    
C54   C72   S    
C23   C115  S    
C5    N25   A    
N21   N22   A    
C18   C62   S    
C37   H33   S    
C93   C103  A    
C67   H29   S    
