data_mof_unit_26663.cif
_audit_creation_date              2012-12-10T17:02:11-0500
_audit_creation_method            fapswitch 2.2
_symmetry_space_group_name_H-M    P1
_symmetry_Int_Tables_number       1
_space_group_crystal_system       triclinic
_cell_length_a                    10.627107
_cell_length_b                    10.749535
_cell_length_c                    10.041249
_cell_angle_alpha                 89.984954
_cell_angle_beta                  90.002346
_cell_angle_gamma                 89.735182
_cell_volume                      1147.06443344

loop_
_atom_site_label
_atom_site_type_symbol
_atom_type_description
_atom_site_fract_x
_atom_site_fract_y
_atom_site_fract_z
_atom_type_partial_charge
C1    C     C_R   0.500884 0.262803 0.499926 0.890127
C2    C     C_2   0.506487 0.131175 0.500726 -0.252418
C3    C     C_2   0.566173 0.576651 0.925065 -0.223311
C4    C     C_R   0.260562 0.498513 0.499956 0.855955
C5    C     C_2   0.571621 0.572209 0.075140 0.648664
C6    C     C_R   0.496784 0.737141 0.499891 0.936802
C7    C     C_R   0.739419 0.495545 0.500002 0.865297
C8    C     C_R   0.134280 0.281648 0.603735 -0.235365
C9    C     C_R   0.072044 0.177242 0.654409 -0.052018
C10   C     C_R   0.938859 0.177155 0.657920 -0.048535
C11   C     C_R   0.872336 0.279322 0.605585 -0.235990
C12   C     C_R   0.067265 0.385412 0.554055 0.082347
C13   C     C_R   0.935768 0.384108 0.554112 0.080303
C14   C     C_2   0.149929 0.068615 0.695654 0.945208
C15   C     C_2   0.866060 0.074667 0.719156 0.964841
C16   C     C_R   0.128352 0.489913 0.499588 -0.077705
C17   C     C_R   0.063257 0.588615 0.442134 -0.175354
C18   C     C_R   0.934677 0.587586 0.442174 -0.147641
C19   C     C_R   0.871892 0.487874 0.499689 -0.089008
C20   C     C_2   0.501503 0.932985 0.388051 -0.112617
C21   C     C_2   0.482932 0.868331 0.499773 -0.310572
C22   C     C_2   0.494383 0.066949 0.387816 -0.152421
F1    F     F_    0.653916 0.649335 0.136923 -0.638467
H1    H     H_    0.112316 0.667435 0.399507 0.163774
H2    H     H_    0.454046 0.909820 0.593125 0.150482
H3    H     H_    0.483043 0.112907 0.292135 0.180574
H4    H     H_    0.314608 0.007134 0.771895 0.339025
H5    H     H_    0.712346 0.965588 0.711173 0.342385
H6    H     H_    0.523999 0.088843 0.596639 0.192444
H7    H     H_    0.622312 0.646790 0.875420 0.203289
H8    H     H_    0.453046 0.430756 0.897755 0.168563
H9    H     H_    0.434693 0.447526 0.102065 0.104938
H10   H     H_    0.235904 0.279111 0.599006 0.177055
H11   H     H_    0.770569 0.276676 0.606775 0.171092
H12   H     H_    0.883743 0.665727 0.399581 0.182411
H13   H     H_    0.523262 0.887480 0.294134 0.202588
N1    N     N_2   0.501340 0.501330 0.852150 -0.214750
N2    N     N_2   0.501380 0.501360 0.147810 -0.230484
O1    O     O_R   0.499980 0.319060 0.613040 -0.609273
O2    O     O_R   0.270154 0.087816 0.748283 -0.816835
O3    O     O_2   0.902216 0.026158 0.822569 -0.581522
O4    O     O_R   0.753927 0.035709 0.660204 -0.826042
O5    O     O_R   0.500020 0.319100 0.386900 -0.621253
O6    O     O_R   0.316750 0.499980 0.613090 -0.600962
O7    O     O_R   0.316790 0.500020 0.386950 -0.618690
O8    O     O_R   0.499980 0.680900 0.613100 -0.614435
O9    O     O_R   0.500020 0.680940 0.386960 -0.576864
O10   O     O_R   0.683210 0.499980 0.613050 -0.613033
O11   O     O_R   0.683250 0.500020 0.386910 -0.560891
O12   O     O_2   0.111475 0.962597 0.679783 -0.600449
Zn1   Zn    Zn3+2 0.499970 0.499970 0.650990 0.978003
Zn2   Zn    Zn3+2 0.500030 0.500030 0.349010 1.010739

loop_
_geom_bond_atom_site_label_1
_geom_bond_atom_site_label_2
_ccdc_geom_bond_type
C2    C22   D    
C3    H7    S    
O1    Zn1   S    
C9    C14   S    
C4    C16   S    
O9    Zn2   S    
H9    N2    S    
C4    O6    A    
C9    C10   A    
C5    F1    S    
H4    O2    S    
C8    C12   A    
O11   Zn2   S    
C7    O10   A    
C17   C18   A    
C7    O11   A    
C5    N2    D    
C12   C13   A    
C11   C13   A    
C15   O3    D    
C14   O12   D    
C2    H6    S    
O6    Zn1   S    
H5    O4    S    
C20   C22   S    
C1    C2    S    
C7    C19   S    
C4    O7    A    
O10   Zn1   S    
C22   H3    S    
N1    Zn1   S    
O5    Zn2   S    
C17   H1    S    
N2    Zn2   S    
C10   C11   A    
C1    O1    A    
C14   O2    S    
C20   H13   S    
C12   C16   A    
C20   C21   D    
C3    N1    D    
C18   H12   S    
C18   C19   A    
C6    O9    A    
C13   C19   A    
C16   C17   A    
C21   H2    S    
C8    H10   S    
C6    O8    A    
O7    Zn2   S    
C10   C15   S    
C6    C21   S    
O8    Zn1   S    
C1    O5    A    
C11   H11   S    
H8    N1    S    
C15   O4    S    
C8    C9    A    
C3    C5    S    
