data_mof_unit_45228.cif
_audit_creation_date              2012-12-11T15:17:45-0500
_audit_creation_method            fapswitch 2.2
_symmetry_space_group_name_H-M    P1
_symmetry_Int_Tables_number       1
_space_group_crystal_system       triclinic
_cell_length_a                    15.744791
_cell_length_b                    15.731472
_cell_length_c                    34.61601
_cell_angle_alpha                 89.899382
_cell_angle_beta                  90.107649
_cell_angle_gamma                 119.96712
_cell_volume                      7427.74073874

loop_
_atom_site_label
_atom_site_type_symbol
_atom_type_description
_atom_site_fract_x
_atom_site_fract_y
_atom_site_fract_z
_atom_type_partial_charge
C1    C     C_R   0.578689 0.441406 0.554942 0.556801
C2    C     C_R   0.558968 0.137689 0.555187 0.555792
C3    C     C_R   0.862810 0.421374 0.554943 0.556755
C4    C     C_R   0.441319 0.578544 0.054991 0.558413
C5    C     C_R   0.137348 0.558687 0.055007 0.558350
C6    C     C_R   0.421416 0.862680 0.054997 0.550976
C7    C     C_R   0.977591 0.497294 0.712327 0.336946
C8    C     C_R   0.500061 0.488821 0.711267 0.337547
C9    C     C_R   0.525282 0.030819 0.713852 0.339039
C10   C     C_R   0.503198 0.990125 0.211336 0.343541
C11   C     C_R   0.486972 0.496607 0.211345 0.343614
C12   C     C_R   0.010080 0.513124 0.211351 0.343623
C13   C     C_R   0.996226 0.439000 0.853958 -0.158970
C14   C     C_R   0.559121 0.554764 0.854096 -0.157830
C15   C     C_R   0.428531 0.992126 0.852302 -0.169289
C16   C     C_R   0.439389 0.004581 0.352596 -0.155061
C17   C     C_R   0.564734 0.560950 0.352656 -0.155031
C18   C     C_R   0.995620 0.435123 0.352740 -0.155014
C19   C     C_R   0.031879 0.447915 0.891771 0.249469
C20   C     C_R   0.550436 0.577577 0.892600 0.251518
C21   C     C_R   0.402762 0.956262 0.889795 0.225314
C22   C     C_R   0.447744 0.036546 0.390948 0.255146
C23   C     C_R   0.588501 0.552539 0.391012 0.255122
C24   C     C_R   0.963635 0.411475 0.391087 0.255159
C25   C     C_R   0.093440 0.623410 0.888480 -0.172083
C26   C     C_R   0.373084 0.483216 0.885943 -0.173775
C27   C     C_R   0.547854 0.939849 0.893513 -0.177986
C28   C     C_R   0.620966 0.086942 0.389344 -0.171133
C29   C     C_R   0.465441 0.379273 0.389405 -0.171172
C30   C     C_R   0.912990 0.534270 0.389242 -0.171235
C31   C     C_R   0.065029 0.615591 0.849863 0.245790
C32   C     C_R   0.381810 0.466510 0.847072 0.248894
C33   C     C_R   0.574205 0.976177 0.855476 0.261223
C34   C     C_R   0.612687 0.055567 0.351013 0.251071
C35   C     C_R   0.442199 0.387604 0.351064 0.251021
C36   C     C_R   0.944409 0.557421 0.350904 0.251173
C37   C     C_R   0.016134 0.522385 0.832138 -0.012528
C38   C     C_R   0.475601 0.502610 0.830843 -0.008936
C39   C     C_R   0.511199 0.998525 0.834197 0.004078
C40   C     C_R   0.522242 0.019838 0.331707 0.001437
C41   C     C_R   0.497016 0.478059 0.331757 0.001451
C42   C     C_R   0.980241 0.502703 0.331718 0.001395
C43   C     C_R   0.081814 0.541311 0.909019 -0.015316
C44   C     C_R   0.456435 0.542025 0.908433 -0.008831
C45   C     C_R   0.459336 0.923627 0.909814 -0.021482
C46   C     C_R   0.540264 0.081088 0.409040 -0.003654
C47   C     C_R   0.540538 0.459943 0.409089 -0.003681
C48   C     C_R   0.918953 0.459406 0.409057 -0.003678
C49   C     C_R   0.577854 0.442149 0.445503 0.579671
C50   C     C_R   0.557912 0.135823 0.445490 0.580070
C51   C     C_R   0.864203 0.422177 0.445495 0.579872
C52   C     C_R   0.441879 0.577741 0.945594 0.580136
C53   C     C_R   0.135779 0.558000 0.945540 0.576157
C54   C     C_R   0.421739 0.864170 0.945391 0.561530
C55   C     C_R   0.914927 0.453747 0.591929 0.025274
C56   C     C_R   0.545671 0.461907 0.591594 0.025194
C57   C     C_R   0.540516 0.087353 0.592708 0.024303
C58   C     C_R   0.455204 0.916488 0.091645 0.023730
C59   C     C_R   0.461500 0.544640 0.091624 0.024281
C60   C     C_R   0.083654 0.538576 0.091668 0.024740
C61   C     C_R   0.939005 0.391506 0.612345 -0.127067
C62   C     C_R   0.605357 0.550655 0.610929 -0.127199
C63   C     C_R   0.455447 0.065226 0.613484 -0.126807
C64   C     C_R   0.396598 0.946722 0.111016 -0.130177
C65   C     C_R   0.550220 0.603374 0.111103 -0.127794
C66   C     C_R   0.054127 0.449953 0.111238 -0.127841
C67   C     C_R   0.964295 0.408560 0.651211 -0.119322
C68   C     C_R   0.587461 0.561417 0.649449 -0.117982
C69   C     C_R   0.448654 0.041987 0.652579 -0.118310
C70   C     C_R   0.415601 0.976159 0.149476 -0.116564
C71   C     C_R   0.560667 0.584288 0.149578 -0.116524
C72   C     C_R   0.024744 0.439565 0.149695 -0.116540
C73   C     C_R   0.966606 0.488493 0.670155 0.037089
C74   C     C_R   0.509385 0.483737 0.669180 0.036592
C75   C     C_R   0.526335 0.039497 0.671506 0.037490
C76   C     C_R   0.493558 0.975881 0.169175 0.037422
C77   C     C_R   0.482556 0.506136 0.169168 0.037344
C78   C     C_R   0.024371 0.517630 0.169195 0.037245
C79   C     C_R   0.951706 0.555906 0.648816 -0.118025
C80   C     C_R   0.444590 0.398366 0.648814 -0.118131
C81   C     C_R   0.607441 0.052575 0.649970 -0.116809
C82   C     C_R   0.557242 0.953985 0.148751 -0.117487
C83   C     C_R   0.397177 0.442252 0.148623 -0.117927
C84   C     C_R   0.045615 0.602965 0.148578 -0.117405
C85   C     C_R   0.925852 0.538546 0.609940 -0.130327
C86   C     C_R   0.462652 0.387503 0.610289 -0.130837
C87   C     C_R   0.614647 0.076676 0.610827 -0.129682
C88   C     C_R   0.538226 0.924549 0.110266 -0.129993
C89   C     C_R   0.386749 0.461343 0.110125 -0.131138
C90   C     C_R   0.074997 0.613339 0.110097 -0.129738
C91   C     C_R   0.994883 0.511467 0.790300 0.352574
C92   C     C_R   0.486967 0.494485 0.789132 0.358252
C93   C     C_R   0.523152 0.017976 0.792102 0.366749
C94   C     C_R   0.513974 0.005148 0.289470 0.373288
C95   C     C_R   0.490754 0.486228 0.289504 0.373244
C96   C     C_R   0.994933 0.509063 0.289477 0.373198
Cr1   Cr    Cr6+3 0.522350 0.263930 0.500020 1.023499
Cr2   Cr    Cr6+3 0.736070 0.258420 0.500020 1.023395
Cr3   Cr    Cr6+3 0.741580 0.477650 0.500020 1.023441
Cr4   Cr    Cr6+3 0.263930 0.522350 0.000020 1.021732
Cr5   Cr    Cr6+3 0.258420 0.736070 0.000020 1.025060
Cr6   Cr    Cr6+3 0.477650 0.741580 0.000020 1.016707
H1    H     H_    0.932029 0.326028 0.599051 0.132016
H2    H     H_    0.669417 0.609593 0.597066 0.132367
H3    H     H_    0.396830 0.072195 0.600240 0.131688
H4    H     H_    0.332575 0.942028 0.097229 0.128843
H5    H     H_    0.609392 0.667591 0.097401 0.132021
H6    H     H_    0.059332 0.390793 0.097611 0.132012
H7    H     H_    0.908306 0.588077 0.594742 0.127257
H8    H     H_    0.415092 0.318520 0.595952 0.127379
H9    H     H_    0.680942 0.092987 0.595437 0.126517
H10   H     H_    0.585060 0.902289 0.095908 0.128355
H11   H     H_    0.317777 0.414376 0.095668 0.127689
H12   H     H_    0.096708 0.682263 0.095585 0.127880
H13   H     H_    0.977671 0.356612 0.666788 0.135025
H14   H     H_    0.637571 0.628854 0.664192 0.137491
H15   H     H_    0.384252 0.030087 0.668344 0.134043
H16   H     H_    0.366169 0.994311 0.164239 0.138627
H17   H     H_    0.628105 0.633862 0.164442 0.139057
H18   H     H_    0.007126 0.372169 0.164611 0.138972
N1    N     N_R   0.976189 0.427669 0.772005 -0.260997
N2    N     N_R   0.564364 0.567370 0.770091 -0.248671
N3    N     N_R   0.464845 0.045430 0.773402 -0.253881
N4    N     N_R   0.440720 0.008065 0.269894 -0.236875
N5    N     N_R   0.567055 0.559326 0.270009 -0.236870
N6    N     N_R   0.992581 0.433029 0.270080 -0.237091
N7    N     N_R   0.967603 0.420658 0.733803 -0.233009
N8    N     N_R   0.570911 0.564421 0.731886 -0.230350
N9    N     N_R   0.465988 0.051898 0.735136 -0.230135
N10   N     N_R   0.435245 0.000379 0.231634 -0.227827
N11   N     N_R   0.565067 0.564617 0.231732 -0.227659
N12   N     N_R   0.000326 0.435147 0.231826 -0.227755
N13   N     N_R   0.993654 0.580218 0.730599 -0.242365
N14   N     N_R   0.423325 0.415358 0.730409 -0.238808
N15   N     N_R   0.585104 0.005029 0.732405 -0.239093
N16   N     N_R   0.576249 0.986721 0.230892 -0.234459
N17   N     N_R   0.410388 0.423712 0.230819 -0.234526
N18   N     N_R   0.012897 0.589441 0.230725 -0.234417
N19   N     N_R   0.002546 0.587233 0.768823 -0.157364
N20   N     N_R   0.416710 0.418366 0.768594 -0.153514
N21   N     N_R   0.583398 0.997940 0.770775 -0.165227
N22   N     N_R   0.581747 0.994513 0.269186 -0.160200
N23   N     N_R   0.412456 0.418402 0.269129 -0.159842
N24   N     N_R   0.005043 0.587237 0.269014 -0.159887
O1    O     O_R   0.498680 0.159540 0.541860 -0.517989
O2    O     O_R   0.840460 0.339140 0.541860 -0.518514
O3    O     O_R   0.660860 0.501320 0.541860 -0.518344
O4    O     O_R   0.159540 0.498680 0.041860 -0.517151
O5    O     O_R   0.339140 0.840460 0.041860 -0.525403
O6    O     O_R   0.501320 0.660860 0.041860 -0.516838
O7    O     O_R   0.532760 0.358060 0.540030 -0.507650
O8    O     O_R   0.641940 0.174700 0.540030 -0.506954
O9    O     O_R   0.825300 0.467240 0.540030 -0.507209
O10   O     O_R   0.358060 0.532760 0.040030 -0.506691
O11   O     O_R   0.174700 0.641940 0.040030 -0.506240
O12   O     O_R   0.467240 0.825300 0.040030 -0.506510
O13   O     O_R   0.498590 0.161190 0.456930 -0.476447
O14   O     O_R   0.838810 0.337400 0.456930 -0.477010
O15   O     O_R   0.662600 0.501410 0.456930 -0.476902
O16   O     O_R   0.161190 0.498590 0.956930 -0.483802
O17   O     O_R   0.337400 0.838810 0.956930 -0.465241
O18   O     O_R   0.501410 0.662600 0.956930 -0.487174
O19   O     O_R   0.532680 0.359580 0.461300 -0.523923
O20   O     O_R   0.640420 0.173100 0.461300 -0.524071
O21   O     O_R   0.826900 0.467320 0.461300 -0.524069
O22   O     O_R   0.359580 0.532680 0.961300 -0.524057
O23   O     O_R   0.173100 0.640420 0.961300 -0.516546
O24   O     O_R   0.467320 0.826900 0.961300 -0.522392
O25   O     O_3   0.666667 0.333333 0.499990 -0.251638
O26   O     O_3   0.333333 0.666667 0.999990 -0.252187
O27   O     O_3   0.013503 0.365359 0.912818 -0.531096
C97   C     C_3   0.058738 0.316372 0.895512 0.000878
H19   H     H_    0.111882 0.315837 0.916517 0.158927
H20   H     H_    0.100921 0.351291 0.868612 0.125918
C98   C     C_3   0.981644 0.210511 0.886789 -0.372575
H21   H     H_    0.927555 0.208195 0.865587 0.168467
H22   H     H_    0.017383 0.171063 0.874508 0.105882
H23   H     H_    0.942709 0.172852 0.913724 0.165094
O28   O     O_3   0.632677 0.628928 0.915713 -0.531952
C99   C     C_3   0.694934 0.724457 0.900936 -0.003953
H24   H     H_    0.697035 0.778515 0.922077 0.150693
H25   H     H_    0.671239 0.740403 0.872787 0.094694
C100  C     C_3   0.798276 0.741169 0.896382 -0.366972
H26   H     H_    0.798483 0.688497 0.875124 0.169095
H27   H     H_    0.847909 0.817047 0.885953 0.097155
H28   H     H_    0.825764 0.730935 0.924582 0.169282
O29   O     O_3   0.315572 0.942789 0.904764 -0.541199
C101  C     C_3   0.332891 0.032012 0.921259 0.007607
H29   H     H_    0.355999 0.090241 0.898798 0.133442
H30   H     H_    0.390187 0.056834 0.944206 0.135716
C102  C     C_3   0.238657 0.016893 0.939618 -0.359143
H31   H     H_    0.214355 0.959946 0.962527 0.162482
H32   H     H_    0.251242 0.086666 0.952698 0.094211
H33   H     H_    0.180200 0.993107 0.917382 0.159600
O30   O     O_3   0.365507 0.019632 0.411785 -0.536159
C103  C     C_3   0.317319 0.065770 0.394427 0.007030
H34   H     H_    0.352929 0.108770 0.367727 0.143854
H35   H     H_    0.316788 0.118497 0.415579 0.149285
C104  C     C_3   0.211422 0.989175 0.385486 -0.394265
H36   H     H_    0.174329 0.947816 0.412099 0.163443
H37   H     H_    0.171439 0.025632 0.374388 0.088745
H38   H     H_    0.208873 0.936978 0.363359 0.142972
O31   O     O_3   0.654056 0.634789 0.411853 -0.536257
C105  C     C_3   0.748202 0.682713 0.394533 0.006940
H39   H     H_    0.755294 0.646913 0.367863 0.143623
H40   H     H_    0.801439 0.683105 0.415724 0.149272
C106  C     C_3   0.777753 0.788759 0.385540 -0.394367
H41   H     H_    0.773795 0.826044 0.412125 0.163325
H42   H     H_    0.854062 0.828527 0.374467 0.088748
H43   H     H_    0.728115 0.791437 0.363377 0.142966
O32   O     O_3   0.980590 0.346075 0.412028 -0.536200
C107  C     C_3   0.934375 0.251739 0.394794 0.006967
H44   H     H_    0.891389 0.244454 0.368076 0.143581
H45   H     H_    0.881697 0.198570 0.415997 0.149432
C108  C     C_3   0.010811 0.222169 0.385942 -0.394449
H46   H     H_    0.052188 0.226356 0.412569 0.163517
H47   H     H_    0.974301 0.145718 0.374949 0.088703
H48   H     H_    0.062924 0.271718 0.363760 0.142882
H49   H     H_    0.954348 0.618927 0.662599 0.136755
H50   H     H_    0.382918 0.337737 0.663112 0.137766
H51   H     H_    0.667930 0.050132 0.663808 0.135314
H52   H     H_    0.618798 0.954489 0.162979 0.136626
H53   H     H_    0.336251 0.380521 0.162769 0.136488
H54   H     H_    0.044611 0.663876 0.162648 0.136559
H55   H     H_    0.956430 0.366711 0.841149 0.152628
H56   H     H_    0.631371 0.580645 0.842006 0.146430
H57   H     H_    0.379723 0.009965 0.836746 0.150947
H58   H     H_    0.368335 0.970895 0.338657 0.139453
H59   H     H_    0.602154 0.632039 0.338709 0.139464
H60   H     H_    0.029393 0.397754 0.338908 0.139584
H61   H     H_    0.131704 0.695842 0.901340 0.170100
H62   H     H_    0.300155 0.456668 0.897488 0.137693
H63   H     H_    0.594608 0.921086 0.910005 0.120877
H64   H     H_    0.692806 0.122695 0.402690 0.128825
H65   H     H_    0.429310 0.307391 0.402759 0.128745
H66   H     H_    0.877148 0.570326 0.402502 0.128514
O33   O     O_3   0.086992 0.699874 0.829521 -0.525651
C109  C     C_3   0.186851 0.747195 0.818665 -0.003269
H67   H     H_    0.204449 0.696157 0.802858 0.118936
H68   H     H_    0.235302 0.776675 0.844457 0.148419
C110  C     C_3   0.208705 0.832513 0.791948 -0.338722
H69   H     H_    0.196046 0.887126 0.807307 0.169596
H70   H     H_    0.286313 0.868430 0.782456 0.120144
H71   H     H_    0.160613 0.805640 0.766070 0.182982
O34   O     O_3   0.298149 0.418874 0.824643 -0.538209
C111  C     C_3   0.271502 0.488257 0.812519 -0.023372
H72   H     H_    0.334957 0.554920 0.799778 0.132775
H73   H     H_    0.241707 0.510532 0.837215 0.109657
C112  C     C_3   0.192807 0.442532 0.781583 -0.340456
H74   H     H_    0.125821 0.379077 0.793705 0.166185
H75   H     H_    0.174603 0.498030 0.770816 0.119413
H76   H     H_    0.219778 0.417244 0.757010 0.186894
O35   O     O_3   0.663084 0.996178 0.839284 -0.528735
C113  C     C_3   0.679508 0.916196 0.843622 -0.009953
H77   H     H_    0.610931 0.844210 0.839619 0.122246
H78   H     H_    0.711524 0.918968 0.872546 0.112364
C114  C     C_3   0.753009 0.923971 0.813374 -0.347102
H79   H     H_    0.822995 0.994263 0.816840 0.161036
H80   H     H_    0.767591 0.862199 0.816782 0.096845
H81   H     H_    0.723344 0.920898 0.783953 0.188862
O36   O     O_3   0.695891 0.073388 0.330875 -0.531324
C115  C     C_3   0.729676 0.011158 0.344947 -0.007021
H82   H     H_    0.669228 0.933250 0.346405 0.136713
H83   H     H_    0.763141 0.035214 0.374069 0.105101
C116  C     C_3   0.807733 0.016147 0.317705 -0.356931
H84   H     H_    0.868402 0.093155 0.314892 0.161151
H85   H     H_    0.837709 0.970459 0.329138 0.081354
H86   H     H_    0.775387 0.988362 0.288731 0.184848
O37   O     O_3   0.376599 0.304394 0.330916 -0.531481
C117  C     C_3   0.280816 0.270725 0.344989 -0.007140
H87   H     H_    0.263608 0.331370 0.346602 0.136581
H88   H     H_    0.271514 0.236879 0.374042 0.105189
C118  C     C_3   0.207499 0.193038 0.317632 -0.356923
H89   H     H_    0.223627 0.132231 0.314631 0.161193
H90   H     H_    0.132015 0.163049 0.329080 0.081399
H91   H     H_    0.211906 0.225811 0.288740 0.184705
O38   O     O_3   0.926658 0.622948 0.330658 -0.531240
C119  C     C_3   0.988775 0.718875 0.344685 -0.007030
H92   H     H_    0.066607 0.736191 0.346243 0.136561
H93   H     H_    0.964600 0.728240 0.373755 0.105145
C120  C     C_3   0.983943 0.792118 0.317329 -0.356833
H94   H     H_    0.907024 0.775954 0.314425 0.161246
H95   H     H_    0.029574 0.867716 0.328723 0.081399
H96   H     H_    0.011822 0.787580 0.288403 0.184759

loop_
_geom_bond_atom_site_label_1
_geom_bond_atom_site_label_2
_ccdc_geom_bond_type
Cr6   O26   S    
C4    O10   A    
O31   C105  S    
Cr1   O1    S    
C25   C31   A    
C119  H93   S    
Cr3   O15   S    
N2    N8    A    
C6    C58   S    
C36   C42   A    
C71   C77   A    
C108  H46   S    
C16   C22   A    
C25   C43   A    
C115  C116  S    
C102  H32   S    
C2    C57   S    
C26   C44   A    
C98   H22   S    
Cr2   O8    S    
C27   C33   A    
C2    O1    A    
C26   C32   A    
C109  C110  S    
C28   C46   A    
C112  H74   S    
C33   C39   A    
C70   H16   S    
C29   C47   A    
C101  C102  S    
C18   C24   A    
C30   C48   A    
C61   H1    S    
C1    C56   S    
C19   O27   S    
C7    N13   A    
C85   H7    S    
C100  H27   S    
C13   H55   S    
O36   C115  S    
C54   O24   A    
C103  H34   S    
C87   H9    S    
Cr5   O11   S    
C68   C74   A    
C55   C61   A    
C3    O9    A    
C118  H91   S    
Cr1   O25   S    
C107  H44   S    
Cr4   O22   S    
C110  H69   S    
C59   C89   A    
C69   H15   S    
Cr5   O23   S    
C1    O3    A    
C67   H13   S    
C28   H64   S    
C29   H65   S    
N16   N22   A    
C11   C77   S    
C18   C42   A    
C52   O22   A    
C109  H67   S    
Cr2   O25   S    
C10   C76   S    
C38   C92   S    
C53   O23   A    
C48   C51   S    
C66   C72   A    
C63   C69   A    
C101  H30   S    
C19   C43   A    
Cr1   O19   S    
C119  C120  S    
C12   C78   S    
C104  H38   S    
C113  H78   S    
C107  C108  S    
C57   C63   A    
C67   C73   A    
C32   C38   A    
C98   H23   S    
C116  H84   S    
C21   C45   A    
C108  H47   S    
C5    C60   S    
C97   C98   S    
C6    O12   A    
C56   C62   A    
C83   H53   S    
C44   C52   S    
C43   C53   S    
C31   O33   S    
C28   C34   A    
C104  H36   S    
N15   N21   A    
C5    O4    A    
C74   C80   A    
O37   C117  S    
N3    N9    A    
C58   C64   A    
C6    O5    A    
C117  C118  S    
C72   H18   S    
C41   C95   S    
C84   C90   A    
C78   C84   A    
C35   O37   S    
C103  C104  S    
C39   C93   S    
C20   C44   A    
C24   O32   S    
C99   H25   S    
C46   C50   S    
C21   O29   S    
C20   O28   S    
C109  H68   S    
C68   H14   S    
C50   O13   A    
C2    O8    A    
C83   C89   A    
C111  H73   S    
C112  H75   S    
C118  H90   S    
C23   C47   A    
C37   C91   S    
Cr5   O5    S    
Cr4   O26   S    
C106  H41   S    
C94   N22   A    
C14   C20   A    
C61   C67   A    
C53   O16   A    
C47   C49   S    
C84   H54   S    
C108  H48   S    
C76   C82   A    
C17   H59   S    
C75   C81   A    
C13   C19   A    
C115  H83   S    
O30   C103  S    
Cr2   O2    S    
C113  C114  S    
C26   H62   S    
C120  H94   S    
C5    O11   A    
C50   O20   A    
C62   H2    S    
C57   C87   A    
C31   C37   A    
C101  H29   S    
C110  H70   S    
Cr1   O13   S    
C55   C85   A    
C17   C41   A    
C100  H26   S    
C10   N10   A    
C80   H50   S    
C113  H77   S    
C92   N2    A    
C106  H43   S    
C8    N8    A    
N5    N11   A    
C24   C48   A    
C79   H49   S    
O32   C107  S    
C105  C106  S    
N6    N12   A    
Cr6   O18   S    
C7    C73   S    
C114  H79   S    
C8    C74   S    
C118  H89   S    
Cr1   O7    S    
C65   C71   A    
N4    N10   A    
Cr5   O26   S    
Cr6   O6    S    
C17   C23   A    
C56   C86   A    
C64   H4    S    
C116  H85   S    
O27   C97   S    
C15   C39   A    
C81   C87   A    
C16   C40   A    
C91   N19   A    
C9    N15   A    
C103  H35   S    
C95   N5    A    
C22   C46   A    
C105  H40   S    
C45   C54   S    
N13   N19   A    
C64   C70   A    
C18   H60   S    
O38   C119  S    
C34   C40   A    
C22   O30   S    
C100  H28   S    
C63   H3    S    
C70   C76   A    
C14   C38   A    
C92   N20   A    
Cr6   O12   S    
C40   C94   S    
C79   C85   A    
C93   N21   A    
C97   H19   S    
C49   O19   A    
C106  H42   S    
Cr4   O10   S    
C102  H31   S    
Cr3   O3    S    
C111  H72   S    
C16   H58   S    
C112  H76   S    
Cr6   O24   S    
C12   N12   A    
C34   O36   S    
C86   H8    S    
C117  H87   S    
C13   C37   A    
C95   N23   A    
C93   N3    A    
C77   C83   A    
C10   N16   A    
Cr4   O16   S    
C73   C79   A    
C58   C88   A    
C8    N14   A    
Cr2   O20   S    
C99   C100  S    
N1    N7    A    
C14   H56   S    
C115  H82   S    
Cr3   O25   S    
C71   H17   S    
O28   C99   S    
C120  H95   S    
C4    O6    A    
C29   C35   A    
C51   O14   A    
C3    C55   S    
C30   C36   A    
C32   O34   S    
C42   C96   S    
C114  H81   S    
C7    N7    A    
C110  H71   S    
C33   O35   S    
C11   N17   A    
C102  H33   S    
C11   N11   A    
O29   C101  S    
C98   H21   S    
N18   N24   A    
C59   C65   A    
N14   N20   A    
C30   H66   S    
C27   C45   A    
O35   C113  S    
C69   C75   A    
C81   H51   S    
Cr4   O4    S    
C82   C88   A    
Cr3   O9    S    
C4    C59   S    
Cr5   O17   S    
C97   H20   S    
C65   H5    S    
C1    O7    A    
C27   H63   S    
C117  H88   S    
C62   C68   A    
C90   H12   S    
C54   O17   A    
N17   N23   A    
C35   C41   A    
C116  H86   S    
O33   C109  S    
C36   O38   S    
C9    N9    A    
C66   H6    S    
C51   O21   A    
C107  H45   S    
C60   C66   A    
C96   N24   A    
C88   H10   S    
Cr2   O14   S    
C80   C86   A    
C15   C21   A    
C105  H39   S    
C3    O2    A    
C82   H52   S    
C91   N1    A    
C72   C78   A    
C120  H96   S    
C104  H37   S    
C23   O31   S    
C12   N18   A    
C49   O15   A    
C60   C90   A    
C9    C75   S    
C114  H80   S    
O34   C111  S    
C25   H61   S    
C89   H11   S    
C119  H92   S    
C99   H24   S    
C96   N6    A    
C15   H57   S    
C52   O18   A    
Cr3   O21   S    
C111  C112  S    
C94   N4    A    
