data_mof_unit_7118.cif
_audit_creation_date              2013-03-05T15:41:46-0500
_audit_creation_method            fapswitch 2.2
_symmetry_space_group_name_H-M    P1
_symmetry_Int_Tables_number       1
_space_group_crystal_system       triclinic
_cell_length_a                    11.098991
_cell_length_b                    12.697206
_cell_length_c                    23.459239
_cell_angle_alpha                 90.109555
_cell_angle_beta                  96.221253
_cell_angle_gamma                 68.94088
_cell_volume                      3064.598914

loop_
_atom_site_label
_atom_site_type_symbol
_atom_site_description
_atom_site_fract_x
_atom_site_fract_y
_atom_site_fract_z
_atom_type_partial_charge
O1    O     O_R   0.196340 0.303200 0.448500 -0.503052
O2    O     O_R   0.199310 0.519670 0.454880 -0.499000
C1    C     C_R   0.150052 0.616995 0.428998 0.545187
O3    O     O_R   0.045660 0.691380 0.441680 -0.479414
O4    O     O_R   0.811930 0.659460 0.430950 -0.499967
C2    C     C_R   0.749954 0.604082 0.403855 0.536568
O5    O     O_R   0.757900 0.507620 0.421760 -0.518702
O6    O     O_R   0.988630 0.322990 0.439840 -0.485640
C3    C     C_R   0.101474 0.281821 0.423559 0.551607
O7    O     O_R   0.196380 0.301720 0.573850 -0.515854
O8    O     O_R   0.199350 0.518300 0.571080 -0.493455
C4    C     C_R   0.148724 0.616116 0.591137 0.543479
O9    O     O_R   0.045700 0.689900 0.567030 -0.510827
O10   O     O_R   0.811960 0.658090 0.547150 -0.498364
C5    C     C_R   0.749179 0.602087 0.565969 0.546486
O11   O     O_R   0.757930 0.506140 0.547110 -0.460798
O12   O     O_R   0.988670 0.321620 0.556040 -0.422079
C6    C     C_R   0.100102 0.274767 0.584305 0.568129
Cr1   Cr    Cr6+3 0.189770 0.415650 0.511620 1.065707
Cr2   Cr    Cr6+3 0.930400 0.667320 0.496770 1.070313
Cr3   Cr    Cr6+3 0.879870 0.417010 0.491650 1.103208
O13   O     O_3   0.000020 0.499990 0.500010 -0.273884
C7    C     C_R   0.674358 0.751266 0.137840 -0.039706
C8    C     C_R   0.701133 0.635015 0.343786 -0.006392
C9    C     C_R   0.663287 0.561754 0.251674 -0.134442
C10   C     C_R   0.665064 0.557186 0.310376 -0.124856
C11   C     C_R   0.720690 0.725860 0.317353 -0.101462
C12   C     C_R   0.716250 0.733182 0.257551 0.021928
C13   C     C_R   0.690957 0.647496 0.225374 0.003323
C14   C     C_R   0.683635 0.652082 0.166500 -0.133761
C15   C     C_R   0.704528 0.835261 0.168385 -0.116459
C16   C     C_R   0.732435 0.824252 0.228420 0.199374
H1    H     H_    0.665826 0.584271 0.143128 0.148187
H2    H     H_    0.702016 0.910572 0.145889 0.169150
H3    H     H_    0.640026 0.498105 0.226787 0.124695
H4    H     H_    0.647703 0.487327 0.329745 0.152955
H5    H     H_    0.742958 0.787787 0.343778 0.189023
C17   C     C_1   0.234447 0.163122 0.122684 0.011199
C18   C     C_2   0.179792 0.233190 0.226420 -0.113046
C19   C     C_2   0.155480 0.164516 0.263181 -0.100864
C20   C     C_1   0.133093 0.197782 0.321058 -0.020595
C21   C     C_1   0.208957 0.198059 0.169430 -0.029861
C22   C     C_1   0.116939 0.231136 0.368826 0.020763
H6    H     H_    0.155179 0.082274 0.250379 0.154799
H7    H     H_    0.180959 0.315076 0.239432 0.137014
C23   C     C_1   0.165841 0.749637 0.123614 0.002887
C24   C     C_2   0.142052 0.688219 0.228365 -0.093375
C25   C     C_2   0.236915 0.677152 0.271106 -0.110428
C26   C     C_1   0.219410 0.653370 0.329100 -0.019543
C27   C     C_1   0.153460 0.720334 0.170834 -0.037916
C28   C     C_1   0.195301 0.635560 0.376258 0.021851
H8    H     H_    0.325620 0.689476 0.263032 0.136584
H9    H     H_    0.052949 0.676944 0.236770 0.156703
C29   C     C_1   0.628598 0.758325 0.864578 -0.003616
C30   C     C_2   0.698157 0.714999 0.760177 -0.076748
C31   C     C_2   0.611796 0.702101 0.718812 -0.094414
C32   C     C_1   0.649606 0.668767 0.662699 -0.021010
C33   C     C_1   0.663582 0.739989 0.817467 -0.019323
C34   C     C_1   0.688763 0.639060 0.617151 0.026929
H10   H     H_    0.513866 0.712939 0.727436 0.137060
H11   H     H_    0.796464 0.702819 0.751686 0.140600
C35   C     C_R   0.266239 0.060922 0.839506 -0.037201
C36   C     C_R   0.115095 0.198131 0.634298 -0.017715
C37   C     C_R   0.025160 0.131802 0.710747 -0.103350
C38   C     C_R   0.010538 0.174453 0.654423 0.248066
C39   C     C_R   0.237509 0.156761 0.666629 -0.141562
C40   C     C_R   0.252353 0.113995 0.722729 0.013573
C41   C     C_R   0.142503 0.107350 0.745861 -0.038975
C42   C     C_R   0.150085 0.080354 0.804254 -0.134479
C43   C     C_R   0.378846 0.053616 0.814939 -0.105618
C44   C     C_R   0.372917 0.082156 0.757257 0.215698
H12   H     H_    0.064442 0.080499 0.822586 0.143489
H13   H     H_    0.471077 0.032721 0.841558 0.166218
H14   H     H_    0.943652 0.120311 0.727876 0.166486
H15   H     H_    0.319861 0.164698 0.648916 0.205516
C45   C     C_R   0.127240 0.747170 0.852783 0.008700
C46   C     C_R   0.185259 0.635585 0.650423 0.005470
C47   C     C_R   0.307208 0.566161 0.742984 -0.127598
C48   C     C_R   0.293807 0.558412 0.683499 -0.120718
C49   C     C_R   0.092802 0.721836 0.676827 -0.111611
C50   C     C_R   0.100890 0.725490 0.735545 0.031461
C51   C     C_R   0.209700 0.648392 0.769210 0.038309
C52   C     C_R   0.221075 0.658443 0.828206 -0.119429
C53   C     C_R   0.012817 0.815099 0.819571 -0.128097
C54   C     C_R   0.000362 0.805064 0.760858 -0.142877
H16   H     H_    0.308443 0.604051 0.853988 0.134137
H17   H     H_    0.938269 0.882447 0.838141 0.157426
H18   H     H_    0.391436 0.506643 0.768425 0.137285
H19   H     H_    0.914817 0.862360 0.735132 0.160667
H20   H     H_    0.365204 0.490619 0.663679 0.166394
H21   H     H_    0.008071 0.782445 0.652065 0.160799
O14   O     O_R   0.113660 0.883270 0.047820 -0.499804
O15   O     O_R   0.186930 0.068530 0.043990 -0.487711
C55   C     C_R   0.265255 0.110476 0.069285 0.559098
O16   O     O_R   0.377770 0.089040 0.054220 -0.495118
O17   O     O_R   0.562800 0.872960 0.056970 -0.495870
C56   C     C_R   0.601747 0.774179 0.080674 0.552327
O18   O     O_R   0.555390 0.700940 0.062700 -0.514178
O19   O     O_R   0.295020 0.731920 0.049950 -0.491777
C57   C     C_R   0.188974 0.787662 0.069683 0.546958
O20   O     O_R   0.094290 0.884230 0.921550 -0.527994
O21   O     O_R   0.168980 0.069410 0.926940 -0.491813
C58   C     C_R   0.274549 0.051729 0.902175 0.569927
O22   O     O_R   0.358400 0.089990 0.927950 -0.507448
O23   O     O_R   0.544850 0.873850 0.939920 -0.520024
C59   C     C_R   0.574264 0.776847 0.918095 0.532342
O24   O     O_R   0.536020 0.701900 0.936430 -0.504620
O25   O     O_R   0.277070 0.732810 0.932890 -0.507080
C60   C     C_R   0.163665 0.786278 0.907625 0.534201
Cr4   Cr    Cr6+3 0.149500 0.973980 0.985330 1.037385
Cr5   Cr    Cr6+3 0.457000 0.976510 0.994660 1.035805
Cr6   Cr    Cr6+3 0.411170 0.724270 0.995270 1.023846
O26   O     O_3   0.339220 0.891590 0.991750 -0.276695
N1    N     N_R   0.488236 0.084789 0.735863 0.071664
O27   O     O_R   0.596661 0.998912 0.746551 -0.344816
O28   O     O_R   0.492037 0.180290 0.717846 -0.318482
S1    S     S_3+6 0.861816 0.192966 0.611831 0.034385
O29   O     O_2   0.797098 0.119931 0.635831 -0.253843
O30   O     O_2   0.773469 0.314422 0.612435 -0.264594
O31   O     O_3   0.888780 0.156892 0.544030 -0.509316
H22   H     H_    0.801579 0.184477 0.521671 0.361181
N2    N     N_R   0.770041 0.908153 0.258681 0.067948
O32   O     O_R   0.720443 0.013252 0.240252 -0.327992
O33   O     O_R   0.869884 0.877303 0.297820 -0.345214

loop_
_geom_bond_atom_site_label_1
_geom_bond_atom_site_label_2
_geom_bond_distance
_ccdc_geom_bond_type
C30   C31   1.340832 D    
C36   C38   1.424782 A    
O15   C55   1.269346 A    
O24   Cr6   2.009083 S    
C53   H17   1.083444 S    
C45   C53   1.401690 A    
N1    O27   1.301015 A    
O4    Cr2   1.943400 S    
O25   C60   1.273663 A    
O8    Cr1   1.927767 S    
O11   Cr3   2.020016 S    
C37   C41   1.396080 A    
C12   C13   1.415166 A    
C8    C10   1.401597 A    
C17   C21   1.206067 T    
S1    O30   1.502044 D    
O4    C2    1.273862 A    
C6    C36   1.481792 S    
C32   C34   1.205899 T    
C59   O24   1.265763 A    
O19   Cr6   1.893338 S    
O20   C60   1.269320 A    
C5    O11   1.269466 A    
C31   C32   1.441547 S    
C35   C43   1.405498 A    
C48   H20   1.083142 S    
C41   C42   1.398982 A    
C15   C16   1.405035 A    
O6    C3    1.272854 A    
C26   C28   1.206336 T    
C24   C25   1.341287 D    
C8    C11   1.404987 A    
C43   C44   1.390019 A    
C18   C21   1.441850 S    
C14   H1    1.085361 S    
O15   Cr4   1.932807 S    
C24   H9    1.086978 S    
C39   C40   1.394793 A    
O23   Cr5   1.910618 S    
C36   C39   1.400880 A    
Cr3   O13   1.969562 S    
O17   C56   1.276768 A    
C20   C22   1.205985 T    
C55   O16   1.268663 A    
C45   C52   1.403822 A    
Cr6   O26   1.981199 S    
C56   O18   1.265956 A    
C24   C27   1.442250 S    
C46   C48   1.402009 A    
C9    C13   1.394318 A    
O17   Cr5   1.941664 S    
C3    C22   1.434407 S    
O1    Cr1   2.043780 S    
C29   C59   1.433968 S    
C40   C41   1.416201 A    
C7    C14   1.394166 A    
C16   N2    1.437172 S    
C12   C16   1.419607 A    
Cr1   O13   1.977963 S    
O1    C3    1.263302 A    
C53   C54   1.379560 A    
S1    O31   1.682586 S    
C18   C19   1.341367 D    
C54   H19   1.084453 S    
C47   C48   1.394315 A    
C45   C60   1.447177 S    
C9    C10   1.376156 A    
O5    Cr3   2.061867 S    
C50   C51   1.409661 A    
C31   H10   1.086889 S    
C35   C42   1.395681 A    
C7    C15   1.401693 A    
C42   H12   1.084353 S    
C13   C14   1.374823 A    
O10   Cr2   1.893837 S    
C47   C51   1.403464 A    
O19   C57   1.272290 A    
C25   H8    1.086704 S    
O7    Cr1   2.034163 S    
C2    C8    1.455110 S    
C4    C46   1.452029 S    
C17   C55   1.434719 S    
C43   H13   1.084042 S    
O12   C6    1.272084 A    
C15   H2    1.083181 S    
Cr5   O26   1.967103 S    
Cr4   O26   1.974794 S    
C9    H3    1.084489 S    
C10   H4    1.083390 S    
C19   C20   1.441919 S    
C7    C56   1.459897 S    
Cr2   O13   1.981143 S    
O21   Cr4   1.910514 S    
N2    O33   1.301297 A    
C1    O3    1.268941 A    
C58   O22   1.292128 A    
O31   H22   0.990744 S    
O14   C57   1.271089 A    
C35   C58   1.465276 S    
C29   C33   1.205586 T    
C46   C49   1.401280 A    
C47   H18   1.083668 S    
C23   C57   1.435816 S    
C25   C26   1.442532 S    
C1    C28   1.435055 S    
O9    Cr2   2.059438 S    
O2    Cr1   1.914462 S    
C5    C34   1.434503 S    
C49   C50   1.372446 A    
O6    Cr3   1.906920 S    
O22   Cr5   2.055989 S    
N1    O28   1.301307 A    
O8    C4    1.277966 A    
C37   H14   1.083994 S    
C2    O5    1.265165 A    
O23   C59   1.276936 A    
C23   C27   1.206527 T    
C18   H7    1.087176 S    
C37   C38   1.399493 A    
O18   Cr6   2.065062 S    
O2    C1    1.280639 A    
O20   Cr4   2.051691 S    
O16   Cr5   2.030458 S    
S1    O29   1.503739 D    
O14   Cr4   2.023851 S    
O7    C6    1.280275 A    
C49   H21   1.085019 S    
C39   H15   1.080252 S    
C30   H11   1.086208 S    
C40   C44   1.409864 A    
O21   C58   1.311035 A    
O12   Cr3   1.941000 S    
O3    Cr2   2.010168 S    
O25   Cr6   1.944499 S    
C19   H6    1.087072 S    
C52   H16   1.084566 S    
C4    O9    1.263727 A    
C44   N1    1.435715 S    
C51   C52   1.385893 A    
C30   C33   1.441139 S    
C11   C12   1.400515 A    
C38   S1    1.772827 S    
O10   C5    1.268872 A    
N2    O32   1.301329 A    
C50   C54   1.396264 A    
C11   H5    1.080849 S    
