data_mof_unit_51811.cif
_audit_creation_date              2013-03-05T16:06:56-0500
_audit_creation_method            fapswitch 2.2
_symmetry_space_group_name_H-M    P1
_symmetry_Int_Tables_number       1
_space_group_crystal_system       triclinic
_cell_length_a                    14.493013
_cell_length_b                    16.385954
_cell_length_c                    6.957851
_cell_angle_alpha                 90.04478
_cell_angle_beta                  99.201073
_cell_angle_gamma                 89.973253
_cell_volume                      1631.10218108

loop_
_atom_site_label
_atom_site_type_symbol
_atom_site_description
_atom_site_fract_x
_atom_site_fract_y
_atom_site_fract_z
_atom_type_partial_charge
O1    O     O_R   0.584990 0.413650 0.534420 -0.553592
O2    O     O_R   0.584990 0.586350 0.534420 -0.553900
O3    O     O_R   0.596190 0.585230 0.208380 -0.564659
O4    O     O_R   0.596190 0.414770 0.208380 -0.564759
O5    O     O_R   0.415010 0.586420 0.976930 -0.589618
O6    O     O_R   0.415010 0.413580 0.976930 -0.589083
C1    C     C_R   0.616858 0.615571 0.383783 0.998700
C2    C     C_R   0.616892 0.384374 0.383626 0.999424
O7    O     O_3   0.440560 0.500000 0.319140 -0.231325
V1    V     V_3+5 0.511030 0.500000 0.068070 1.377634
O8    O     O_R   0.403810 0.414840 0.643540 -0.557321
O9    O     O_R   0.403810 0.585160 0.643540 -0.557565
C3    C     C_R   0.380496 0.386572 0.806998 0.895639
C4    C     C_R   0.380467 0.613391 0.807059 0.894445
V2    V     V_3+5 0.488970 0.500000 0.560620 1.390920
O10   O     O_3   0.559440 0.500000 0.859420 -0.185182
C5    C     C_2   0.312363 0.683067 0.805953 0.120340
C6    C     C_2   0.312435 0.316852 0.805784 0.119604
C7    C     C_2   0.295701 0.719798 0.974949 0.275202
C8    C     C_2   0.295705 0.280191 0.974737 0.275889
C9    C     C_2   0.182843 0.811201 0.106389 0.193632
C10   C     C_2   0.182958 0.188775 0.106515 0.192904
C11   C     C_2   0.240508 0.797134 0.972099 0.236641
C12   C     C_2   0.240466 0.202862 0.971900 0.236002
C13   C     C_R   0.762162 0.684424 0.556377 -0.207040
C14   C     C_R   0.762204 0.316106 0.557969 -0.205410
C15   C     C_R   0.682584 0.686946 0.412954 -0.378170
C16   C     C_R   0.683235 0.313297 0.412834 -0.375717
C17   C     C_R   0.669230 0.759072 0.297429 0.589657
C18   C     C_R   0.670497 0.240752 0.298053 0.576540
C19   C     C_R   0.735756 0.823585 0.324157 0.458674
C20   C     C_R   0.736491 0.175854 0.329392 0.467292
C21   C     C_R   0.815845 0.819907 0.475213 -0.386694
C22   C     C_R   0.816765 0.180749 0.478551 -0.386843
C23   C     C_R   0.828358 0.747604 0.583680 0.012278
C24   C     C_R   0.828975 0.253278 0.586309 0.012638
C25   C     C_3   0.848482 0.736407 0.800625 0.499219
C26   C     C_3   0.847471 0.264177 0.803489 0.495175
C27   C     C_3   0.767423 0.675001 0.772656 0.563280
C28   C     C_3   0.765893 0.325082 0.774056 0.560719
O11   O     O_R   0.921430 0.915960 0.371040 -0.635838
O12   O     O_R   0.921430 0.084040 0.371040 -0.621147
O13   O     O_R   0.910450 0.087500 0.697310 -0.536890
O14   O     O_R   0.910450 0.912500 0.697310 -0.533746
O15   O     O_R   0.091710 0.087460 0.928430 -0.576907
O16   O     O_R   0.091710 0.912540 0.928430 -0.576078
C29   C     C_R   0.887286 0.113529 0.518643 0.995969
C30   C     C_R   0.885967 0.887469 0.517486 0.998414
O17   O     O_3   0.065970 0.000000 0.586140 -0.214824
V3    V     V_3+5 0.995640 0.000000 0.837400 1.357447
O18   O     O_R   0.103020 0.915700 0.261710 -0.555414
O19   O     O_R   0.103020 0.084300 0.261710 -0.556056
C31   C     C_R   0.124693 0.886145 0.099812 0.869674
C32   C     C_R   0.124739 0.113844 0.099874 0.870447
V4    V     V_3+5 0.017940 0.000000 0.344880 1.316978
O20   O     O_3   0.947330 1.000000 0.046180 -0.258517
N1    N     N_R   0.258520 0.860177 0.839491 0.235285
O21   O     O_R   0.203121 0.869096 0.674324 -0.293519
O22   O     O_R   0.340172 0.895002 0.863819 -0.270282
N2    N     N_R   0.258276 0.139828 0.838846 0.235503
O23   O     O_R   0.202724 0.131024 0.673815 -0.295058
O24   O     O_R   0.339877 0.104869 0.862679 -0.270194
O25   O     O_3   0.790660 0.595613 0.841675 -0.675815
H1    H     H_    0.837793 0.573032 0.767103 0.330651
O26   O     O_3   0.788023 0.404469 0.844620 -0.674373
H2    H     H_    0.835633 0.427489 0.772039 0.331992
N3    N     N_R   0.330051 0.685232 0.162367 0.230399
O27   O     O_R   0.378721 0.730107 0.296009 -0.363449
O28   O     O_R   0.295273 0.616484 0.211292 -0.336490
N4    N     N_R   0.330167 0.314775 0.162154 0.230573
O29   O     O_R   0.379397 0.270061 0.295229 -0.363418
O30   O     O_R   0.295338 0.383486 0.211540 -0.336631
O31   O     O_3   0.170612 0.750510 0.238022 -0.635507
H3    H     H_    0.121228 0.767386 0.313288 0.370941
O32   O     O_3   0.170874 0.249464 0.238472 -0.636035
H4    H     H_    0.121557 0.232624 0.313855 0.370617
O33   O     O_3   0.265259 0.712190 0.631771 -0.629359
H5    H     H_    0.269381 0.670542 0.531068 0.402377
O34   O     O_3   0.265436 0.287636 0.631541 -0.630091
H6    H     H_    0.269739 0.329153 0.530806 0.402511
O35   O     O_3   0.588826 0.772707 0.165186 -0.600086
H7    H     H_    0.541769 0.730449 0.178812 0.328667
O36   O     O_3   0.590357 0.226419 0.165634 -0.600471
H8    H     H_    0.543329 0.269026 0.177014 0.330252
O37   O     O_3   0.714913 0.890683 0.205085 -0.614418
H9    H     H_    0.767342 0.929296 0.223348 0.319599
O38   O     O_3   0.715802 0.106776 0.217268 -0.606221
H10   H     H_    0.752272 0.060583 0.280124 0.305683
O39   O     O_3   0.832470 0.806532 0.906359 -0.688992
H11   H     H_    0.842097 0.790156 0.045146 0.320529
O40   O     O_3   0.831387 0.193625 0.907394 -0.681969
H12   H     H_    0.839468 0.209775 0.046281 0.324371
N5    N     N_R   0.941131 0.700837 0.867489 0.218940
O41   O     O_R   0.960796 0.671223 0.042741 -0.345770
O42   O     O_R   0.007251 0.706447 0.761633 -0.370596
N6    N     N_R   0.939538 0.300213 0.873540 0.219511
O43   O     O_R   0.006519 0.295550 0.769638 -0.370294
O44   O     O_R   0.957827 0.329326 0.049565 -0.346278
N7    N     N_R   0.681765 0.705749 0.835333 0.244790
O45   O     O_R   0.624246 0.654471 0.893724 -0.333006
O46   O     O_R   0.651717 0.779221 0.788958 -0.296894
N8    N     N_R   0.679887 0.293625 0.833783 0.245385
O47   O     O_R   0.621512 0.344317 0.891735 -0.334316
O48   O     O_R   0.650740 0.220034 0.785914 -0.298122

loop_
_geom_bond_atom_site_label_1
_geom_bond_atom_site_label_2
_geom_bond_distance
_ccdc_geom_bond_type
C9    C31   1.485678 S    
V4    O20   2.164823 S    
N5    O41   1.301243 A    
C19   O37   1.381136 S    
C15   C17   1.425441 A    
O1    C2    1.303406 A    
O31   H3    0.991174 S    
O2    C1    1.302656 A    
O4    C2    1.307166 A    
O35   H7    0.987324 S    
C10   C32   1.486626 S    
O37   H9    0.981467 S    
C3    C6    1.508837 S    
O36   H8    0.987417 S    
C23   C25   1.502275 S    
O3    C1    1.307144 A    
N1    O22   1.300419 A    
V2    O10   2.164791 S    
C9    O31   1.383018 S    
C1    C15   1.501754 S    
N2    O24   1.300416 A    
C18   O36   1.382301 S    
O11   V4    1.992359 S    
C21   C23   1.401259 A    
O8    V2    2.008479 S    
C8    C12   1.497576 S    
C6    O34   1.377776 S    
N6    O44   1.301246 A    
C19   C21   1.437180 A    
C7    N3    1.436109 S    
N4    O29   1.300969 A    
O1    V2    2.012647 S    
C18   C20   1.423355 A    
O7    V1    2.159944 S    
O18   V4    1.997190 S    
O19   V4    1.998611 S    
O33   H5    0.986334 S    
N5    O42   1.301974 A    
C4    C5    1.508078 S    
C8    N4    1.435929 S    
C10   O32   1.382897 S    
O19   C32   1.309855 A    
N3    O27   1.300983 A    
O40   H12   0.990470 S    
O17   V4    1.711355 S    
C20   O38   1.379802 S    
C26   O40   1.403186 S    
V3    O20   1.710470 S    
O25   H1    0.992758 S    
N2    O23   1.300662 A    
O18   C31   1.309297 A    
C20   C22   1.432084 A    
C7    C11   1.496712 S    
O32   H4    0.991166 S    
C17   O35   1.382626 S    
O12   V4    1.991259 S    
C27   N7    1.468832 S    
N7    O45   1.294401 A    
O9    V2    2.007051 S    
C12   N2    1.437078 S    
N6    O43   1.301975 A    
C5    O33   1.377890 S    
C25   N5    1.469380 S    
N8    O48   1.303187 A    
O2    V2    2.013759 S    
O5    C4    1.286195 A    
C13   C23   1.403795 A    
C14   C24   1.404847 A    
N7    O46   1.303201 A    
O9    C4    1.320997 A    
O15   C32   1.286777 A    
O26   H2    0.992678 S    
C28   O26   1.408930 S    
C9    C11   1.368881 D    
C2    C16   1.503028 S    
C10   C12   1.369444 D    
O4    V1    2.010473 S    
O14   V3    2.035874 S    
C11   N1    1.437138 S    
O6    V1    2.015496 S    
O13   V3    2.036135 S    
C13   C15   1.399873 A    
C27   O25   1.408919 S    
O16   V3    2.027594 S    
C14   C16   1.400761 A    
C25   O39   1.403023 S    
C24   C26   1.502424 S    
O7    V2    1.714141 S    
O5    V1    2.015279 S    
C25   C27   1.535609 S    
O3    V1    2.010212 S    
V1    O10   1.710433 S    
C13   C27   1.502612 S    
O6    C3    1.286192 A    
C26   C28   1.535437 S    
O8    C3    1.321391 A    
C14   C28   1.502986 S    
N1    O21   1.300676 A    
O15   V3    2.027812 S    
O16   C31   1.286789 A    
C16   C18   1.427061 A    
C5    C7    1.375779 D    
O11   C30   1.299550 A    
C6    C8    1.376220 D    
O12   C29   1.301777 A    
N8    O47   1.294690 A    
C28   N8    1.469255 S    
O34   H6    0.986261 S    
C22   C24   1.400801 A    
O38   H10   0.984788 S    
C17   C19   1.423021 A    
O17   V3    2.159893 S    
C26   N6    1.469345 S    
C21   C30   1.499947 S    
N4    O30   1.301866 A    
C22   C29   1.497969 S    
N3    O28   1.301887 A    
O39   H11   0.990581 S    
O13   C29   1.306610 A    
O14   C30   1.310327 A    
