data_mof_unit_56699.cif
_audit_creation_date              2012-12-10T18:35:25-0500
_audit_creation_method            fapswitch 2.2
_symmetry_space_group_name_H-M    P1
_symmetry_Int_Tables_number       1
_space_group_crystal_system       triclinic
_cell_length_a                    15.274975
_cell_length_b                    13.960666
_cell_length_c                    11.042195
_cell_angle_alpha                 91.025
_cell_angle_beta                  94.602125
_cell_angle_gamma                 88.620628
_cell_volume                      2346.1621814

loop_
_atom_site_label
_atom_site_type_symbol
_atom_type_description
_atom_site_fract_x
_atom_site_fract_y
_atom_site_fract_z
_atom_type_partial_charge
C1    C     C_R   0.331072 0.500731 0.513830 0.793971
C2    C     C_R   0.669829 0.498153 0.491483 0.798127
C3    C     C_R   0.049987 0.493922 0.494636 0.046882
C4    C     C_R   0.952557 0.491231 0.480549 0.047150
C5    C     C_R   0.551415 0.105507 0.584034 -0.255280
C6    C     C_R   0.431036 0.894259 0.441276 -0.249803
C7    C     C_R   0.450181 0.107453 0.408782 -0.285366
C8    C     C_R   0.572547 0.892133 0.548393 -0.265485
C9    C     C_R   0.551099 0.206367 0.585700 0.340335
C10   C     C_R   0.432203 0.793192 0.439089 0.364925
C11   C     C_R   0.445525 0.208437 0.416134 0.307677
C12   C     C_R   0.569021 0.791894 0.557328 0.310695
C13   C     C_R   0.502619 0.053957 0.493673 0.072911
C14   C     C_R   0.502323 0.945655 0.493366 0.082346
C15   C     C_R   0.503239 0.500022 0.261835 0.789681
C16   C     C_R   0.499441 0.502867 0.737674 0.790307
C17   C     C_R   0.480239 0.683476 0.120437 -0.010002
C18   C     C_R   0.650208 0.420454 0.899969 -0.045868
C19   C     C_R   0.412824 0.668716 0.885642 -0.059995
C20   C     C_R   0.583758 0.344091 0.105913 -0.040836
C21   C     C_R   0.416620 0.751585 0.075159 0.099897
C22   C     C_R   0.699370 0.347646 0.965491 0.164779
C23   C     C_R   0.367622 0.727681 0.966424 0.166318
C24   C     C_R   0.663744 0.306561 0.066916 0.135174
C25   C     C_R   0.464543 0.589053 0.936879 -0.058217
C26   C     C_R   0.550013 0.431581 0.058400 0.039801
C27   C     C_R   0.481042 0.590813 0.064643 0.029383
C28   C     C_R   0.568191 0.452501 0.939694 0.021143
C29   C     C_R   0.508563 0.514087 0.871806 -0.094953
C30   C     C_R   0.508791 0.504670 0.127032 -0.118537
C31   C     C_R   0.091598 0.580904 0.520292 -0.166948
C32   C     C_R   0.908933 0.411921 0.518689 -0.161028
C33   C     C_R   0.902610 0.568143 0.430489 -0.168208
C34   C     C_R   0.101113 0.409137 0.501764 -0.180139
C35   C     C_R   0.182848 0.584517 0.543452 0.121956
C36   C     C_R   0.817629 0.408152 0.508775 0.135001
C37   C     C_R   0.810703 0.569720 0.426753 0.115404
C38   C     C_R   0.191064 0.411270 0.534599 0.149718
C39   C     C_R   0.235043 0.499668 0.532605 -0.062365
C40   C     C_R   0.766423 0.492241 0.475795 -0.050821
Cu1   Cu    Cu3+1 0.500000 0.596430 0.500000 0.947702
Cu2   Cu    Cu3+1 0.500000 0.403570 0.500000 0.934654
H1    H     H_    0.052617 0.645902 0.531388 0.142164
H2    H     H_    0.945579 0.351860 0.559163 0.133532
H3    H     H_    0.935181 0.627352 0.392301 0.139699
H4    H     H_    0.071254 0.339828 0.490107 0.135878
H5    H     H_    0.588003 0.067867 0.657245 0.143971
H6    H     H_    0.373655 0.932081 0.401013 0.137920
H7    H     H_    0.409871 0.071153 0.338102 0.143394
H8    H     H_    0.630381 0.927880 0.587825 0.138028
N1    N     N_R   0.500000 0.258690 0.500000 -0.178618
N2    N     N_R   0.500000 0.741310 0.500000 -0.167861
O1    O     O_R   0.371460 0.581430 0.500010 -0.576746
O2    O     O_R   0.628540 0.418570 0.499990 -0.597092
O3    O     O_R   0.628540 0.581430 0.499990 -0.586885
O4    O     O_R   0.371460 0.418570 0.500010 -0.580765
O5    O     O_R   0.499990 0.581440 0.319660 -0.613322
O6    O     O_R   0.500010 0.418560 0.680340 -0.588349
O7    O     O_R   0.500010 0.581440 0.680340 -0.596802
O8    O     O_R   0.499990 0.418560 0.319660 -0.587602
C41   C     C_3   0.710927 0.223386 0.132386 -0.876531
H9    H     H_    0.683648 0.207709 0.219642 0.211347
H10   H     H_    0.707356 0.158208 0.073298 0.238855
H11   H     H_    0.780750 0.240526 0.156552 0.248138
C42   C     C_3   0.290108 0.789895 0.921438 -0.770211
H12   H     H_    0.255745 0.757424 0.839887 0.239398
H13   H     H_    0.242553 0.796305 0.992248 0.212047
H14   H     H_    0.311587 0.862374 0.898687 0.254648
C43   C     C_3   0.788454 0.312240 0.929250 -0.865374
H15   H     H_    0.787026 0.233857 0.910732 0.234512
H16   H     H_    0.809804 0.345623 0.846982 0.215144
H17   H     H_    0.839429 0.327427 0.004026 0.246217
C44   C     C_3   0.414703 0.854692 0.120365 -0.886053
H18   H     H_    0.456740 0.866502 0.204937 0.221888
H19   H     H_    0.438659 0.901490 0.050379 0.248240
H20   H     H_    0.346879 0.878373 0.137132 0.236367
C45   C     C_2   0.563261 0.718069 0.182490 0.410377
H21   H     H_    0.563488 0.762517 0.263913 0.067707
O9    O     O_2   0.632748 0.699103 0.139067 -0.551643
C46   C     C_2   0.692659 0.478123 0.810709 0.369467
H22   H     H_    0.725039 0.444662 0.737169 0.048453
O10   O     O_2   0.694365 0.565115 0.822350 -0.546495
C47   C     C_2   0.449443 0.728929 0.794331 0.453682
H23   H     H_    0.519884 0.734582 0.795917 0.096376
O11   O     O_2   0.402461 0.776749 0.722810 -0.571003
C48   C     C_2   0.520463 0.276026 0.147567 0.407385
H24   H     H_    0.540747 0.219813 0.210630 0.072906
O12   O     O_2   0.444234 0.279264 0.104794 -0.570940
C49   C     C_3   0.216235 0.674037 0.606159 -0.841964
H25   H     H_    0.286459 0.668410 0.637462 0.287675
H26   H     H_    0.201685 0.737219 0.547914 0.229098
H27   H     H_    0.179700 0.685698 0.688124 0.222337
C50   C     C_3   0.780385 0.311790 0.532921 -0.850295
H28   H     H_    0.728121 0.291769 0.462100 0.260024
H29   H     H_    0.830867 0.253300 0.529981 0.215766
H30   H     H_    0.758299 0.311782 0.625164 0.221532
C51   C     C_3   0.764663 0.651691 0.359500 -0.779161
H31   H     H_    0.694502 0.639003 0.336877 0.269281
H32   H     H_    0.773508 0.719312 0.412709 0.213907
H33   H     H_    0.793481 0.660475 0.271228 0.254932
C52   C     C_3   0.230445 0.322779 0.596782 -0.827697
H34   H     H_    0.299292 0.330006 0.634441 0.262686
H35   H     H_    0.192749 0.308461 0.676247 0.225912
H36   H     H_    0.223337 0.259106 0.535991 0.217927
C53   C     C_3   0.600509 0.251611 0.693422 -0.809266
H37   H     H_    0.623998 0.322008 0.672160 0.257969
H38   H     H_    0.557552 0.257670 0.769797 0.240713
H39   H     H_    0.659538 0.207649 0.723896 0.190543
C54   C     C_3   0.355863 0.746655 0.368755 -0.784448
H40   H     H_    0.318898 0.797170 0.306483 0.185301
H41   H     H_    0.376106 0.685188 0.313104 0.255331
H42   H     H_    0.308108 0.725272 0.430704 0.252080
C55   C     C_3   0.369632 0.254476 0.341058 -0.715375
H43   H     H_    0.380652 0.327080 0.311348 0.282563
H44   H     H_    0.351406 0.211055 0.258050 0.218860
H45   H     H_    0.311491 0.256792 0.393458 0.205741
C56   C     C_3   0.642380 0.746198 0.636561 -0.744077
H46   H     H_    0.659383 0.792360 0.717702 0.196432
H47   H     H_    0.623876 0.677736 0.672500 0.296176
H48   H     H_    0.701896 0.737027 0.586350 0.221961

loop_
_geom_bond_atom_site_label_1
_geom_bond_atom_site_label_2
_ccdc_geom_bond_type
Cu1   Cu2   S    
C50   H28   S    
C41   H11   S    
C33   H3    S    
C15   O8    A    
C19   C23   A    
C9    N1    A    
C10   N2    A    
Cu2   O6    S    
C37   C51   S    
C51   H31   S    
C45   H21   S    
C7    C11   A    
C5    H5    S    
C52   H34   S    
C31   H1    S    
C32   C36   A    
C28   C29   A    
C1    O4    A    
C38   C52   S    
C2    O3    A    
C54   H41   S    
C38   C39   A    
C48   O12   D    
C9    C53   S    
C21   C44   S    
C10   C54   S    
C43   H16   S    
C44   H18   S    
C41   H10   S    
C1    O1    A    
Cu1   O3    S    
C51   H32   S    
C36   C50   S    
C20   C24   A    
C42   H13   S    
C20   C48   S    
C34   H4    S    
C49   H26   S    
C22   C43   S    
C5    C13   A    
Cu2   N1    S    
C55   H45   S    
Cu2   O4    S    
C52   H35   S    
C34   C38   A    
C13   C14   S    
C27   C30   A    
C15   O5    A    
C41   H9    S    
C19   C47   S    
C12   N2    A    
C45   O9    D    
C25   C29   A    
C53   H39   S    
C17   C27   A    
C36   C40   A    
C18   C28   A    
C7    H7    S    
C46   O10   D    
C2    O2    A    
C56   H48   S    
Cu2   O8    S    
C48   H24   S    
C3    C34   A    
C16   C29   S    
C33   C37   A    
C16   O7    A    
C43   H17   S    
C35   C39   A    
C5    C9    A    
C6    C14   A    
C53   H38   S    
C47   H23   S    
C8    C12   A    
C42   H14   S    
C17   C45   S    
C32   H2    S    
C16   O6    A    
C49   H27   S    
C3    C31   A    
Cu1   O1    S    
C4    C32   A    
C6    H6    S    
C24   C41   S    
C35   C49   S    
C18   C46   S    
C47   O11   D    
C50   H30   S    
C26   C30   A    
C52   H36   S    
C21   C23   A    
C44   H20   S    
C31   C35   A    
C54   H42   S    
C44   H19   S    
C37   C40   A    
C8    H8    S    
C51   H33   S    
C15   C30   S    
C55   H43   S    
C4    C33   A    
C8    C14   A    
Cu1   N2    S    
C18   C22   A    
C46   H22   S    
C6    C10   A    
C25   C27   A    
C53   H37   S    
C26   C28   A    
C23   C42   S    
C56   H47   S    
Cu1   O5    S    
C56   H46   S    
Cu2   O2    S    
C20   C26   A    
C22   C24   A    
C43   H15   S    
C11   C55   S    
C17   C21   A    
C11   N1    A    
C1    C39   S    
C19   C25   A    
C12   C56   S    
C2    C40   S    
C7    C13   A    
C50   H29   S    
C42   H12   S    
Cu1   O7    S    
C49   H25   S    
C54   H40   S    
C3    C4    S    
C55   H44   S    
