data_mof_unit_33640.cif
_audit_creation_date              2013-03-05T15:44:39-0500
_audit_creation_method            fapswitch 2.2
_symmetry_space_group_name_H-M    P1
_symmetry_Int_Tables_number       1
_space_group_crystal_system       triclinic
_cell_length_a                    24.874761
_cell_length_b                    7.333322
_cell_length_c                    14.925559
_cell_angle_alpha                 90.000214
_cell_angle_beta                  104.004602
_cell_angle_gamma                 90.000114
_cell_volume                      2641.71338668

loop_
_atom_site_label
_atom_site_type_symbol
_atom_site_description
_atom_site_fract_x
_atom_site_fract_y
_atom_site_fract_z
_atom_type_partial_charge
O1    O     O_R   0.319150 0.364170 0.330530 -0.596644
O2    O     O_R   0.680850 0.635830 0.669470 -0.577464
O3    O     O_R   0.180850 0.864170 0.169470 -0.596648
O4    O     O_R   0.819150 0.135830 0.830530 -0.577461
O5    O     O_R   0.210330 0.696850 0.354180 -0.609079
O6    O     O_R   0.789670 0.303150 0.645820 -0.583220
O7    O     O_R   0.289670 0.196850 0.145820 -0.609070
O8    O     O_R   0.710330 0.803150 0.854180 -0.583219
C1    C     C_R   0.195389 0.525692 0.373631 0.884790
C2    C     C_R   0.804560 0.474199 0.626447 0.894105
C3    C     C_R   0.304611 0.025691 0.126368 0.884796
C4    C     C_R   0.695440 0.974199 0.873551 0.894102
O9    O     O_R   0.320550 0.694110 0.341970 -0.575055
O10   O     O_R   0.679450 0.305890 0.658030 -0.590859
O11   O     O_R   0.179450 0.194110 0.158030 -0.575057
O12   O     O_R   0.820550 0.805890 0.841970 -0.590859
O13   O     O_R   0.291860 0.861000 0.157170 -0.580937
O14   O     O_R   0.708140 0.139000 0.842830 -0.609281
O15   O     O_R   0.208140 0.361000 0.342830 -0.580931
O16   O     O_R   0.791860 0.639000 0.657170 -0.609279
C5    C     C_R   0.340704 0.525604 0.362723 0.905867
C6    C     C_R   0.659290 0.474647 0.637349 0.896205
C7    C     C_R   0.159295 0.025604 0.137280 0.905876
C8    C     C_R   0.840709 0.974648 0.862653 0.896206
O17   O     O_3   0.240460 0.529330 0.189380 -0.286177
O18   O     O_3   0.759540 0.470670 0.810620 -0.287392
O19   O     O_3   0.259540 0.029330 0.310620 -0.286174
O20   O     O_3   0.740460 0.970670 0.689380 -0.287395
V1    V     V_3+5 0.251770 0.805510 0.261240 1.196034
V2    V     V_3+5 0.748230 0.194490 0.738760 1.194798
V3    V     V_3+5 0.248230 0.305510 0.238760 1.196037
V4    V     V_3+5 0.751770 0.694490 0.761240 1.194798
C9    C     C_R   0.103576 0.016495 0.075723 -0.168028
C10   C     C_R   0.896804 0.982317 0.922840 -0.165545
C11   C     C_R   0.396423 0.516498 0.424281 -0.168007
C12   C     C_R   0.603194 0.482317 0.577163 -0.165547
C13   C     C_R   0.953686 0.986610 0.078610 -0.064200
C14   C     C_R   0.047231 0.002417 0.919570 -0.057492
C15   C     C_R   0.546313 0.486632 0.421394 -0.064214
C16   C     C_R   0.452768 0.502410 0.580435 -0.057490
C17   C     C_R   0.902123 0.972809 0.017612 -0.116288
C18   C     C_R   0.098907 0.006557 0.981136 -0.107907
C19   C     C_R   0.597876 0.472824 0.482391 -0.116295
C20   C     C_R   0.401091 0.506549 0.518869 -0.107928
C21   C     C_R   0.944303 0.001444 0.886761 -0.035801
C22   C     C_R   0.055556 0.018687 0.110641 -0.040253
C23   C     C_R   0.555696 0.501438 0.613244 -0.035801
C24   C     C_R   0.444443 0.518703 0.389364 -0.040254
C25   C     C_R   0.997894 0.004499 0.950127 0.101887
C26   C     C_R   0.002373 0.004869 0.047285 0.101127
C27   C     C_R   0.502105 0.504498 0.549878 0.101905
C28   C     C_R   0.497626 0.504881 0.452720 0.101122
H1    H     H_    0.135767 0.004094 0.954494 0.142062
H2    H     H_    0.865715 0.957827 0.044852 0.147740
H3    H     H_    0.364232 0.504079 0.545511 0.142038
H4    H     H_    0.634284 0.457850 0.455150 0.147743
H5    H     H_    0.954562 0.979904 0.150630 0.213736
H6    H     H_    0.047168 0.995201 0.847971 0.206825
H7    H     H_    0.545436 0.479940 0.349374 0.213739
H8    H     H_    0.452830 0.495190 0.652034 0.206812
C29   C     C_R   0.662697 0.983277 0.942793 -0.106749
C30   C     C_R   0.337482 0.017729 0.056997 -0.103970
C31   C     C_R   0.837302 0.483275 0.557204 -0.106754
C32   C     C_R   0.162520 0.517737 0.443003 -0.103977
C33   C     C_R   0.660071 0.981445 0.102214 -0.050380
C34   C     C_R   0.340385 0.980538 0.898642 -0.057295
C35   C     C_R   0.839931 0.481383 0.397785 -0.050392
C36   C     C_R   0.159625 0.480696 0.601371 -0.057306
C37   C     C_R   0.689389 0.960804 0.035065 -0.159864
C38   C     C_R   0.310776 0.980049 0.966098 -0.153143
C39   C     C_R   0.810612 0.460766 0.464934 -0.159866
C40   C     C_R   0.189233 0.480183 0.533913 -0.153119
C41   C     C_R   0.605402 0.018496 0.917181 -0.254450
C42   C     C_R   0.395020 0.049537 0.081079 -0.255170
C43   C     C_R   0.894596 0.518508 0.582815 -0.254444
C44   C     C_R   0.104978 0.549480 0.418916 -0.255169
C45   C     C_R   0.573978 0.042133 0.984246 0.116863
C46   C     C_R   0.426680 0.055237 0.013436 0.122304
C47   C     C_R   0.926022 0.542118 0.515751 0.116873
C48   C     C_R   0.073320 0.555222 0.486562 0.122303
C49   C     C_R   0.603266 0.026575 0.078355 -0.065680
C50   C     C_R   0.397472 0.021910 0.920462 -0.064708
C51   C     C_R   0.896736 0.526521 0.421643 -0.065675
C52   C     C_R   0.102532 0.521975 0.579541 -0.064736
C53   C     C_R   0.514473 0.066898 0.961894 -0.170124
C54   C     C_R   0.486328 0.077536 0.034725 -0.173941
C55   C     C_R   0.985526 0.566891 0.538102 -0.170136
C56   C     C_R   0.013672 0.577497 0.465272 -0.173938
C57   C     C_R   0.519672 0.103282 0.125871 0.233883
C58   C     C_R   0.481519 0.075558 0.869756 0.229501
C59   C     C_R   0.980329 0.603208 0.374123 0.233871
C60   C     C_R   0.018481 0.575580 0.630240 0.229492
C61   C     C_R   0.576177 0.061336 0.148105 0.226512
C62   C     C_R   0.424946 0.035045 0.849490 0.225481
C63   C     C_R   0.923826 0.561249 0.351891 0.226512
C64   C     C_R   0.075056 0.535101 0.650509 0.225548
H9    H     H_    0.413645 0.064451 0.153141 0.162984
H10   H     H_    0.586748 0.023479 0.844642 0.162935
H11   H     H_    0.086349 0.564319 0.346852 0.162982
H12   H     H_    0.913248 0.523515 0.655354 0.162934
H13   H     H_    0.266686 0.952037 0.947111 0.133369
H14   H     H_    0.733330 0.930665 0.055297 0.137621
H15   H     H_    0.233328 0.452248 0.552904 0.133345
H16   H     H_    0.766672 0.430614 0.444703 0.137631
H17   H     H_    0.682598 0.963325 0.173364 0.169899
H18   H     H_    0.317858 0.949404 0.828757 0.168748
H19   H     H_    0.817406 0.463236 0.326636 0.169903
H20   H     H_    0.182158 0.449665 0.671263 0.168735
C65   C     C_R   0.061988 0.047561 0.211961 0.080080
C66   C     C_R   0.097681 0.937474 0.278047 -0.030969
C67   C     C_R   0.107580 0.976815 0.372274 -0.089733
C68   C     C_R   0.076195 0.109109 0.402469 -0.068336
C69   C     C_R   0.037330 0.207724 0.337825 0.004316
C70   C     C_R   0.033167 0.188360 0.243442 -0.099921
H21   H     H_    0.116287 0.817370 0.257199 0.137068
H22   H     H_    0.137187 0.898489 0.422380 0.143075
H23   H     H_    0.080156 0.129614 0.475608 0.122354
H24   H     H_    0.008239 0.290124 0.360842 0.104427
H25   H     H_    0.004514 0.273650 0.195073 0.175564
C71   C     C_R   0.936533 0.024829 0.784290 0.099020
C72   C     C_R   0.900830 0.909655 0.720710 -0.035251
C73   C     C_R   0.890122 0.941707 0.625723 -0.088406
C74   C     C_R   0.921209 0.069815 0.591972 -0.071524
C75   C     C_R   0.960060 0.173642 0.653772 -0.007309
C76   C     C_R   0.964216 0.163785 0.748725 -0.110689
H26   H     H_    0.882509 0.791519 0.743976 0.134504
H27   H     H_    0.859894 0.861165 0.577859 0.143226
H28   H     H_    0.916502 0.084786 0.518313 0.129543
H29   H     H_    0.987986 0.256747 0.627723 0.102541
H30   H     H_    0.992160 0.254765 0.794618 0.182739
C77   C     C_R   0.438011 0.547598 0.288046 0.080095
C78   C     C_R   0.402319 0.437519 0.221954 -0.030977
C79   C     C_R   0.392421 0.476875 0.127729 -0.089740
C80   C     C_R   0.423804 0.609184 0.097543 -0.068329
C81   C     C_R   0.462667 0.707798 0.162194 0.004340
C82   C     C_R   0.466830 0.688412 0.256575 -0.099920
H31   H     H_    0.383713 0.317408 0.242796 0.137061
H32   H     H_    0.362816 0.398549 0.077619 0.143067
H33   H     H_    0.419846 0.629703 0.024405 0.122339
H34   H     H_    0.491758 0.790214 0.139183 0.104435
H35   H     H_    0.495482 0.773697 0.304949 0.175540
C83   C     C_R   0.563466 0.524813 0.715716 0.099029
C84   C     C_R   0.599169 0.409637 0.779292 -0.035252
C85   C     C_R   0.609879 0.441684 0.874280 -0.088423
C86   C     C_R   0.578793 0.569787 0.908035 -0.071515
C87   C     C_R   0.539942 0.673617 0.846239 -0.007315
C88   C     C_R   0.535784 0.663766 0.751285 -0.110724
H36   H     H_    0.617490 0.291504 0.756022 0.134510
H37   H     H_    0.640109 0.361143 0.922141 0.143234
H38   H     H_    0.583502 0.584755 0.981694 0.129550
H39   H     H_    0.512018 0.756723 0.872292 0.102528
H40   H     H_    0.507841 0.754753 0.705395 0.182755
N1    N     N_R   0.606962 0.073097 0.242731 0.258609
O21   O     O_R   0.643053 0.202802 0.268865 -0.387926
O22   O     O_R   0.597204 0.958694 0.303497 -0.377176
N2    N     N_R   0.394378 0.029719 0.754579 0.259522
O23   O     O_R   0.358513 0.156826 0.721714 -0.378340
O24   O     O_R   0.405141 0.904873 0.699521 -0.387067
N3    N     N_R   0.893043 0.572965 0.257263 0.258613
O25   O     O_R   0.856954 0.702669 0.231108 -0.387899
O26   O     O_R   0.902800 0.458517 0.196514 -0.377217
N4    N     N_R   0.105622 0.529792 0.745420 0.259518
O27   O     O_R   0.141432 0.657035 0.778312 -0.378290
O28   O     O_R   0.094900 0.404828 0.800454 -0.387096
N5    N     N_R   0.501943 0.215712 0.190348 0.227800
O29   O     O_R   0.519917 0.381923 0.193580 -0.431451
O30   O     O_R   0.494393 0.143500 0.266045 -0.429837
N6    N     N_R   0.498799 0.181244 0.802248 0.232362
O31   O     O_R   0.480818 0.347543 0.795401 -0.426697
O32   O     O_R   0.506723 0.102654 0.728342 -0.424282
N7    N     N_R   0.998056 0.715642 0.309645 0.227808
O33   O     O_R   0.980082 0.881851 0.306418 -0.431444
O34   O     O_R   0.005604 0.643436 0.233946 -0.429833
N8    N     N_R   0.001195 0.681241 0.697751 0.232348
O35   O     O_R   0.019169 0.847549 0.704603 -0.426671
O36   O     O_R   0.993280 0.602630 0.771657 -0.424303

loop_
_geom_bond_atom_site_label_1
_geom_bond_atom_site_label_2
_geom_bond_distance
_ccdc_geom_bond_type
O17   V3    1.790428 S    
C55   C56   1.430467 A    
O1    C5    1.339827 A    
N5    O29   1.295164 A    
C50   C62   1.395989 A    
O19   V1    1.790423 S    
C1    C32   1.467564 S    
O13   V1    2.079068 S    
O3    C7    1.339826 A    
C67   C68   1.387097 A    
O1    V3    2.000942 S    
C39   H16   1.083964 S    
C3    C30   1.467576 S    
O15   V3    2.079066 S    
C47   C55   1.447807 A    
C86   C87   1.390333 A    
C38   H13   1.083935 S    
O4    V2    2.000949 S    
C74   C75   1.390336 A    
C14   C25   1.408998 A    
C53   C54   1.430464 A    
C44   H11   1.068766 S    
O7    C3    1.360173 A    
N7    O34   1.301871 A    
C23   C83   1.504295 S    
C85   H37   1.079175 S    
C63   N3    1.437043 S    
C9    C18   1.390162 A    
O9    V1    2.012119 S    
N2    O23   1.301363 A    
O10   V2    2.012119 S    
C14   C18   1.387793 A    
C18   H1    1.084228 S    
C68   H23   1.082568 S    
O4    C8    1.337965 A    
N6    O32   1.301157 A    
C84   C85   1.397643 A    
C60   C64   1.397884 A    
C30   C38   1.386408 A    
C12   C23   1.419010 A    
O2    V4    2.000940 S    
C52   C64   1.395974 A    
C73   H27   1.079177 S    
O3    V1    2.000948 S    
C66   C67   1.397921 A    
C14   H6    1.069593 S    
C76   H30   1.080296 S    
C1    O15   1.356891 A    
C2    C31   1.463991 S    
C2    O16   1.356734 A    
C78   C79   1.397920 A    
C7    C9    1.467410 S    
O2    C6    1.337964 A    
N3    O26   1.300738 A    
C24   C77   1.496738 S    
C67   H22   1.079361 S    
O14   V2    2.079068 S    
C45   C49   1.421783 A    
N1    O22   1.300748 A    
C16   C20   1.387798 A    
N4    O28   1.300644 A    
C70   H25   1.082290 S    
C13   C26   1.406166 A    
C36   C40   1.383851 A    
C46   C54   1.449465 A    
O11   C7    1.341299 A    
C15   C28   1.406166 A    
C45   C53   1.447806 A    
C79   H32   1.079366 S    
O12   C8    1.342899 A    
C55   C60   1.421829 A    
C13   C17   1.385295 A    
C9    C22   1.414195 A    
N5    O30   1.301875 A    
C81   H34   1.061668 S    
C10   C17   1.390210 A    
C34   H18   1.082227 S    
C11   C24   1.414190 A    
C33   H17   1.082300 S    
C68   C69   1.391798 A    
C58   C62   1.397895 A    
C42   H9    1.068768 S    
O5    V1    2.076989 S    
C41   H10   1.070375 S    
C17   H2    1.084326 S    
O7    V3    2.076984 S    
C87   C88   1.397698 A    
C27   C28   1.427279 A    
C36   C52   1.410943 A    
C44   C48   1.423421 A    
C81   C82   1.394545 A    
C69   C70   1.394552 A    
C77   C82   1.401377 A    
C80   H33   1.082569 S    
C71   C76   1.404008 A    
C15   C19   1.385293 A    
C60   N8    1.417842 S    
C78   H31   1.075406 S    
C37   H14   1.083963 S    
C8    C10   1.466454 S    
C69   H24   1.061668 S    
O8    V4    2.076986 S    
N2    O24   1.300655 A    
O5    C1    1.360166 A    
C82   H35   1.082291 S    
C34   C50   1.410951 A    
C49   C61   1.393685 A    
C46   C50   1.423130 A    
C33   C49   1.410457 A    
N3    O25   1.301281 A    
C56   C59   1.424128 A    
C21   C25   1.435898 A    
O8    C4    1.358690 A    
C15   H7    1.070993 S    
C32   C44   1.408215 A    
O9    C5    1.341301 A    
C10   C21   1.419005 A    
C51   C63   1.393688 A    
C11   C20   1.390164 A    
N7    O33   1.295161 A    
C57   N5    1.416263 S    
C72   C73   1.397643 A    
C65   C70   1.401380 A    
C21   C71   1.504292 S    
N6    O31   1.294455 A    
O6    V2    2.076989 S    
C31   C39   1.386403 A    
C79   C80   1.387103 A    
C77   C78   1.410345 A    
C35   C51   1.410458 A    
C71   C72   1.412342 A    
N4    O27   1.301344 A    
O16   V4    2.079066 S    
C29   C37   1.386403 A    
C3    O13   1.356892 A    
C58   N6    1.417849 S    
C83   C88   1.404010 A    
C86   H38   1.082656 S    
C85   C86   1.386650 A    
C54   C57   1.424143 A    
O6    C2    1.358690 A    
C23   C27   1.435900 A    
C53   C58   1.421823 A    
O11   V3    2.012116 S    
C80   C81   1.391803 A    
C5    C11   1.467411 S    
C40   H15   1.083937 S    
O12   V4    2.012114 S    
C16   C27   1.409000 A    
C6    C12   1.466458 S    
C22   C26   1.431478 A    
C59   N7    1.416263 S    
C29   C41   1.407242 A    
O10   C6    1.342901 A    
C61   N1    1.437050 S    
C88   H40   1.080297 S    
C73   C74   1.386652 A    
C72   H26   1.074897 S    
C48   C56   1.449454 A    
C65   C66   1.410344 A    
C48   C52   1.423121 A    
C47   C51   1.421786 A    
C4    C29   1.463984 S    
C20   H3    1.084227 S    
C35   H19   1.082298 S    
C74   H28   1.082656 S    
C34   C38   1.383852 A    
C31   C43   1.407238 A    
C33   C37   1.383119 A    
O20   V2    1.790422 S    
C43   H12   1.070369 S    
C64   N4    1.437031 S    
C75   H29   1.065750 S    
C35   C39   1.383120 A    
C32   C40   1.386399 A    
C57   C61   1.398044 A    
N8    O36   1.301159 A    
C84   H36   1.074898 S    
C59   C63   1.398037 A    
C87   H39   1.065753 S    
C19   H4    1.084327 S    
C24   C28   1.431474 A    
C62   N2    1.437042 S    
C25   C26   1.427281 A    
C42   C46   1.423425 A    
C22   C65   1.496745 S    
C4    O14   1.356734 A    
C16   H8    1.069589 S    
C41   C45   1.421882 A    
C83   C84   1.412338 A    
C30   C42   1.408221 A    
C12   C19   1.390210 A    
C36   H20   1.082214 S    
N1    O21   1.301284 A    
C43   C47   1.421886 A    
C66   H21   1.075401 S    
O18   V4    1.790429 S    
C13   H5    1.070993 S    
C75   C76   1.397696 A    
N8    O35   1.294454 A    
