data_mof_unit_13737.cif
_audit_creation_date              2012-12-10T18:08:20-0500
_audit_creation_method            fapswitch 2.2
_symmetry_space_group_name_H-M    P1
_symmetry_Int_Tables_number       1
_space_group_crystal_system       triclinic
_cell_length_a                    12.73484
_cell_length_b                    13.201872
_cell_length_c                    14.121744
_cell_angle_alpha                 91.74699
_cell_angle_beta                  101.414183
_cell_angle_gamma                 83.617405
_cell_volume                      2312.73119175

loop_
_atom_site_label
_atom_site_type_symbol
_atom_type_description
_atom_site_fract_x
_atom_site_fract_y
_atom_site_fract_z
_atom_type_partial_charge
C1    C     C_R   0.440883 0.690222 0.484035 0.871449
C2    C     C_R   0.535925 0.033719 0.459285 -0.076635
C3    C     C_R   0.643267 0.992475 0.463566 -0.039309
C4    C     C_R   0.500866 0.500292 0.670349 0.875788
C5    C     C_R   0.661974 0.893612 0.425730 0.332059
C6    C     C_R   0.575270 0.831679 0.410767 0.103585
C7    C     C_R   0.511621 0.138083 0.448613 0.409938
C8    C     C_R   0.697344 0.157276 0.521881 -0.272304
C9    C     C_R   0.406771 0.798418 0.467169 -0.092086
C10   C     C_R   0.081259 0.419074 0.321532 -0.286110
C11   C     C_R   0.799664 0.620391 0.620283 -0.058240
C12   C     C_1   0.496343 0.498121 0.227491 -0.171270
C13   C     C_R   0.901365 0.653294 0.646148 0.417442
C14   C     C_R   0.981274 0.614959 0.596019 -0.181030
C15   C     C_R   0.959846 0.543347 0.520352 -0.037894
C16   C     C_R   0.558913 0.309183 0.504823 0.905785
C17   C     C_R   0.852894 0.517617 0.491682 0.131741
C18   C     C_R   0.039941 0.497586 0.470405 -0.005721
C19   C     C_R   0.006411 0.457085 0.376945 0.092128
C20   C     C_R   0.899164 0.445022 0.343104 -0.222856
C21   C     C_R   0.828104 0.455567 0.407326 0.205054
C22   C     C_R   0.151398 0.485396 0.510126 0.267526
C23   C     C_R   0.725109 0.054886 0.500297 -0.053642
C24   C     C_R   0.189343 0.415912 0.361306 0.094931
C25   C     C_R   0.498847 0.499692 0.329603 0.940049
C26   C     C_1   0.502421 0.500060 0.772280 -0.183599
C27   C     C_1   0.501697 0.499315 0.857546 0.007371
C28   C     C_1   0.499620 0.498218 0.957205 0.034067
C29   C     C_1   0.497699 0.497486 0.042241 0.035916
C30   C     C_1   0.496130 0.497281 0.142004 -0.008482
C31   C     C_3   0.211367 0.420642 0.672074 -0.696589
C32   C     C_3   0.717977 0.329104 0.313429 -0.707831
C33   C     C_3   0.524122 0.763217 0.250891 -0.666432
C34   C     C_R   0.590348 0.200737 0.492097 -0.206900
C35   C     C_R   0.306573 0.837823 0.487757 -0.176866
C36   C     C_R   0.282596 0.941897 0.498999 -0.118486
C37   C     C_R   0.358767 0.006963 0.491279 -0.072470
C38   C     C_R   0.456367 0.969723 0.462932 0.089590
C39   C     C_R   0.479552 0.865113 0.446530 0.009988
H1    H     H_    0.759707 0.202834 0.556898 0.169584
H2    H     H_    0.247552 0.392292 0.316744 0.204958
H3    H     H_    0.242524 0.561846 0.622559 0.253409
H4    H     H_    0.238235 0.446230 0.747769 0.241623
H5    H     H_    0.275503 0.365305 0.651459 0.252713
H6    H     H_    0.137145 0.382363 0.667929 0.233417
H7    H     H_    0.844065 0.890766 0.771586 0.392515
H8    H     H_    0.788776 0.326822 0.457713 0.227427
H9    H     H_    0.647717 0.289233 0.320157 0.268232
H10   H     H_    0.781404 0.271296 0.295132 0.233930
H11   H     H_    0.692418 0.385299 0.254332 0.236004
H12   H     H_    0.877531 0.407496 0.273846 0.164938
H13   H     H_    0.892651 0.846854 0.522698 0.368827
H14   H     H_    0.317905 0.110484 0.223102 0.388647
H15   H     H_    0.648735 0.697805 0.359125 0.295247
H16   H     H_    0.436211 0.783202 0.246326 0.241406
H17   H     H_    0.536777 0.694477 0.206020 0.228293
H18   H     H_    0.557930 0.826609 0.221143 0.278675
H19   H     H_    0.056479 0.390881 0.248509 0.168424
H20   H     H_    0.736707 0.649523 0.658396 0.184260
H21   H     H_    0.057071 0.647065 0.612544 0.193307
H22   H     H_    0.809038 0.024613 0.516356 0.180262
H23   H     H_    0.249751 0.787822 0.502228 0.174349
H24   H     H_    0.343038 0.085581 0.512435 0.167158
H25   H     H_    0.207747 0.971554 0.520036 0.165621
N1    N     N_R   0.222200 0.444680 0.454480 -0.121545
N2    N     N_R   0.776970 0.554780 0.545050 -0.152568
N3    N     N_2   0.189115 0.507770 0.608902 -0.324189
N4    N     N_2   0.757303 0.379356 0.404364 -0.248481
N5    N     N_2   0.576787 0.743775 0.350198 -0.289040
O1    O     O_R   0.366740 0.627160 0.478260 -0.627060
O2    O     O_2   0.031583 0.786672 0.739428 -0.306510
O3    O     O_3   0.825411 0.841375 0.718330 -0.580626
O4    O     O_2   0.768545 0.788801 0.296183 -0.261793
O5    O     O_2   0.831485 0.949318 0.356979 -0.286592
O6    O     O_3   0.873984 0.794789 0.472016 -0.547204
O7    O     O_2   0.304496 0.214272 0.388280 -0.350944
O8    O     O_2   0.436124 0.266680 0.299091 -0.337368
O9    O     O_3   0.380892 0.083487 0.272100 -0.536890
O10   O     O_R   0.544830 0.662520 0.507340 -0.603962
O11   O     O_R   0.410930 0.482320 0.611740 -0.613844
O12   O     O_R   0.589030 0.517680 0.640820 -0.595766
O13   O     O_R   0.455170 0.337480 0.492660 -0.547716
O14   O     O_R   0.633260 0.372840 0.521740 -0.612579
O15   O     O_R   0.410970 0.482320 0.359180 -0.588195
O16   O     O_R   0.589070 0.517680 0.388260 -0.583805
O17   O     O_2   0.927882 0.697846 0.833733 -0.271030
S1    S     S_3+6 0.925765 0.745686 0.738078 0.010654
S2    S     S_3+6 0.784744 0.857006 0.383766 0.026369
S3    S     S_3+6 0.405245 0.180248 0.350907 0.004834
Zn1   Zn    Zn3+2 0.381090 0.476390 0.480580 0.984541
Zn2   Zn    Zn3+2 0.618910 0.523610 0.519420 0.958427

loop_
_geom_bond_atom_site_label_1
_geom_bond_atom_site_label_2
_ccdc_geom_bond_type
C33   H16   S    
C6    N5    S    
C15   C18   A    
C3    C23   A    
C2    C7    A    
H13   O6    S    
O16   Zn2   S    
O4    S2    D    
C31   N3    S    
O8    S3    D    
C26   C27   T    
C29   C30   S    
C31   H4    S    
C36   C37   A    
C10   H19   S    
C4    O11   A    
C20   H12   S    
C5    C6    A    
C7    S3    S    
C9    C39   A    
C8    C23   A    
C18   C19   A    
C16   C34   S    
C5    S2    S    
C4    O12   A    
C19   C20   A    
C25   O15   A    
H7    O3    S    
C11   N2    A    
C33   N5    S    
O7    S3    D    
C32   N4    S    
C33   H17   S    
C13   C14   A    
C24   H2    S    
C32   H9    S    
O1    Zn1   S    
O15   Zn1   S    
C11   H20   S    
C16   O13   A    
C37   H24   S    
O9    S3    S    
N1    Zn1   S    
C22   N3    S    
C31   H5    S    
C1    C9    S    
O17   S1    D    
C10   C24   A    
C16   O14   A    
C17   C21   A    
C35   C36   A    
C22   N1    A    
C37   C38   A    
C2    C38   A    
C10   C19   A    
C6    C39   A    
C13   S1    S    
C25   O16   A    
C17   N2    A    
C8    C34   A    
C32   H11   S    
C24   N1    A    
O2    S1    D    
C21   N4    S    
H3    N3    S    
C1    O10   A    
C7    C34   A    
H8    N4    S    
O3    S1    S    
O14   Zn2   S    
C15   C17   A    
C28   C29   T    
C33   H18   S    
C12   C30   T    
C18   C22   A    
O10   Zn2   S    
C3    C5    A    
C4    C26   S    
N2    Zn2   S    
C14   H21   S    
C1    O1    A    
O13   Zn1   S    
C12   C25   S    
C2    C3    A    
C11   C13   A    
C38   C39   A    
H15   N5    S    
H14   O9    S    
C35   H23   S    
O11   Zn1   S    
C32   H10   S    
O12   Zn2   S    
O6    S2    S    
C23   H22   S    
C20   C21   A    
C31   H6    S    
C27   C28   S    
C9    C35   A    
C14   C15   A    
C8    H1    S    
O5    S2    D    
C36   H25   S    
