data_mof_unit_48449.cif
_audit_creation_date              2012-12-10T18:05:59-0500
_audit_creation_method            fapswitch 2.2
_symmetry_space_group_name_H-M    P1
_symmetry_Int_Tables_number       1
_space_group_crystal_system       triclinic
_cell_length_a                    12.749716
_cell_length_b                    13.120848
_cell_length_c                    14.907025
_cell_angle_alpha                 92.817215
_cell_angle_beta                  101.766819
_cell_angle_gamma                 82.239814
_cell_volume                      2418.38951891

loop_
_atom_site_label
_atom_site_type_symbol
_atom_type_description
_atom_site_fract_x
_atom_site_fract_y
_atom_site_fract_z
_atom_type_partial_charge
C1    C     C_R   0.441266 0.689592 0.478271 0.959394
C2    C     C_R   0.438720 0.584039 0.804093 0.521916
C3    C     C_R   0.498684 0.502188 0.767220 -0.266416
C4    C     C_R   0.499912 0.501751 0.672079 1.027800
C5    C     C_R   0.541466 0.413605 0.815433 0.578857
C6    C     C_R   0.728819 0.048004 0.550301 0.701428
C7    C     C_R   0.598246 0.198917 0.507394 -0.306525
C8    C     C_R   0.301300 0.839074 0.429193 0.464171
C9    C     C_R   0.273186 0.944995 0.424378 0.608029
C10   C     C_R   0.352922 0.009916 0.437713 0.509348
C11   C     C_R   0.462947 0.968887 0.444622 -0.105457
C12   C     C_R   0.520524 0.402759 0.090375 0.058805
C13   C     C_R   0.491279 0.861086 0.440821 -0.023926
C14   C     C_R   0.547581 0.031267 0.464735 0.088625
C15   C     C_R   0.653172 0.986551 0.502503 -0.029455
C16   C     C_R   0.560608 0.308977 0.509779 0.884223
C17   C     C_R   0.681685 0.882566 0.485742 -0.283831
C18   C     C_R   0.602283 0.824126 0.441287 0.030616
C19   C     C_R   0.532361 0.136141 0.448139 -0.077154
C20   C     C_R   0.697868 0.154232 0.561091 -0.167465
C21   C     C_R   0.410564 0.796436 0.445618 -0.349211
C22   C     C_R   0.097949 0.332553 0.380545 0.662766
C23   C     C_R   0.344892 0.649709 0.023125 0.669426
C24   C     C_R   0.803641 0.621557 0.619670 -0.096724
C25   C     C_R   0.912825 0.625710 0.661487 -0.211999
C26   C     C_R   0.992945 0.565955 0.623446 0.719143
C27   C     C_R   0.966074 0.513385 0.539008 -0.124674
C28   C     C_R   0.498517 0.499669 0.326987 0.811080
C29   C     C_R   0.856684 0.497910 0.508448 -0.076289
C30   C     C_R   0.045312 0.467097 0.488640 -0.105052
C31   C     C_R   0.020003 0.384849 0.426115 -0.385758
C32   C     C_R   0.916096 0.358391 0.407946 0.688113
C33   C     C_R   0.835365 0.417706 0.443485 0.522438
C34   C     C_R   0.350589 0.654411 0.930649 -0.171994
C35   C     C_R   0.147591 0.500935 0.494693 -0.036181
C36   C     C_R   0.199268 0.363593 0.395675 0.677155
C37   C     C_R   0.541226 0.412284 0.186482 -0.085952
C38   C     C_R   0.490457 0.498047 0.228457 -0.152830
C39   C     C_R   0.420441 0.575985 0.176150 -0.060550
C40   C     C_R   0.411251 0.573356 0.080021 -0.041146
C41   C     C_R   0.467252 0.489215 0.038708 0.023042
C42   C     C_2   0.623213 0.338458 0.243389 0.596272
C43   C     C_2   0.468833 0.174860 0.357877 0.707564
C44   C     C_2   0.638462 0.736228 0.384502 0.556443
C45   C     C_R   0.419503 0.578001 0.892892 -0.115624
C46   C     C_2   0.363722 0.661890 0.224517 0.613899
C47   C     C_2   0.171157 0.602646 0.534295 0.703226
C48   C     C_2   0.718096 0.681719 0.660559 0.495065
C49   C     C_2   0.943218 0.692409 0.744255 0.607040
C50   C     C_2   0.277798 0.735647 0.873979 0.722535
C51   C     C_2   0.565227 0.206571 0.082177 0.577893
C52   C     C_2   0.768740 0.215881 0.627916 0.621336
C53   C     C_R   0.470581 0.491173 0.945371 -0.142769
C54   C     C_R   0.527632 0.406919 0.904926 -0.110550
C55   C     C_R   0.564187 0.315738 0.952866 0.645709
C56   C     C_R   0.553456 0.310690 0.043465 -0.186346
F1    F     F_    0.828107 0.003200 0.592078 -0.588650
F2    F     F_    0.268202 0.715750 0.054599 -0.574269
F3    F     F_    0.403428 0.669515 0.753004 -0.683233
F4    F     F_    0.594480 0.334052 0.773624 -0.618482
F5    F     F_    0.604619 0.229618 0.910245 -0.585937
F6    F     F_    0.221320 0.779045 0.421937 -0.566267
F7    F     F_    0.321978 0.111889 0.450138 -0.577042
F8    F     F_    0.167877 0.985510 0.414478 -0.490596
F9    F     F_    0.274032 0.315492 0.350433 -0.596716
F10   F     F_    0.890326 0.276613 0.352248 -0.503822
F11   F     F_    0.076606 0.252909 0.320795 -0.482975
F12   F     F_    0.095472 0.550936 0.673230 -0.651697
F13   F     F_    0.738370 0.389313 0.414992 -0.641201
H1    H     H_    0.766033 0.849850 0.498522 0.197236
H2    H     H_    0.619786 0.144261 0.059789 0.151852
H3    H     H_    0.735534 0.286826 0.657760 0.112144
H4    H     H_    0.608389 0.311324 0.306360 0.062224
H5    H     H_    0.461418 0.255171 0.341515 0.068268
H6    H     H_    0.719929 0.696357 0.402632 0.046749
H7    H     H_    0.316200 0.645472 0.273389 0.074105
H8    H     H_    0.247135 0.610903 0.580018 0.126518
H9    H     H_    0.665040 0.743523 0.623311 0.085200
H10   H     H_    0.884012 0.750588 0.765787 0.096468
H11   H     H_    0.242588 0.719736 0.802997 0.141482
N1    N     N_R   0.222190 0.444670 0.452360 -0.252361
N2    N     N_R   0.776970 0.554790 0.547140 -0.134170
O1    O     O_R   0.366740 0.627160 0.477250 -0.603220
O2    O     O_2   0.428909 0.116353 0.298263 -0.452769
O3    O     O_2   0.580202 0.711860 0.313677 -0.546509
O4    O     O_2   0.373564 0.751380 0.213097 -0.435004
O5    O     O_2   0.104395 0.678590 0.516842 -0.501469
O6    O     O_2   0.709613 0.665569 0.738590 -0.529820
O7    O     O_2   0.035028 0.683976 0.789595 -0.500527
O8    O     O_2   0.255347 0.821193 0.906379 -0.433634
O9    O     O_2   0.509780 0.188075 0.135696 -0.532482
O10   O     O_2   0.865339 0.187645 0.651504 -0.445522
O11   O     O_R   0.544830 0.662520 0.507680 -0.675744
O12   O     O_R   0.410940 0.482340 0.616930 -0.636458
O13   O     O_R   0.589030 0.517700 0.647360 -0.574444
O14   O     O_R   0.455170 0.337480 0.492320 -0.560453
O15   O     O_R   0.633260 0.372840 0.522750 -0.571874
O16   O     O_R   0.410970 0.482300 0.352640 -0.617320
O17   O     O_R   0.589060 0.517660 0.383070 -0.532700
O18   O     O_2   0.709106 0.308815 0.220572 -0.464296
Zn1   Zn    Zn3+2 0.381090 0.476390 0.479680 1.040754
Zn2   Zn    Zn3+2 0.618910 0.523610 0.520320 1.019189

loop_
_geom_bond_atom_site_label_1
_geom_bond_atom_site_label_2
_ccdc_geom_bond_type
C23   F2    S    
C55   C56   A    
C1    C21   S    
C27   C29   A    
C9    F8    S    
C10   F7    S    
C35   C47   S    
C46   H7    S    
C35   N1    A    
N1    Zn1   S    
C53   C54   A    
C26   C27   A    
C37   C38   A    
C13   C18   A    
C42   O18   D    
C38   C39   A    
C11   C14   A    
C16   O15   A    
C23   C40   A    
C29   C33   A    
C12   C37   A    
C51   C56   S    
C48   H9    S    
C37   C42   S    
C24   N2    A    
C51   O9    D    
C6    C15   A    
C50   O8    D    
O12   Zn1   S    
C8    C9    A    
C48   O6    D    
C9    C10   A    
O15   Zn2   S    
O13   Zn2   S    
C33   F13   S    
C43   H5    S    
C45   C53   A    
C17   H1    S    
O14   Zn1   S    
C27   C30   A    
C43   O2    D    
C6    F1    S    
C51   H2    S    
C19   C43   S    
C8    C21   A    
C2    C45   A    
C34   C50   S    
C16   O14   A    
C22   C31   A    
C24   C48   S    
C5    C54   A    
C24   C25   A    
C39   C40   A    
C2    F3    S    
C25   C26   A    
C49   H10   S    
C47   O5    D    
C44   H6    S    
C12   C41   A    
C52   H3    S    
C18   C44   S    
C4    O13   A    
C31   C32   A    
C28   C38   S    
C36   N1    A    
C23   C34   A    
C17   C18   A    
N2    Zn2   S    
C13   C21   A    
C34   C45   A    
C41   C53   A    
C12   C56   A    
C39   C46   S    
C4    O12   A    
C30   C35   A    
C28   O17   A    
C7    C16   S    
C7    C19   A    
C52   O10   D    
C47   H8    S    
C3    C4    S    
C6    C20   A    
C32   F10   S    
C28   O16   A    
C15   C17   A    
C54   C55   A    
C40   C41   A    
C42   H4    S    
O1    Zn1   S    
C5    F4    S    
C36   F9    S    
C14   C19   A    
C49   O7    D    
C3    C5    A    
C50   H11   S    
O11   Zn2   S    
C1    O1    A    
O16   Zn1   S    
C22   C36   A    
C26   F12   S    
C32   C33   A    
C2    C3    A    
C29   N2    A    
C20   C52   S    
C11   C13   A    
C30   C31   A    
C55   F5    S    
C25   C49   S    
C22   F11   S    
C10   C11   A    
O17   Zn2   S    
C1    O11   A    
C7    C20   A    
C14   C15   A    
C44   O3    D    
C8    F6    S    
C46   O4    D    
