data_mof_unit_45038.cif
_audit_creation_date              2012-12-10T17:27:56-0500
_audit_creation_method            fapswitch 2.2
_symmetry_space_group_name_H-M    P1
_symmetry_Int_Tables_number       1
_space_group_crystal_system       triclinic
_cell_length_a                    10.683485
_cell_length_b                    11.953663
_cell_length_c                    12.895508
_cell_angle_alpha                 93.0146
_cell_angle_beta                  89.637017
_cell_angle_gamma                 87.525101
_cell_volume                      1642.96971434

loop_
_atom_site_label
_atom_site_type_symbol
_atom_type_description
_atom_site_fract_x
_atom_site_fract_y
_atom_site_fract_z
_atom_type_partial_charge
C1    C     C_R   0.498246 0.521783 0.700486 0.894570
C2    C     C_R   0.503242 0.640784 0.862269 -0.204712
C3    C     C_R   0.495506 0.437804 0.867841 -0.282268
C4    C     C_R   0.739215 0.499798 0.488363 0.873069
C5    C     C_R   0.498719 0.446323 0.974443 0.190024
C6    C     C_R   0.504211 0.553306 0.025627 0.187271
C7    C     C_R   0.506848 0.561891 0.132225 -0.280187
C8    C     C_R   0.498231 0.359001 0.137857 -0.213490
C9    C     C_R   0.496405 0.349487 0.030519 -0.229679
C10   C     C_R   0.377586 0.954000 0.408255 -0.348065
C11   C     C_R   0.390059 0.837607 0.416372 0.019172
C12   C     C_R   0.941217 0.398357 0.446082 0.054816
C13   C     C_R   0.553824 0.858483 0.538467 -0.060656
C14   C     C_R   0.544900 0.975921 0.532856 0.096239
C15   C     C_R   0.455383 0.024103 0.466834 0.102037
C16   C     C_R   0.501414 0.478194 0.299535 0.872153
C17   C     C_R   0.446411 0.141520 0.461291 -0.085903
C18   C     C_R   0.610236 0.162402 0.583338 0.021870
C19   C     C_R   0.622785 0.046030 0.591364 -0.341073
C20   C     C_R   0.259051 0.498354 0.504927 0.886737
C21   C     C_R   0.893086 0.302313 0.392005 0.189452
C22   C     C_R   0.950657 0.196533 0.405895 -0.140074
C23   C     C_R   0.871437 0.500094 0.468570 -0.132498
C24   C     C_R   0.058907 0.186923 0.464334 -0.224502
C25   C     C_R   0.116564 0.282973 0.501865 -0.174382
C26   C     C_R   0.063241 0.391107 0.484950 0.081999
C27   C     C_3   0.790922 0.310869 0.311376 -0.374020
C28   C     C_3   0.839402 0.272328 0.202975 -0.903781
C29   C     C_R   0.930392 0.599068 0.495542 -0.206579
C30   C     C_R   0.056947 0.596143 0.509908 -0.217500
C31   C     C_R   0.124570 0.493271 0.505506 -0.118368
C32   C     C_R   0.502808 0.465325 0.188328 -0.046054
C33   C     C_R   0.498277 0.534505 0.811747 -0.055626
C34   C     C_R   0.506305 0.650166 0.969585 -0.223074
H1    H     H_    0.878367 0.678335 0.509644 0.166289
H2    H     H_    0.621641 0.819668 0.588941 0.122433
H3    H     H_    0.912163 0.121443 0.370634 0.139586
H4    H     H_    0.100930 0.104875 0.477462 0.149970
H5    H     H_    0.198576 0.269748 0.548647 0.176439
H6    H     H_    0.101214 0.674714 0.527596 0.168548
H7    H     H_    0.511236 0.644298 0.171188 0.161770
H8    H     H_    0.495388 0.283837 0.181076 0.164542
H9    H     H_    0.510421 0.732492 0.008571 0.138312
H10   H     H_    0.921583 0.320689 0.182130 0.270024
H11   H     H_    0.764704 0.286700 0.145118 0.263272
H12   H     H_    0.492521 0.267130 0.991563 0.139781
H13   H     H_    0.866492 0.181503 0.199048 0.254364
H14   H     H_    0.712173 0.258639 0.332774 0.230309
H15   H     H_    0.755122 0.398633 0.305819 0.197241
H16   H     H_    0.505678 0.716006 0.819106 0.160900
H17   H     H_    0.491050 0.355401 0.828879 0.161569
H18   H     H_    0.378743 0.180333 0.410693 0.135005
H19   H     H_    0.670395 0.216730 0.628160 0.140688
H20   H     H_    0.307857 0.988728 0.356929 0.145256
H21   H     H_    0.692583 0.011334 0.642631 0.144005
H22   H     H_    0.330028 0.783287 0.371406 0.135442
N1    N     N_R   0.523130 0.207800 0.519340 -0.108216
N2    N     N_R   0.476870 0.792180 0.480660 -0.100442
O1    O     O_R   0.506170 0.421690 0.658830 -0.626610
O2    O     O_R   0.491330 0.609320 0.646410 -0.624991
O3    O     O_R   0.690660 0.406170 0.506210 -0.627847
O4    O     O_R   0.675810 0.593790 0.493790 -0.623319
O5    O     O_R   0.508670 0.390680 0.353590 -0.641254
O6    O     O_R   0.493830 0.578310 0.341170 -0.625906
O7    O     O_R   0.324190 0.406210 0.506210 -0.633574
O8    O     O_R   0.309340 0.593830 0.493790 -0.622555
Zn1   Zn    Zn3+2 0.509910 0.374720 0.508290 0.923549
Zn2   Zn    Zn3+2 0.490090 0.625280 0.491710 0.938502

loop_
_geom_bond_atom_site_label_1
_geom_bond_atom_site_label_2
_ccdc_geom_bond_type
C27   H14   S    
O8    Zn2   S    
C28   H13   S    
C5    C9    A    
C6    C7    A    
C13   N2    A    
C16   O5    A    
C19   H21   S    
C16   C32   S    
C11   N2    A    
C16   O6    A    
O3    Zn1   S    
C18   N1    A    
C24   H4    S    
O4    Zn2   S    
C30   C31   A    
C3    C5    A    
C4    O4    A    
C6    C34   A    
C2    C34   A    
C7    H7    S    
C21   C27   S    
C30   H6    S    
C9    H12   S    
C11   H22   S    
C21   C22   A    
C25   H5    S    
C12   C23   A    
C29   C30   A    
C12   C21   A    
N1    Zn1   S    
C23   C29   A    
C17   H18   S    
N2    Zn2   S    
C8    H8    S    
C22   C24   A    
C10   C15   A    
C1    O1    A    
C12   C26   A    
C5    C6    A    
C10   H20   S    
O5    Zn1   S    
C28   H11   S    
C10   C11   A    
C3    C33   A    
C1    C33   S    
C13   C14   A    
C8    C32   A    
O6    Zn2   S    
C20   O7    A    
C26   C31   A    
C24   C25   A    
O2    Zn2   S    
C13   H2    S    
C18   C19   A    
C1    O2    A    
C20   O8    A    
C27   C28   S    
C15   C17   A    
C4    C23   S    
C29   H1    S    
C14   C15   A    
C14   C19   A    
C3    H17   S    
C7    C32   A    
C2    H16   S    
C18   H19   S    
O1    Zn1   S    
C25   C26   A    
C17   N1    A    
C22   H3    S    
C4    O3    A    
C28   H10   S    
C34   H9    S    
C27   H15   S    
C2    C33   A    
C8    C9    A    
O7    Zn1   S    
C20   C31   S    
