data_mof_unit_30794.cif
_audit_creation_date              2012-12-10T18:04:40-0500
_audit_creation_method            fapswitch 2.2
_symmetry_space_group_name_H-M    P1
_symmetry_Int_Tables_number       1
_space_group_crystal_system       triclinic
_cell_length_a                    19.530365
_cell_length_b                    17.686184
_cell_length_c                    12.596396
_cell_angle_alpha                 90.15376
_cell_angle_beta                  99.283087
_cell_angle_gamma                 90.031956
_cell_volume                      4294.01598115

loop_
_atom_site_label
_atom_site_type_symbol
_atom_type_description
_atom_site_fract_x
_atom_site_fract_y
_atom_site_fract_z
_atom_type_partial_charge
C1    C     C_R   0.411761 0.103337 0.444227 0.855469
C2    C     C_R   0.778276 0.784032 0.645778 0.155216
C3    C     C_R   0.275645 0.721283 0.648354 0.158180
C4    C     C_R   0.278277 0.284034 0.645776 0.155215
C5    C     C_R   0.342230 0.750834 0.675108 -0.238214
C6    C     C_R   0.345326 0.255564 0.670309 -0.236110
C7    C     C_R   0.842230 0.250833 0.675106 -0.238213
C8    C     C_R   0.845325 0.755561 0.670312 -0.236111
C9    C     C_R   0.374536 0.782946 0.595871 -0.189753
C10   C     C_R   0.375292 0.219861 0.591123 -0.189195
C11   C     C_R   0.874536 0.282945 0.595869 -0.189753
C12   C     C_R   0.412352 0.895957 0.444544 0.856251
C13   C     C_R   0.875291 0.719860 0.591126 -0.189194
C14   C     C_R   0.677035 0.188746 0.514628 -0.245719
C15   C     C_R   0.675645 0.809500 0.516303 -0.249766
C16   C     C_R   0.177036 0.688745 0.514628 -0.245720
C17   C     C_R   0.175644 0.309499 0.516303 -0.249765
C18   C     C_R   0.675949 0.159632 0.701571 -0.168527
C19   C     C_R   0.681153 0.849479 0.701080 -0.166810
C20   C     C_R   0.175949 0.659633 0.701571 -0.168527
C21   C     C_R   0.181155 0.349481 0.701079 -0.166810
C22   C     C_R   0.365103 0.833265 0.411130 -0.122094
C23   C     C_R   0.911761 0.603337 0.444227 0.855470
C24   C     C_R   0.362409 0.163553 0.409550 -0.119960
C25   C     C_R   0.865102 0.333266 0.411130 -0.122093
C26   C     C_R   0.862410 0.663555 0.409551 -0.119961
C27   C     C_R   0.643164 0.975883 0.137652 0.106634
C28   C     C_R   0.143164 0.475881 0.137652 0.106635
C29   C     C_R   0.378770 0.000764 0.762253 -0.082242
C30   C     C_R   0.878770 0.500764 0.762253 -0.082242
C31   C     C_R   0.352983 0.998791 0.858823 -0.052324
C32   C     C_R   0.852983 0.498792 0.858823 -0.052324
C33   C     C_R   0.590253 0.898961 0.557143 0.864280
C34   C     C_R   0.912352 0.395957 0.444544 0.856251
C35   C     C_R   0.589831 0.101722 0.556896 0.864510
C36   C     C_R   0.090253 0.398961 0.557143 0.864280
C37   C     C_R   0.089831 0.601722 0.556896 0.864509
C38   C     C_R   0.400256 0.996797 0.954870 -0.179623
C39   C     C_R   0.900256 0.496798 0.954870 -0.179623
C40   C     C_R   0.472800 0.997566 0.953812 -0.011233
C41   C     C_R   0.972800 0.497566 0.953812 -0.011233
C42   C     C_R   0.495387 0.997775 0.853679 0.208107
C43   C     C_R   0.995387 0.497775 0.853679 0.208107
C44   C     C_R   0.523331 0.996635 0.047869 -0.057314
C45   C     C_R   0.743609 0.218406 0.538857 0.081629
C46   C     C_R   0.023331 0.496635 0.047869 -0.057315
C47   C     C_R   0.595699 0.987826 0.041252 0.069789
C48   C     C_R   0.095699 0.487826 0.041252 0.069790
C49   C     C_R   0.616395 0.992742 0.939294 0.115833
C50   C     C_R   0.116395 0.492742 0.939294 0.115833
C51   C     C_R   0.566181 0.997115 0.848231 -0.273419
C52   C     C_R   0.066181 0.497115 0.848231 -0.273419
C53   C     C_R   0.504184 0.004981 0.149278 -0.048532
C54   C     C_R   0.004184 0.504981 0.149278 -0.048531
C55   C     C_R   0.619645 0.984559 0.234766 -0.045532
C56   C     C_R   0.742793 0.781174 0.538085 0.085353
C57   C     C_R   0.119645 0.484557 0.234765 -0.045532
C58   C     C_R   0.740743 0.193641 0.729260 -0.158730
C59   C     C_R   0.746424 0.816556 0.727043 -0.160338
C60   C     C_R   0.240742 0.693642 0.729261 -0.158729
C61   C     C_R   0.246426 0.316559 0.727040 -0.160339
C62   C     C_R   0.646049 0.153965 0.593303 -0.065158
C63   C     C_R   0.647394 0.848486 0.594371 -0.063166
C64   C     C_R   0.146049 0.653965 0.593303 -0.065157
C65   C     C_R   0.147394 0.348487 0.594371 -0.063166
C66   C     C_R   0.338447 0.824377 0.301459 -0.177525
C67   C     C_R   0.243610 0.718405 0.538858 0.081629
C68   C     C_R   0.332566 0.167426 0.300630 -0.179436
C69   C     C_R   0.838445 0.324380 0.301458 -0.177526
C70   C     C_R   0.832569 0.667431 0.300631 -0.179436
C71   C     C_R   0.284422 0.774297 0.269120 -0.116760
C72   C     C_R   0.276118 0.214117 0.268458 -0.097282
C73   C     C_R   0.784419 0.274301 0.269119 -0.116761
C74   C     C_R   0.776123 0.714124 0.268458 -0.097283
C75   C     C_R   0.253248 0.737050 0.345860 -0.175318
C76   C     C_R   0.246246 0.253296 0.345106 -0.164056
C77   C     C_R   0.753246 0.237054 0.345860 -0.175317
C78   C     C_R   0.242792 0.281173 0.538084 0.085353
C79   C     C_R   0.746250 0.753302 0.345107 -0.164055
C80   C     C_R   0.278214 0.746956 0.457215 0.085522
C81   C     C_R   0.274924 0.249062 0.455867 0.083595
C82   C     C_R   0.778212 0.246958 0.457215 0.085523
C83   C     C_R   0.774926 0.749065 0.455868 0.083594
C84   C     C_R   0.340114 0.787752 0.488345 0.082493
C85   C     C_R   0.338278 0.210817 0.485751 0.082997
C86   C     C_R   0.840113 0.287753 0.488343 0.082493
C87   C     C_R   0.838279 0.710818 0.485753 0.082996
C88   C     C_2   0.277157 0.998181 0.857779 0.400173
C89   C     C_R   0.775645 0.221282 0.648353 0.158179
C90   C     C_2   0.777157 0.498182 0.857779 0.400172
H1    H     H_    0.650717 0.135078 0.763626 0.180439
H2    H     H_    0.878943 0.492713 0.028331 0.172182
H3    H     H_    0.584172 0.001368 0.773125 0.227633
H4    H     H_    0.084173 0.501369 0.773125 0.227632
H5    H     H_    0.368879 0.750370 0.757547 0.158668
H6    H     H_    0.374276 0.259895 0.751095 0.159399
H7    H     H_    0.868880 0.250368 0.757545 0.158668
H8    H     H_    0.874273 0.759890 0.751099 0.159399
H9    H     H_    0.764446 0.196163 0.813137 0.161944
H10   H     H_    0.772965 0.818959 0.809472 0.167931
H11   H     H_    0.264445 0.696165 0.813138 0.161943
H12   H     H_    0.658715 0.878578 0.762760 0.181419
H13   H     H_    0.272968 0.318965 0.809469 0.167933
H14   H     H_    0.648610 0.189960 0.433851 0.156019
H15   H     H_    0.644623 0.804416 0.437667 0.151455
H16   H     H_    0.148611 0.689958 0.433850 0.156020
H17   H     H_    0.144621 0.304414 0.437669 0.151453
H18   H     H_    0.358105 0.857574 0.240753 0.165454
H19   H     H_    0.351452 0.132554 0.240700 0.163078
H20   H     H_    0.858103 0.357578 0.240753 0.165454
H21   H     H_    0.851456 0.632560 0.240699 0.163078
H22   H     H_    0.710814 0.199775 0.315606 0.142120
H23   H     H_    0.150716 0.635079 0.763627 0.180439
H24   H     H_    0.701863 0.787688 0.314892 0.150002
H25   H     H_    0.210818 0.699770 0.315607 0.142121
H26   H     H_    0.201858 0.287681 0.314891 0.150001
H27   H     H_    0.264617 0.766771 0.184392 0.159259
H28   H     H_    0.253587 0.217552 0.184243 0.168373
H29   H     H_    0.764613 0.266777 0.184392 0.159259
H30   H     H_    0.753593 0.717561 0.184243 0.168373
H31   H     H_    0.426900 0.803567 0.619825 0.176604
H32   H     H_    0.428023 0.199996 0.613213 0.172905
H33   H     H_    0.926900 0.303566 0.619822 0.176603
H34   H     H_    0.158718 0.378582 0.762758 0.181419
H35   H     H_    0.928022 0.699994 0.613217 0.172906
H36   H     H_    0.654356 0.975595 0.309706 0.170026
H37   H     H_    0.154356 0.475594 0.309705 0.170026
H38   H     H_    0.241939 0.999275 0.781728 0.061969
H39   H     H_    0.741939 0.499276 0.781727 0.061969
H40   H     H_    0.451942 0.015882 0.162051 0.129735
H41   H     H_    0.951942 0.515883 0.162051 0.129735
H42   H     H_    0.343719 0.002096 0.686372 0.144718
H43   H     H_    0.843719 0.502096 0.686372 0.144718
H44   H     H_    0.378943 0.992712 0.028331 0.172182
I1    I     I_    0.719110 0.012268 0.907686 -0.399583
I2    I     I_    0.219110 0.512270 0.907689 -0.399586
I3    I     I_    0.743643 0.925849 0.155907 -0.360191
I4    I     I_    0.243641 0.425844 0.155905 -0.360189
N1    N     N_R   0.552340 1.000000 0.237260 -0.120975
N2    N     N_R   0.052340 0.500000 0.237260 -0.120975
N3    N     N_R   0.448170 0.000000 0.762060 -0.121718
N4    N     N_R   0.948170 0.500000 0.762060 -0.121718
O1    O     O_R   0.448200 0.076800 0.373930 -0.612573
O2    O     O_R   0.585240 0.076800 0.457600 -0.606408
O3    O     O_R   0.085240 0.423200 0.457600 -0.613426
O4    O     O_R   0.085240 0.576800 0.457600 -0.606408
O5    O     O_R   0.551780 0.923190 0.626070 -0.639329
O6    O     O_R   0.551780 0.076810 0.626070 -0.640784
O7    O     O_R   0.051780 0.423190 0.626070 -0.639329
O8    O     O_R   0.051780 0.576810 0.626070 -0.640785
O9    O     O_2   0.253043 0.996510 0.941363 -0.566325
O10   O     O_2   0.753042 0.496512 0.941362 -0.566325
O11   O     O_R   0.448200 0.923200 0.373930 -0.609773
O12   O     O_R   0.948200 0.576800 0.373930 -0.612573
O13   O     O_R   0.948200 0.423200 0.373930 -0.609773
O14   O     O_R   0.414750 0.076790 0.542400 -0.612663
O15   O     O_R   0.414750 0.923210 0.542400 -0.613105
O16   O     O_R   0.914750 0.576790 0.542400 -0.612665
O17   O     O_R   0.914750 0.423210 0.542400 -0.613105
O18   O     O_R   0.585240 0.923200 0.457600 -0.613426
Zn1   Zn    Zn3+2 0.522330 0.000000 0.387520 0.946365
Zn2   Zn    Zn3+2 0.022330 0.500000 0.387520 0.946365
Zn3   Zn    Zn3+2 0.477660 0.000000 0.612480 0.927262
Zn4   Zn    Zn3+2 0.977660 0.500000 0.612480 0.927262

loop_
_geom_bond_atom_site_label_1
_geom_bond_atom_site_label_2
_ccdc_geom_bond_type
C83   C87   A    
C10   C85   A    
C8    C13   A    
C73   H29   S    
O2    Zn1   S    
C77   H22   S    
C45   C82   A    
C12   O11   A    
C80   C84   A    
C47   C49   A    
C28   C57   A    
C5    C9    A    
C54   H41   S    
O4    Zn2   S    
C27   I3    S    
C18   H1    S    
C61   H13   S    
C17   H17   S    
N4    Zn4   S    
C20   H23   S    
C19   H12   S    
C27   C55   A    
C43   C52   A    
C32   C39   A    
C29   H42   S    
O3    Zn2   S    
C11   C86   A    
N2    Zn2   S    
C14   C62   A    
C23   O16   A    
C12   C22   S    
C55   N1    A    
C23   C26   S    
C50   C52   A    
C8    H8    S    
C22   C66   A    
C33   O5    A    
C90   H39   S    
C44   C53   A    
C18   C58   A    
C32   C90   S    
O14   Zn3   S    
C19   C63   A    
C26   C87   A    
C49   C51   A    
C70   C74   A    
C9    H31   S    
C41   C46   A    
C69   C73   A    
C12   O15   A    
C20   C60   A    
C45   C89   A    
C24   C85   A    
O15   Zn3   S    
C21   C61   A    
C44   C47   A    
C16   H16   S    
C42   C51   A    
C35   O6    A    
C13   H35   S    
C3    C60   A    
C40   C42   A    
C49   I1    S    
C38   C40   A    
C53   N1    A    
C59   H10   S    
C41   C43   A    
C13   C87   A    
C34   O13   A    
C5    H5    S    
C14   C45   A    
O13   Zn2   S    
C46   C48   A    
C71   C75   A    
C71   H27   S    
N1    Zn1   S    
C28   I4    S    
C39   C41   A    
C70   H21   S    
O7    Zn4   S    
C2    C59   A    
C54   N2    A    
O16   Zn4   S    
C3    C5    A    
C82   C86   A    
C4    C61   A    
C2    C56   A    
C57   N2    A    
O11   Zn1   S    
C68   C72   A    
C22   C84   A    
C20   C64   A    
C1    O14   A    
C7    C11   A    
C4    C78   A    
C1    O1    A    
C69   H20   S    
C14   H14   S    
C66   C71   A    
C58   H9    S    
C55   H36   S    
C33   C63   S    
C30   H43   S    
C29   N3    A    
C46   C54   A    
C42   N3    A    
C72   C76   A    
C16   C67   A    
C52   H4    S    
C51   H3    S    
C90   O10   D    
N3    Zn3   S    
C6    H6    S    
C74   C79   A    
C37   O4    A    
C88   O9    D    
C25   C86   A    
C79   H24   S    
C4    C6    A    
C75   H25   S    
C72   H28   S    
C60   H11   S    
C39   H2    S    
C37   C64   S    
C74   H30   S    
C56   C83   A    
C75   C80   A    
C27   C47   A    
C28   C48   A    
C73   C77   A    
C31   C88   S    
C7    H7    S    
C21   C65   A    
C36   C65   S    
O6    Zn3   S    
O12   Zn2   S    
C18   C62   A    
C67   C80   A    
C66   H18   S    
C10   H32   S    
C76   C81   A    
C57   H37   S    
C33   O18   A    
C11   H33   S    
O8    Zn4   S    
C25   C34   S    
C17   C65   A    
C30   N4    A    
C31   C38   A    
C19   C59   A    
C15   C56   A    
C15   H15   S    
C21   H34   S    
C88   H38   S    
C37   O8    A    
C50   I2    S    
C34   O17   A    
C35   O2    A    
C30   C32   A    
C78   C81   A    
C3    C67   A    
C77   C82   A    
C26   C70   A    
C48   C50   A    
C17   C78   A    
C76   H26   S    
C58   C89   A    
C35   C62   S    
C68   H19   S    
C38   H44   S    
C36   O7    A    
O18   Zn1   S    
C6    C10   A    
C24   C68   A    
C9    C84   A    
C79   C83   A    
C36   O3    A    
C40   C44   A    
C25   C69   A    
C1    C24   S    
C29   C31   A    
C23   O12   A    
C2    C8    A    
C15   C63   A    
O17   Zn4   S    
C43   N4    A    
O5    Zn3   S    
C53   H40   S    
C16   C64   A    
O1    Zn1   S    
C81   C85   A    
C7    C89   A    
