data_mof_unit_31683.cif
_audit_creation_date              2012-12-11T16:26:31-0500
_audit_creation_method            fapswitch 2.2
_symmetry_space_group_name_H-M    P1
_symmetry_Int_Tables_number       1
_space_group_crystal_system       triclinic
_cell_length_a                    6.933388
_cell_length_b                    17.560796
_cell_length_c                    19.435101
_cell_angle_alpha                 108.669074
_cell_angle_beta                  89.434289
_cell_angle_gamma                 90.713274
_cell_volume                      2241.61041749

loop_
_atom_site_label
_atom_site_type_symbol
_atom_type_description
_atom_site_fract_x
_atom_site_fract_y
_atom_site_fract_z
_atom_type_partial_charge
O1    O     O_R   0.494330 0.415720 0.413720 -0.534812
O2    O     O_R   0.819330 0.430070 0.560210 -0.543864
O3    O     O_R   0.994320 0.584280 0.586280 -0.534073
C1    C     C_R   0.649694 0.414012 0.581035 0.707069
O4    O     O_R   0.823730 0.406300 0.412670 -0.537867
O5    O     O_R   0.998760 0.560340 0.437690 -0.543519
C2    C     C_R   0.654946 0.383451 0.385071 0.699216
O6    O     O_R   0.489890 0.439660 0.562310 -0.541453
O7    O     O_3   0.662340 0.550560 0.508380 -0.368525
V1    V     V_3+5 0.935370 0.490620 0.498450 1.406831
O8    O     O_R   0.328750 0.569930 0.439790 -0.539604
C3    C     C_R   0.161059 0.588011 0.420734 0.707459
O9    O     O_R   0.324340 0.593700 0.587330 -0.539472
C4    C     C_R   0.155465 0.616642 0.614855 0.693173
V2    V     V_3+5 0.435940 0.509380 0.501550 1.406774
O10   O     O_3   0.159100 0.449440 0.491620 -0.366374
H1    H     H_    0.884721 0.852692 0.569099 0.113828
C5    C     C_R   0.286694 0.601641 0.750705 -0.140939
C6    C     C_R   0.348809 0.592063 0.815357 -0.126758
C7    C     C_R   0.335946 0.655448 0.880011 -0.118876
C8    C     C_R   0.260929 0.728866 0.880479 -0.132427
C9    C     C_R   0.198224 0.740650 0.815534 0.068035
C10   C     C_R   0.211230 0.675674 0.749288 0.070520
C11   C     C_R   0.119955 0.815079 0.816056 -0.186101
C12   C     C_R   0.054681 0.824486 0.750282 0.070137
C13   C     C_R   0.067979 0.759534 0.684017 0.072747
C14   C     C_R   0.145763 0.685074 0.683575 -0.184733
C15   C     C_R   0.979267 0.898487 0.748800 -0.141547
C16   C     C_R   0.917880 0.908110 0.684048 -0.123821
C17   C     C_R   0.931358 0.844778 0.619361 -0.124497
C18   C     C_R   0.006085 0.771349 0.618980 -0.141847
H2    H     H_    0.297471 0.550195 0.702104 0.104077
H3    H     H_    0.406113 0.534962 0.815309 0.119813
H4    H     H_    0.383231 0.647576 0.930205 0.113402
H5    H     H_    0.251285 0.775819 0.932403 0.102906
H6    H     H_    0.968063 0.949851 0.797439 0.102013
H7    H     H_    0.860690 0.965208 0.684039 0.118818
H8    H     H_    0.016238 0.724409 0.567066 0.091769
C19   C     C_R   0.012659 0.626846 0.321395 -0.258530
C20   C     C_R   0.155309 0.641876 0.375025 -0.119067
C21   C     C_R   0.288688 0.706998 0.383610 0.081770
C22   C     C_R   0.284027 0.751401 0.333531 0.074950
C23   C     C_R   0.137808 0.734633 0.280020 0.014954
C24   C     C_R   0.999783 0.673616 0.275408 0.087407
C25   C     C_R   0.420068 0.812840 0.335515 -0.183374
C26   C     C_R   0.413822 0.854891 0.285615 -0.191535
C27   C     C_R   0.268554 0.838952 0.233438 0.095559
C28   C     C_R   0.127867 0.779594 0.231175 0.058378
C29   C     C_R   0.976977 0.765240 0.180066 0.095972
C30   C     C_R   0.838071 0.705755 0.177682 -0.180145
C31   C     C_R   0.850424 0.659862 0.224428 -0.173240
C32   C     C_R   0.261245 0.881875 0.183804 -0.212655
C33   C     C_R   0.111214 0.868189 0.133018 -0.088112
C34   C     C_R   0.967995 0.810421 0.132099 -0.228338
H9    H     H_    0.909929 0.578082 0.315433 0.132497
H10   H     H_    0.534547 0.829205 0.374855 0.134865
H11   H     H_    0.522410 0.900700 0.288380 0.122965
H12   H     H_    0.370516 0.927230 0.185664 0.123135
H13   H     H_    0.851764 0.799551 0.093112 0.127175
H14   H     H_    0.720785 0.694143 0.139133 0.125968
H15   H     H_    0.742279 0.613690 0.220930 0.123266
C35   C     C_R   0.468021 0.185213 0.867267 -0.225215
C36   C     C_R   0.624039 0.135458 0.869665 -0.080363
C37   C     C_R   0.783943 0.131890 0.823576 -0.224295
C38   C     C_R   0.786605 0.175811 0.774472 0.089235
C39   C     C_R   0.629755 0.225727 0.772759 0.054176
C40   C     C_R   0.470544 0.230779 0.819693 0.089183
C41   C     C_R   0.942735 0.170357 0.726657 -0.193791
C42   C     C_R   0.945073 0.214910 0.678423 -0.185322
C43   C     C_R   0.791465 0.265817 0.677220 0.091379
C44   C     C_R   0.632177 0.270765 0.724106 0.054739
C45   C     C_R   0.475629 0.320922 0.722629 0.088853
C46   C     C_R   0.318775 0.325872 0.769995 -0.192237
C47   C     C_R   0.316210 0.281170 0.818068 -0.186384
C48   C     C_R   0.795066 0.312297 0.630389 -0.235392
C49   C     C_R   0.640110 0.362907 0.628821 -0.081301
C50   C     C_R   0.479504 0.365830 0.674395 -0.224372
H16   H     H_    0.344511 0.188869 0.902803 0.127709
H17   H     H_    0.904602 0.093770 0.824854 0.118945
H18   H     H_    0.063774 0.131973 0.726860 0.134009
H19   H     H_    0.068068 0.210101 0.642485 0.134063
H20   H     H_    0.918692 0.308874 0.594955 0.125478
H21   H     H_    0.359380 0.404397 0.673547 0.119756
H22   H     H_    0.197642 0.364194 0.769740 0.134630
H23   H     H_    0.192861 0.285757 0.853801 0.134213
C51   C     C_R   0.554828 0.407861 0.249734 -0.143905
C52   C     C_R   0.505338 0.421627 0.185449 -0.122750
C53   C     C_R   0.493301 0.357855 0.121002 -0.116838
C54   C     C_R   0.530713 0.279833 0.120339 -0.135151
C55   C     C_R   0.579971 0.263857 0.184869 0.066832
C56   C     C_R   0.592225 0.329173 0.250916 0.067861
C57   C     C_R   0.620197 0.184629 0.184152 -0.174140
C58   C     C_R   0.672238 0.170712 0.249559 0.070710
C59   C     C_R   0.683949 0.235876 0.315557 0.052015
C60   C     C_R   0.644316 0.315182 0.316222 -0.171110
C61   C     C_R   0.709858 0.092245 0.250819 -0.201006
C62   C     C_R   0.758243 0.078135 0.315070 -0.116050
C63   C     C_R   0.769277 0.141838 0.380667 0.190283
C64   C     C_R   0.731844 0.219928 0.380220 -0.200922
H24   H     H_    0.564555 0.459684 0.298197 0.099808
H25   H     H_    0.477118 0.482194 0.185619 0.112633
H26   H     H_    0.455737 0.368905 0.071118 0.114335
H27   H     H_    0.521662 0.232479 0.068629 0.098612
H28   H     H_    0.701047 0.040552 0.202214 0.114123
H29   H     H_    0.785770 0.016851 0.312569 0.124277
H30   H     H_    0.739354 0.268059 0.431540 0.098484
O11   O     O_R   0.775200 0.060470 0.937800 -0.541868
O12   O     O_R   0.441110 0.093720 0.087350 -0.539190
O13   O     O_R   0.266330 0.939630 0.062280 -0.541864
C65   C     C_R   0.609792 0.116458 0.115156 0.698356
O14   O     O_R   0.445750 0.069950 0.939820 -0.544926
O15   O     O_R   0.271000 0.915700 0.913700 -0.535241
C66   C     C_R   0.615248 0.085526 0.918538 0.704732
O16   O     O_R   0.770530 0.084400 0.086380 -0.535016
O17   O     O_3   0.602830 0.949510 0.991680 -0.368162
V3    V     V_3+5 0.329710 0.009370 0.001550 1.414328
O18   O     O_R   0.940990 0.906170 0.912570 -0.538825
C67   C     C_R   0.109929 0.883465 0.884899 0.697333
O19   O     O_R   0.936350 0.929940 0.060100 -0.544272
C68   C     C_R   0.104000 0.915376 0.082095 0.707029
V4    V     V_3+5 0.829160 0.990450 0.998310 1.415929
O20   O     O_3   0.105910 0.050480 0.008320 -0.368129
C69   C     C_3   0.422535 0.733249 0.449040 -0.359001
C70   C     C_3   0.626083 0.700144 0.430013 -0.667600
H31   H     H_    0.622380 0.634033 0.403692 0.234262
H32   H     H_    0.698997 0.727454 0.392557 0.207471
H33   H     H_    0.713096 0.714222 0.480258 0.203671
H34   H     H_    0.428636 0.799808 0.472005 0.162083
H35   H     H_    0.364725 0.714624 0.494691 0.175487
C71   C     C_3   0.818937 0.130677 0.452755 -0.358544
C72   C     C_3   0.855610 0.044083 0.450191 -0.772151
H36   H     H_    0.725237 0.006074 0.430922 0.221841
H37   H     H_    0.980507 0.018916 0.414196 0.229902
H38   H     H_    0.889507 0.043163 0.505655 0.223398
H39   H     H_    0.949983 0.167146 0.474722 0.176933
H40   H     H_    0.698755 0.154572 0.491710 0.184898

loop_
_geom_bond_atom_site_label_1
_geom_bond_atom_site_label_2
_ccdc_geom_bond_type
C41   H18   S    
C52   C53   A    
C58   C59   A    
O17   V4    S    
C21   C22   A    
C71   H39   S    
C31   H15   S    
O12   V3    S    
C1    O6    A    
C72   H38   S    
C62   C63   A    
C55   C56   A    
C33   C68   S    
C69   C70   S    
C33   C34   A    
C12   C15   A    
C13   C14   A    
C16   C17   A    
V3    O20   S    
C35   C40   A    
C15   C16   A    
C51   C56   A    
O5    C3    A    
C17   C18   A    
C50   H21   S    
V2    O10   S    
C5    C6    A    
C46   C47   A    
O18   V4    S    
O11   C66   A    
O13   V3    S    
C52   H25   S    
O16   V4    S    
O8    V2    S    
C19   H9    S    
C39   C44   A    
C25   H10   S    
C41   C42   A    
O14   V3    S    
O1    V2    S    
C10   C14   A    
C4    C14   S    
C51   H24   S    
C23   C28   A    
C65   O16   A    
C46   H22   S    
C7    H4    S    
C39   C40   A    
C13   C18   A    
O9    C4    A    
C69   H35   S    
H1    C17   S    
C59   C60   A    
C34   H13   S    
O19   V4    S    
C5    C10   A    
C49   C50   A    
C6    H3    S    
C19   C20   A    
O4    C2    A    
C51   C52   A    
C12   C13   A    
C25   C26   A    
C22   C25   A    
C3    C20   S    
C27   C32   A    
O2    C1    A    
C48   C49   A    
C35   C36   A    
C55   C57   A    
C27   C28   A    
O19   C68   A    
C38   C41   A    
C61   C62   A    
C63   C71   S    
C30   C31   A    
O14   C66   A    
C40   C47   A    
C11   C12   A    
V4    O20   S    
C43   C44   A    
O3    C4    A    
C32   H12   S    
C70   H33   S    
C24   C31   A    
C20   C21   A    
C63   C64   A    
O6    V2    S    
O9    V2    S    
C23   C24   A    
C37   H17   S    
C9    C11   A    
C5    H2    S    
C22   C23   A    
O11   V4    S    
C72   H36   S    
O2    V1    S    
O15   V3    S    
C32   C33   A    
C70   H32   S    
O7    V1    S    
C64   H30   S    
C26   C27   A    
C28   C29   A    
C7    C8    A    
O1    C2    A    
C35   H16   S    
C71   H40   S    
C45   C46   A    
C72   H37   S    
O5    V1    S    
C45   C50   A    
C53   H26   S    
O8    C3    A    
C48   H20   S    
C19   C24   A    
C8    H5    S    
C58   C61   A    
C2    C60   S    
C11   C67   S    
C18   H8    S    
C30   H14   S    
C37   C38   A    
C21   C69   S    
C6    C7    A    
C61   H28   S    
C71   C72   S    
O7    V2    S    
C62   H29   S    
O4    V1    S    
C26   H11   S    
O3    V1    S    
V1    O10   S    
O18   C67   A    
O15   C67   A    
C57   C65   S    
C69   H34   S    
C59   C64   A    
C57   C58   A    
O12   C65   A    
C38   C39   A    
C47   H23   S    
C42   C43   A    
C1    C49   S    
C42   H19   S    
C56   C60   A    
C36   C37   A    
C36   C66   S    
C44   C45   A    
C53   C54   A    
C15   H6    S    
C29   C30   A    
C16   H7    S    
C43   C48   A    
C9    C10   A    
O17   V3    S    
C54   C55   A    
C8    C9    A    
C54   H27   S    
C29   C34   A    
O13   C68   A    
C70   H31   S    
