data_mof_unit_53481.cif
_audit_creation_date              2013-03-05T15:41:00-0500
_audit_creation_method            fapswitch 2.2
_symmetry_space_group_name_H-M    P1
_symmetry_Int_Tables_number       1
_space_group_crystal_system       triclinic
_cell_length_a                    28.021746
_cell_length_b                    7.191267
_cell_length_c                    17.26121
_cell_angle_alpha                 89.942114
_cell_angle_beta                  100.952674
_cell_angle_gamma                 89.778554
_cell_volume                      3414.94775941

loop_
_atom_site_label
_atom_site_type_symbol
_atom_site_description
_atom_site_fract_x
_atom_site_fract_y
_atom_site_fract_z
_atom_type_partial_charge
O1    O     O_R   0.000700 0.436510 0.857920 -0.521596
O2    O     O_R   0.999300 0.563490 0.142080 -0.544310
O3    O     O_R   0.999300 0.936510 0.642080 -0.520713
O4    O     O_R   0.000700 0.063490 0.357920 -0.544084
O5    O     O_R   0.930080 0.766380 0.721890 -0.557949
O6    O     O_R   0.069920 0.233620 0.278110 -0.551602
O7    O     O_R   0.069920 0.266380 0.778110 -0.557380
O8    O     O_R   0.930080 0.733620 0.221890 -0.549712
C1    C     C_R   0.910470 0.598059 0.709380 0.823627
C2    C     C_R   0.089466 0.401957 0.290848 0.809542
C3    C     C_R   0.089458 0.097266 0.790478 0.826735
C4    C     C_R   0.910684 0.902782 0.209153 0.809977
O9    O     O_R   0.996180 0.766230 0.862310 -0.571979
O10   O     O_R   0.003820 0.233770 0.137690 -0.575392
O11   O     O_R   0.003820 0.266230 0.637690 -0.571644
O12   O     O_R   0.996180 0.733770 0.362310 -0.575461
O13   O     O_R   0.065870 0.936460 0.783500 -0.560926
O14   O     O_R   0.934130 0.063540 0.216500 -0.565691
O15   O     O_R   0.934130 0.436460 0.716500 -0.560533
O16   O     O_R   0.065870 0.563540 0.283500 -0.565619
C5    C     C_R   0.997670 0.595947 0.894218 0.804839
C6    C     C_R   0.001993 0.404074 0.105793 0.813929
C7    C     C_R   0.002309 0.096004 0.605758 0.805233
C8    C     C_R   0.998026 0.903994 0.394229 0.814287
O17   O     O_3   0.022790 0.603020 0.723980 -0.277838
O18   O     O_3   0.977210 0.396980 0.276020 -0.293924
O19   O     O_3   0.977210 0.103020 0.776020 -0.279430
O20   O     O_3   0.022790 0.896980 0.223980 -0.295728
V1    V     V_3+5 0.995770 0.877900 0.754830 1.155214
V2    V     V_3+5 0.004230 0.122100 0.245170 1.117968
V3    V     V_3+5 0.004230 0.377900 0.745170 1.155794
V4    V     V_3+5 0.995770 0.622100 0.254830 1.118792
C9    C     C_2   0.007970 0.077722 0.521754 0.173636
C10   C     C_2   0.991990 0.922539 0.477872 0.196506
C11   C     C_2   0.992008 0.577915 0.978188 0.172318
C12   C     C_2   0.008046 0.422432 0.022194 0.195126
C13   C     C_R   0.680861 0.830640 0.053397 0.611439
C14   C     C_R   0.319800 0.166489 0.945385 0.606378
C15   C     C_R   0.318918 0.325831 0.454445 0.582308
C16   C     C_R   0.677607 0.686859 0.562460 0.619719
O21   O     O_2   0.706620 0.684020 0.034697 -0.525218
O22   O     O_2   0.292389 0.292629 0.975036 -0.522442
O23   O     O_2   0.290717 0.209586 0.487325 -0.511229
O24   O     O_2   0.704098 0.809782 0.529588 -0.520627
N1    N     N_R   0.703268 0.957587 0.106937 -0.449911
N2    N     N_R   0.298058 0.052994 0.885570 -0.455760
N3    N     N_R   0.297705 0.435745 0.392586 -0.450315
N4    N     N_R   0.701064 0.565611 0.618314 -0.455711
C17   C     C_R   0.678098 0.105156 0.129494 0.577239
C18   C     C_R   0.324564 0.923591 0.853637 0.591203
C19   C     C_R   0.324736 0.557519 0.357963 0.552343
C20   C     C_R   0.675529 0.436429 0.652013 0.564293
C21   C     C_R   0.776056 0.786969 0.176919 -0.007013
C22   C     C_R   0.216799 0.907731 0.865314 -0.023298
C23   C     C_R   0.223211 0.262540 0.334217 -0.022633
C24   C     C_R   0.782359 0.416326 0.634917 -0.013252
C25   C     C_R   0.826615 0.771884 0.200599 -0.134530
C26   C     C_R   0.166206 0.918539 0.842825 -0.131137
C27   C     C_R   0.172622 0.253700 0.310073 -0.124326
C28   C     C_R   0.833094 0.423874 0.656930 -0.136525
C29   C     C_R   0.836062 0.072743 0.142188 -0.122289
C30   C     C_R   0.172587 0.241963 0.807130 -0.129025
C31   C     C_R   0.165969 0.576488 0.346628 -0.126620
C32   C     C_R   0.827533 0.747385 0.692797 -0.130383
C33   C     C_R   0.785759 0.086160 0.117495 -0.022353
C34   C     C_R   0.223278 0.230329 0.828915 -0.004366
C35   C     C_R   0.216449 0.584473 0.371447 -0.008968
C36   C     C_R   0.776780 0.739045 0.671563 -0.033083
C37   C     C_R   0.755233 0.944086 0.134856 0.250761
C38   C     C_R   0.245867 0.063397 0.858741 0.256660
C39   C     C_R   0.245561 0.427801 0.365404 0.268419
C40   C     C_R   0.753603 0.573706 0.642007 0.252941
C41   C     C_R   0.604007 0.996102 0.043747 -0.091287
C42   C     C_R   0.398458 0.022959 0.942467 -0.126846
C43   C     C_R   0.397468 0.467761 0.452352 -0.125293
C44   C     C_R   0.599749 0.545281 0.570776 -0.119994
C45   C     C_R   0.631554 0.853618 0.016940 -0.055311
C46   C     C_R   0.370334 0.152807 0.975904 -0.080626
C47   C     C_R   0.369279 0.339481 0.486076 -0.085997
C48   C     C_R   0.626232 0.685060 0.539767 -0.072942
C49   C     C_R   0.610280 0.746681 0.950749 0.400630
C50   C     C_R   0.392635 0.256499 0.042387 0.393741
C51   C     C_R   0.391402 0.234684 0.552814 0.413498
C52   C     C_R   0.600728 0.822838 0.489193 0.385396
C53   C     C_R   0.627481 0.126345 0.100080 -0.054345
C54   C     C_R   0.374857 0.897784 0.884366 -0.062872
C55   C     C_R   0.375812 0.569322 0.383937 -0.089808
C56   C     C_R   0.624812 0.413055 0.624652 -0.053163
C57   C     C_R   0.857156 0.915153 0.183701 -0.090883
C58   C     C_R   0.143345 0.086144 0.813848 -0.102807
C59   C     C_R   0.143291 0.410700 0.315942 -0.094214
C60   C     C_R   0.856450 0.589779 0.685955 -0.101425
H1    H     H_    0.858514 0.184847 0.127573 0.101861
H2    H     H_    0.156386 0.372960 0.784694 0.104384
H3    H     H_    0.144693 0.699914 0.352516 0.103669
H4    H     H_    0.844037 0.877285 0.715247 0.103286
H5    H     H_    0.770462 0.207016 0.084135 0.114346
H6    H     H_    0.244945 0.352041 0.823168 0.128823
H7    H     H_    0.232953 0.712642 0.396037 0.098384
H8    H     H_    0.755509 0.861946 0.678113 0.126311
C61   C     C_R   0.477966 0.883562 0.934494 0.049262
C62   C     C_R   0.525197 0.146332 0.044140 0.071833
C63   C     C_R   0.521430 0.395583 0.577088 0.059289
C64   C     C_R   0.475068 0.625910 0.453730 0.036781
C65   C     C_R   0.473231 0.141003 0.026664 -0.060083
C66   C     C_R   0.530065 0.884150 0.954930 -0.053787
C67   C     C_R   0.523807 0.664788 0.491152 -0.062187
C68   C     C_R   0.469483 0.389753 0.553931 -0.011617
C69   C     C_R   0.450053 0.017102 0.967473 0.061096
C70   C     C_R   0.552894 0.007533 0.014616 0.077881
C71   C     C_R   0.548276 0.535703 0.546641 0.056251
C72   C     C_R   0.447396 0.493887 0.486676 0.050968
C73   C     C_R   0.452456 0.741595 0.888054 -0.095099
C74   C     C_R   0.550679 0.293032 0.087065 -0.096700
C75   C     C_R   0.547713 0.255528 0.623985 -0.093069
C76   C     C_R   0.454802 0.704912 0.380373 -0.065341
C77   C     C_R   0.402288 0.749943 0.860483 -0.007461
C78   C     C_R   0.599983 0.279040 0.120190 0.006587
C79   C     C_R   0.598156 0.263566 0.649106 0.002311
C80   C     C_R   0.406025 0.681047 0.345496 -0.016292
O25   O     O_2   0.302424 0.824880 0.790707 -0.522813
O26   O     O_2   0.702371 0.230780 0.179823 -0.542168
O27   O     O_2   0.699082 0.335761 0.713560 -0.545503
O28   O     O_2   0.301786 0.670340 0.300234 -0.557337
C81   C     C_R   0.560768 0.771693 0.916266 -0.099484
C82   C     C_R   0.443336 0.246068 0.069513 -0.089653
C83   C     C_R   0.439082 0.276202 0.592032 -0.091766
C84   C     C_R   0.549378 0.825074 0.473264 -0.131014
H9    H     H_    0.145012 0.795770 0.849180 0.095930
H10   H     H_    0.841738 0.649311 0.232848 0.097336
H11   H     H_    0.854008 0.299817 0.650472 0.095008
H12   H     H_    0.156569 0.123986 0.286489 0.097891
H13   H     H_    0.233419 0.778282 0.888906 0.107880
H14   H     H_    0.753070 0.675984 0.190912 0.125604
H15   H     H_    0.765375 0.287713 0.611809 0.114808
H16   H     H_    0.245076 0.140365 0.328921 0.096564
H17   H     H_    0.470858 0.616415 0.875264 0.096334
H18   H     H_    0.532260 0.420726 0.096664 0.083285
H19   H     H_    0.529611 0.131076 0.638119 0.100425
H20   H     H_    0.477639 0.782424 0.347894 0.104880
O29   O     O_3   0.038452 0.201271 0.493157 -0.675413
C85   C     C_3   0.015853 0.376567 0.479011 0.275113
H21   H     H_    0.023385 0.463595 0.532898 0.100593
H22   H     H_    0.975993 0.367845 0.455556 0.014490
H23   H     H_    0.032563 0.447914 0.434028 0.102230
O30   O     O_3   0.968487 0.780856 0.510065 -0.661382
C86   C     C_3   0.918178 0.793824 0.479839 0.151322
H24   H     H_    0.909778 0.764001 0.415465 0.024299
H25   H     H_    0.903467 0.932535 0.492165 0.004391
H26   H     H_    0.899309 0.687923 0.509704 0.073602
O31   O     O_3   0.961540 0.702483 0.006689 -0.677975
C87   C     C_3   0.984215 0.876895 0.020889 0.270905
H27   H     H_    0.976759 0.964433 0.967003 0.100130
H28   H     H_    0.024065 0.866610 0.044398 0.016463
H29   H     H_    0.967514 0.948689 0.065847 0.100915
O32   O     O_3   0.031575 0.280064 0.990132 -0.661501
C88   C     C_3   0.081895 0.291906 0.020190 0.151617
H30   H     H_    0.090377 0.262275 0.084624 0.024729
H31   H     H_    0.096513 0.430158 0.007523 0.004163
H32   H     H_    0.100777 0.185326 0.990479 0.072625
O33   O     O_3   0.638042 0.618556 0.918357 -0.578957
C89   C     C_3   0.662719 0.709151 0.864841 0.309186
H33   H     H_    0.678109 0.846331 0.886505 0.015719
H34   H     H_    0.638408 0.726286 0.806662 0.044608
H35   H     H_    0.693500 0.619722 0.855666 0.097018
O34   O     O_3   0.364775 0.367582 0.082339 -0.580624
C90   C     C_3   0.347597 0.259706 0.139812 0.349964
H36   H     H_    0.375732 0.249869 0.194321 0.090046
H37   H     H_    0.335526 0.117952 0.118698 -0.016618
H38   H     H_    0.315650 0.331335 0.155617 0.105485
O35   O     O_3   0.365224 0.100160 0.583854 -0.573629
C91   C     C_3   0.373367 0.927929 0.549107 0.341919
H39   H     H_    0.352742 0.818700 0.573882 0.092885
H40   H     H_    0.412477 0.887525 0.562665 0.060199
H41   H     H_    0.360192 0.930580 0.484055 0.007281
O36   O     O_3   0.625809 0.965280 0.461015 -0.573595
C92   C     C_3   0.630914 0.920076 0.383342 0.340240
H42   H     H_    0.595013 0.907443 0.343030 0.042254
H43   H     H_    0.652142 0.789346 0.381997 0.005851
H44   H     H_    0.651113 0.033526 0.360423 0.120295
C93   C     C_2   0.380108 0.593056 0.811207 0.963163
O37   O     O_2   0.395034 0.552048 0.751345 -0.571800
O38   O     O_R   0.343079 0.489396 0.834197 -0.734928
H45   H     H_    0.331551 0.384210 0.796248 0.312934
C94   C     C_2   0.619609 0.423904 0.178333 0.948093
O39   O     O_2   0.617739 0.587421 0.158541 -0.636436
O40   O     O_R   0.637265 0.374291 0.256928 -0.720463
H46   H     H_    0.648649 0.485674 0.291380 0.306801
C95   C     C_2   0.621231 0.104718 0.696613 0.941545
O41   O     O_2   0.605660 0.054891 0.754788 -0.603986
O42   O     O_R   0.659487 0.008124 0.673359 -0.721488
H47   H     H_    0.671980 0.901840 0.710322 0.275954
C96   C     C_2   0.389845 0.769518 0.267164 0.968956
O43   O     O_2   0.402006 0.929092 0.256369 -0.632788
O44   O     O_R   0.363369 0.668096 0.204553 -0.687674
H48   H     H_    0.355560 0.743183 0.153937 0.329205
C97   C     C_2   0.545479 0.707687 0.833361 0.916060
O45   O     O_2   0.521798 0.811036 0.784149 -0.571788
O46   O     O_R   0.560076 0.533217 0.810689 -0.684130
H49   H     H_    0.553197 0.517457 0.751352 0.333178
C98   C     C_2   0.462344 0.320818 0.149636 0.871746
O47   O     O_2   0.452993 0.480554 0.166169 -0.577061
O48   O     O_R   0.490923 0.207399 0.206146 -0.727882
H50   H     H_    0.502127 0.274319 0.257994 0.322955
C99   C     C_2   0.452571 0.225556 0.677303 0.951289
O49   O     O_2   0.476387 0.333620 0.723608 -0.576002
O50   O     O_R   0.436671 0.059125 0.705575 -0.693914
H51   H     H_    0.446219 0.047425 0.765025 0.335661
C100  C     C_2   0.523244 0.004929 0.450413 0.882903
O51   O     O_2   0.483315 0.032144 0.467209 -0.654159
O52   O     O_R   0.544564 0.146137 0.412971 -0.717735
H52   H     H_    0.523455 0.261757 0.403262 0.302901

loop_
_geom_bond_atom_site_label_1
_geom_bond_atom_site_label_2
_geom_bond_distance
_ccdc_geom_bond_type
C52   C84   1.412715 A    
O35   C91   1.413194 S    
O1    C5    1.317300 A    
C88   H30   1.112464 S    
C23   C27   1.401251 A    
O19   V1    1.758430 S    
O13   V1    1.979457 S    
C98   O47   1.223268 D    
O3    C7    1.317230 A    
C86   H24   1.112463 S    
C48   C52   1.417820 A    
C21   C37   1.405872 A    
C42   C69   1.428524 A    
O33   C89   1.414552 S    
O4    V2    2.011703 S    
C41   C70   1.427011 A    
C90   H37   1.114883 S    
C99   O49   1.220945 D    
O7    C3    1.332007 A    
C66   C81   1.433010 A    
C43   C72   1.425129 A    
C68   C72   1.418860 A    
C25   C57   1.407156 A    
C65   C82   1.432255 A    
C32   C36   1.401136 A    
C63   C71   1.418617 A    
O32   C88   1.409866 S    
C86   H25   1.113913 S    
O10   V2    2.018845 S    
C67   C84   1.423780 A    
C14   O22   1.348966 S    
C50   O34   1.387094 S    
O4    C8    1.315685 A    
C20   O27   1.347817 S    
C77   C93   1.479570 S    
C94   O40   1.398274 S    
C97   O45   1.222691 D    
C26   H9    1.082962 S    
C61   C69   1.422175 A    
C23   H16   1.083032 S    
C31   H3    1.082910 S    
O1    V3    2.012367 S    
C61   C73   1.409045 A    
C28   H11   1.082931 S    
C62   C65   1.430538 A    
O2    V4    2.012367 S    
C97   O46   1.397316 S    
C46   C50   1.412901 A    
C50   C82   1.410564 A    
C100  O52   1.398522 S    
C64   C76   1.404069 A    
C1    O15   1.329639 A    
C11   C12   1.376161 D    
C2    O16   1.328675 A    
C96   O44   1.396949 S    
C51   O35   1.383750 S    
O2    C6    1.315672 A    
O31   C87   1.408727 S    
C16   C48   1.418437 A    
C63   C68   1.435207 A    
O14   V2    1.979457 S    
N1    C17   1.369182 A    
C44   C56   1.416726 A    
C16   O24   1.348527 S    
C89   H34   1.107650 S    
C91   H41   1.113515 S    
C35   H7    1.083073 S    
C49   C81   1.412664 A    
C28   C60   1.409033 A    
O11   C7    1.340527 A    
O15   V3    1.976011 S    
O46   H49   1.012142 S    
O12   C8    1.340056 A    
C19   O28   1.347447 S    
C98   O48   1.398069 S    
C85   H23   1.106616 S    
C31   C59   1.408904 A    
C95   O41   1.222348 D    
C18   O25   1.348196 S    
C11   O31   1.388521 S    
N4    C40   1.452588 S    
O16   V4    1.976011 S    
C1    C60   1.492173 S    
C78   C94   1.480460 S    
C29   C57   1.406908 A    
C100  O51   1.223090 D    
C90   H38   1.109373 S    
O5    V1    1.992338 S    
C99   O50   1.398095 S    
C82   C98   1.486321 S    
C31   C35   1.399346 A    
C27   H12   1.082880 S    
O7    V3    1.986141 S    
C30   C34   1.400754 A    
N1    C37   1.447124 S    
O50   H51   1.013437 S    
O8    V4    1.986138 S    
C17   C53   1.420318 A    
C4    C57   1.482988 S    
C20   C56   1.420555 A    
C86   H26   1.109588 S    
C32   H4    1.082883 S    
C93   O38   1.397016 S    
C19   C55   1.419083 A    
C90   H36   1.108783 S    
C64   C72   1.413595 A    
C21   C25   1.401680 A    
O18   V4    1.761449 S    
N3    C19   1.368896 A    
C14   C46   1.416971 A    
C7    C9    1.494193 S    
C93   O37   1.222067 D    
C22   H13   1.083102 S    
C13   C45   1.414196 A    
C8    C10   1.491275 S    
O42   H47   1.012856 S    
C36   C40   1.406085 A    
C15   C47   1.416914 A    
C63   C75   1.406484 A    
O38   H45   1.013938 S    
C36   H8    1.082094 S    
O5    C1    1.332044 A    
C62   C74   1.406465 A    
C29   C33   1.395865 A    
C84   C100  1.498873 S    
C89   H35   1.109252 S    
C25   H10   1.083006 S    
O52   H52   1.013669 S    
C22   C38   1.404061 A    
C87   H29   1.106682 S    
C45   C49   1.413741 A    
O8    C4    1.331356 A    
C92   H44   1.109274 S    
N3    C39   1.448642 S    
C22   C26   1.398777 A    
C9    C10   1.377072 D    
O9    C5    1.339448 A    
N2    C38   1.449354 S    
C27   C59   1.408974 A    
C42   C54   1.416986 A    
C56   C79   1.420167 A    
C26   C58   1.408671 A    
C41   C53   1.420910 A    
C74   C78   1.394446 A    
O30   C86   1.409873 S    
C73   C77   1.396914 A    
C43   C55   1.420830 A    
O36   C92   1.413178 S    
O6    V2    1.992338 S    
C75   H19   1.080680 S    
C2    C59   1.489638 S    
C92   H42   1.113256 S    
C88   H32   1.109583 S    
C75   C79   1.398966 A    
C30   H2    1.082901 S    
O34   C90   1.414385 S    
C85   H22   1.115429 S    
C62   C70   1.415523 A    
C44   C48   1.415342 A    
C32   C60   1.408780 A    
C13   N1    1.366514 A    
C24   H15   1.083071 S    
C91   H39   1.109340 S    
C12   O32   1.386986 S    
C15   N3    1.368096 A    
C89   H33   1.114336 S    
C66   C70   1.419050 A    
O9    V1    2.018845 S    
C61   C66   1.435314 A    
C16   N4    1.369266 A    
C65   C69   1.419073 A    
C3    O13   1.328385 A    
C24   C40   1.405649 A    
C67   C71   1.411732 A    
O17   V3    1.761448 S    
C21   H14   1.083011 S    
C79   C95   1.478635 S    
C87   H28   1.115433 S    
O6    C2    1.331793 A    
C15   O23   1.349062 S    
O11   V3    2.020369 S    
C5    C11   1.493308 S    
O12   V4    2.020370 S    
C6    C12   1.490409 S    
N2    C18   1.368466 A    
C80   C96   1.483787 S    
C73   H17   1.079394 S    
C9    O29   1.388452 S    
C34   H6    1.082306 S    
O20   V2    1.758431 S    
C83   C99   1.492791 S    
C33   H5    1.083053 S    
C55   C80   1.421353 A    
O29   C85   1.408609 S    
C47   C51   1.415121 A    
C10   O30   1.386998 S    
C3    C58   1.488874 S    
O10   C6    1.339066 A    
C94   O39   1.222329 D    
C34   C38   1.405651 A    
C44   C71   1.425212 A    
C33   C37   1.403180 A    
C17   O26   1.347329 S    
C30   C58   1.408349 A    
C91   H40   1.113654 S    
C92   H43   1.113177 S    
C54   C77   1.416365 A    
C35   C39   1.404000 A    
C74   H18   1.079915 S    
C68   C83   1.429067 A    
C13   O21   1.349176 S    
C53   C78   1.419801 A    
C51   C83   1.411501 A    
C14   N2    1.367416 A    
C18   C54   1.419741 A    
C81   C97   1.487675 S    
O44   H48   1.014043 S    
C76   C80   1.396200 A    
N4    C20   1.369524 A    
C24   C28   1.401390 A    
C87   H27   1.108627 S    
O40   H46   1.013823 S    
C88   H31   1.113909 S    
C96   O43   1.222458 D    
C42   C46   1.412217 A    
C4    O14   1.326153 A    
C41   C45   1.410816 A    
C85   H21   1.108608 S    
O3    V1    2.011703 S    
C49   O33   1.388353 S    
O48   H50   1.013102 S    
C95   O42   1.396816 S    
C52   O36   1.383574 S    
C29   H1    1.083142 S    
C43   C47   1.411771 A    
C64   C67   1.424342 A    
C23   C39   1.404769 A    
C76   H20   1.083060 S    
