data_mof_unit_16242.cif
_audit_creation_date              2012-12-11T17:23:15-0500
_audit_creation_method            fapswitch 2.2
_symmetry_space_group_name_H-M    P1
_symmetry_Int_Tables_number       1
_space_group_crystal_system       triclinic
_cell_length_a                    22.380278
_cell_length_b                    7.096483
_cell_length_c                    19.402713
_cell_angle_alpha                 89.998524
_cell_angle_beta                  99.626328
_cell_angle_gamma                 89.999181
_cell_volume                      3038.17280414

loop_
_atom_site_label
_atom_site_type_symbol
_atom_type_description
_atom_site_fract_x
_atom_site_fract_y
_atom_site_fract_z
_atom_type_partial_charge
O1    O     O_R   0.443980 0.494320 0.557430 -0.534001
O2    O     O_R   0.556020 0.994320 0.442570 -0.534001
O3    O     O_R   0.441210 0.822520 0.414610 -0.536729
O4    O     O_R   0.558790 0.322520 0.585390 -0.536725
C1    C     C_R   0.426702 0.655657 0.388678 0.692353
C2    C     C_R   0.573299 0.155650 0.611320 0.692353
O5    O     O_R   0.436920 0.823940 0.555180 -0.536042
O6    O     O_R   0.563080 0.323940 0.444820 -0.536042
O7    O     O_R   0.551700 0.995760 0.584140 -0.535276
O8    O     O_R   0.448300 0.495760 0.415860 -0.535281
C3    C     C_R   0.421569 0.655397 0.574830 0.719926
C4    C     C_R   0.578431 0.155398 0.425170 0.719911
O9    O     O_3   0.537660 0.661290 0.509340 -0.370315
O10   O     O_3   0.462340 0.161290 0.490660 -0.370319
V1    V     V_3+5 0.493010 0.935560 0.498270 1.423051
V2    V     V_3+5 0.506990 0.435560 0.501730 1.423050
H1    H     H_    0.707711 0.817576 0.293908 0.112505
H2    H     H_    0.292165 0.317578 0.705940 0.112509
C5    C     C_R   0.769137 0.931976 0.230269 -0.153301
C6    C     C_R   0.230794 0.431977 0.769646 -0.153294
H3    H     H_    0.783324 0.794084 0.215288 0.114167
H4    H     H_    0.216553 0.294086 0.784560 0.114180
C7    C     C_R   0.793646 0.095282 0.205035 0.133190
C8    C     C_R   0.206354 0.595282 0.794965 0.133192
C9    C     C_R   0.774431 0.272179 0.225432 -0.152164
C10   C     C_R   0.225638 0.772179 0.774652 -0.152169
H5    H     H_    0.792768 0.399987 0.206660 0.116417
H6    H     H_    0.207355 0.899986 0.793491 0.116400
C11   C     C_R   0.731345 0.285591 0.270307 -0.155687
C12   C     C_R   0.268724 0.785590 0.729777 -0.155683
H7    H     H_    0.717153 0.423482 0.285280 0.112026
H8    H     H_    0.282969 0.923481 0.714870 0.112019
C13   C     C_R   0.706819 0.122282 0.295523 0.136078
C14   C     C_R   0.293180 0.622283 0.704476 0.136079
C15   C     C_R   0.726052 0.945387 0.275143 -0.155405
C16   C     C_R   0.273879 0.445388 0.724771 -0.155408
C17   C     C_1   0.838534 0.081669 0.158731 -0.051841
C18   C     C_1   0.161466 0.581670 0.841269 -0.051838
C19   C     C_1   0.661859 0.135880 0.341741 -0.059039
C20   C     C_1   0.338140 0.635879 0.658258 -0.059035
C21   C     C_1   0.624066 0.145890 0.380009 -0.185843
C22   C     C_1   0.375933 0.645888 0.619991 -0.185839
C23   C     C_1   0.876254 0.071625 0.120378 -0.160433
C24   C     C_1   0.123746 0.571626 0.879622 -0.160431
C25   C     C_R   0.635484 0.216577 0.802334 -0.163259
C26   C     C_R   0.364486 0.717043 0.197693 -0.163276
H9    H     H_    0.547998 0.240395 0.738279 0.107520
H10   H     H_    0.451967 0.740934 0.261750 0.107536
H11   H     H_    0.718317 0.213482 0.916868 0.121481
H12   H     H_    0.281645 0.714118 0.083167 0.121479
H13   H     H_    0.617931 0.252670 0.849426 0.114435
H14   H     H_    0.382024 0.753378 0.150614 0.114438
C27   C     C_R   0.615869 0.151797 0.678272 -0.045503
C28   C     C_R   0.384132 0.651840 0.321725 -0.045543
C29   C     C_R   0.911595 0.040769 0.759929 0.314013
C30   C     C_R   0.088411 0.540517 0.240066 0.314019
C31   C     C_R   0.876372 0.069199 0.694028 -0.210352
C32   C     C_R   0.123638 0.568772 0.305974 -0.210321
C33   C     C_R   0.815254 0.121821 0.686460 0.138984
C34   C     C_R   0.184755 0.621409 0.313559 0.139001
C35   C     C_R   0.785489 0.122870 0.746221 0.061104
C36   C     C_R   0.214512 0.622725 0.253791 0.061086
C37   C     C_R   0.823055 0.112041 0.813825 -0.037916
C38   C     C_R   0.176940 0.612075 0.186185 -0.037914
C39   C     C_R   0.720801 0.140937 0.742540 0.095239
C40   C     C_R   0.279197 0.640912 0.257467 0.095238
C41   C     C_R   0.697564 0.181861 0.804736 0.136482
C42   C     C_R   0.302417 0.682142 0.195284 0.136488
C43   C     C_R   0.736058 0.184972 0.869238 -0.192847
C44   C     C_R   0.263916 0.685389 0.130788 -0.192851
C45   C     C_R   0.797253 0.144358 0.874034 -0.161961
C46   C     C_R   0.202729 0.644647 0.125985 -0.161987
C47   C     C_R   0.677764 0.111810 0.680534 -0.231061
C48   C     C_R   0.322250 0.611646 0.319451 -0.231049
C49   C     C_R   0.595391 0.207142 0.739298 -0.161296
C50   C     C_R   0.404586 0.707506 0.260720 -0.161279
C51   C     C_R   0.886051 0.071703 0.820116 -0.123047
C52   C     C_R   0.113948 0.571656 0.179886 -0.123064
H15   H     H_    0.690866 0.056142 0.633674 0.125250
H16   H     H_    0.309170 0.555739 0.366287 0.125269
H17   H     H_    0.897837 0.060731 0.647996 0.124656
H18   H     H_    0.102179 0.560113 0.352007 0.124637
H19   H     H_    0.824485 0.141387 0.925691 0.100036
H20   H     H_    0.175493 0.641802 0.074329 0.100077
O11   O     O_R   0.051730 0.724670 0.084120 -0.538583
O12   O     O_R   0.948270 0.224670 0.915880 -0.538570
O13   O     O_R   0.063080 0.393540 0.944820 -0.537718
O14   O     O_R   0.936920 0.893540 0.055180 -0.537727
C53   C     C_R   0.078192 0.562107 0.924876 0.715760
C54   C     C_R   0.921808 0.062106 0.075124 0.715769
O15   O     O_R   0.058800 0.395030 0.085390 -0.532696
O16   O     O_R   0.941200 0.895030 0.914610 -0.532718
O17   O     O_R   0.943980 0.223310 0.057440 -0.529158
O18   O     O_R   0.056020 0.723310 0.942560 -0.529174
C55   C     C_R   0.072985 0.563514 0.111325 0.761079
C56   C     C_R   0.927016 0.063521 0.888676 0.761093
O19   O     O_3   0.962360 0.556290 0.990650 -0.374517
O20   O     O_3   0.037640 0.056290 0.009350 -0.374520
V3    V     V_3+5 0.006980 0.281990 0.001730 1.476274
V4    V     V_3+5 0.993020 0.781990 0.998270 1.476228
C57   C     C_3   0.788555 0.205287 0.616398 -0.795226
H21   H     H_    0.771417 0.091751 0.578903 0.204896
H22   H     H_    0.752739 0.310285 0.621068 0.214176
H23   H     H_    0.823742 0.284483 0.594164 0.212874
C58   C     C_3   0.211465 0.704575 0.383667 -0.795212
H24   H     H_    0.228660 0.590889 0.421072 0.204876
H25   H     H_    0.247240 0.809747 0.379034 0.214176
H26   H     H_    0.176274 0.783483 0.405997 0.212855
O21   O     O_3   0.972291 0.993984 0.766916 -0.648123
H27   H     H_    0.983277 0.977221 0.719853 0.285401
O22   O     O_3   0.027719 0.493684 0.233069 -0.648118
H28   H     H_    0.016737 0.476791 0.280127 0.285397

loop_
_geom_bond_atom_site_label_1
_geom_bond_atom_site_label_2
_ccdc_geom_bond_type
C40   C42   A    
C17   C23   T    
C57   H21   S    
C26   H14   S    
H10   C50   S    
O22   H28   S    
O1    C3    A    
O2    C4    A    
C2    O7    A    
C26   C50   A    
C39   C47   A    
C19   C21   T    
O5    C3    A    
C58   H25   S    
C13   C19   S    
C14   C20   S    
C5    H3    S    
C8    C10   A    
C32   H18   S    
C29   C51   A    
C31   C33   A    
C25   H13   S    
C32   C34   A    
C40   C48   A    
C11   C13   A    
O16   C56   A    
C30   C52   A    
C3    C22   S    
C34   C36   A    
C53   O18   A    
C35   C37   A    
C36   C38   A    
C28   C48   A    
C6    C8    A    
C39   C41   A    
C25   C41   A    
C8    C18   S    
O17   V3    S    
C30   O22   S    
C45   H19   S    
C20   C22   T    
O6    V2    S    
C48   H16   S    
C29   O21   S    
C27   C49   A    
O19   V3    S    
C18   C24   T    
O13   V3    S    
C9    C11   A    
C58   H26   S    
C33   C35   A    
C23   C54   S    
C43   C45   A    
C12   C14   A    
C33   C57   S    
C1    C28   S    
O4    C2    A    
O8    V2    S    
C36   C40   A    
C7    C17   S    
C41   C43   A    
O4    V2    S    
C5    C7    A    
C26   C42   A    
C4    C21   S    
O12   V3    S    
O18   V4    S    
C52   C55   S    
O6    C4    A    
C47   H15   S    
O1    V2    S    
C46   H20   S    
O2    V1    S    
O14   V4    S    
O12   C56   A    
C28   C50   A    
C42   C44   A    
C6    H4    S    
C10   C12   A    
C57   H23   S    
O20   V4    S    
C29   C31   A    
C31   H17   S    
C2    C27   S    
O19   V4    S    
O3    V1    S    
O16   V4    S    
C54   O17   A    
C37   C51   A    
O14   C54   A    
C38   C52   A    
C27   C47   A    
C37   C45   A    
O3    C1    A    
C44   C46   A    
C9    H5    S    
C58   H24   S    
C51   C56   S    
C10   H6    S    
C25   C49   A    
O13   C53   A    
H12   C44   S    
H9    C49   S    
C1    O8    A    
C11   H7    S    
O11   V4    S    
C5    C15   A    
O21   H27   S    
C12   H8    S    
O11   C55   A    
O5    V1    S    
C13   C15   A    
C30   C32   A    
C14   C16   A    
C38   C46   A    
O7    V1    S    
C34   C58   S    
O15   C55   A    
C6    C16   A    
C35   C39   A    
C7    C9    A    
C57   H22   S    
O20   V3    S    
O9    V2    S    
O10   V1    S    
H11   C43   S    
H1    C15   S    
O15   V3    S    
H2    C16   S    
C24   C53   S    
