data_mof_unit_52789.cif
_audit_creation_date              2012-12-10T17:38:49-0500
_audit_creation_method            fapswitch 2.2
_symmetry_space_group_name_H-M    P1
_symmetry_Int_Tables_number       1
_space_group_crystal_system       triclinic
_cell_length_a                    12.314797
_cell_length_b                    13.10215
_cell_length_c                    23.544918
_cell_angle_alpha                 77.757259
_cell_angle_beta                  100.835947
_cell_angle_gamma                 116.361861
_cell_volume                      3307.34611255

loop_
_atom_site_label
_atom_site_type_symbol
_atom_type_description
_atom_site_fract_x
_atom_site_fract_y
_atom_site_fract_z
_atom_type_partial_charge
C1    C     C_R   0.855003 0.285813 0.508402 0.844034
C2    C     C_R   0.043774 0.595557 0.872215 0.569331
C3    C     C_R   0.085236 0.481537 0.772035 0.139227
C4    C     C_R   0.998736 0.499182 0.608867 0.808217
C5    C     C_R   0.087584 0.483236 0.712854 -0.180252
C6    C     C_R   0.995424 0.497109 0.671251 -0.108103
C7    C     C_R   0.899795 0.508457 0.689690 -0.292792
C8    C     C_R   0.896029 0.506009 0.748983 0.190137
C9    C     C_R   0.989026 0.492956 0.790230 0.327554
C10   C     C_R   0.891661 0.493216 0.230518 0.151915
C11   C     C_R   0.897494 0.494519 0.290011 -0.228321
C12   C     C_R   0.871677 0.285727 0.042774 0.111946
C13   C     C_R   0.002390 0.501015 0.328102 -0.163243
C14   C     C_R   0.104632 0.508271 0.304868 0.078599
C15   C     C_R   0.098215 0.506400 0.244847 0.188020
C16   C     C_R   0.145038 0.713838 0.489697 0.821951
C17   C     C_R   0.991998 0.498310 0.207927 0.280395
C18   C     C_R   0.283652 0.025663 0.419750 -0.248063
C19   C     C_R   0.228023 0.836305 0.477026 -0.105133
C20   C     C_R   0.802735 0.093153 0.569643 0.104225
C21   C     C_R   0.711533 0.994194 0.594423 -0.158085
C22   C     C_R   0.589821 0.962171 0.572148 0.105672
C23   C     C_R   0.870825 0.284992 0.982904 0.113584
C24   C     C_R   0.558749 0.019356 0.517168 0.030672
C25   C     C_R   0.652123 0.120066 0.490647 -0.049642
C26   C     C_R   0.437649 0.982881 0.488759 0.053560
C27   C     C_R   0.406788 0.056826 0.442087 0.007863
C28   C     C_R   0.001626 0.501150 0.390942 0.821822
C29   C     C_R   0.500345 0.154613 0.415399 0.196504
C30   C     C_R   0.622365 0.177862 0.435999 0.140680
C31   C     C_R   0.348549 0.870923 0.502302 -0.231297
C32   C     C_R   0.194262 0.915483 0.436177 0.254758
C33   C     C_R   0.772431 0.162255 0.520091 -0.127013
C34   C     C_R   0.930824 0.389001 0.945921 -0.021915
C35   C     C_R   0.347642 0.333477 0.597955 0.073560
C36   C     C_R   0.756445 0.641617 0.419436 0.081233
C37   C     C_R   0.658043 0.670311 0.401505 -0.260611
C38   C     C_R   0.555812 0.616216 0.432179 -0.167972
C39   C     C_R   0.550691 0.532153 0.481656 -0.000369
C40   C     C_R   0.041528 0.598947 0.111539 0.567487
C41   C     C_R   0.653900 0.505900 0.498155 0.245636
C42   C     C_R   0.447395 0.473244 0.514947 -0.125414
C43   C     C_R   0.449349 0.389786 0.564817 0.120086
C44   C     C_R   0.552977 0.366015 0.580224 0.185735
C45   C     C_R   0.992572 0.494054 0.969415 -0.115497
C46   C     C_R   0.650752 0.422337 0.546826 -0.283879
C47   C     C_R   0.341747 0.494863 0.500920 0.022291
C48   C     C_R   0.247520 0.359814 0.580959 -0.011265
C49   C     C_R   0.935317 0.394382 0.126090 0.573497
C50   C     C_R   0.932228 0.390519 0.066293 -0.023233
C51   C     C_R   0.992583 0.494982 0.029456 -0.106567
C52   C     C_R   0.052787 0.600370 0.052731 -0.084134
C53   C     C_3   0.064110 0.839513 0.351565 -0.673961
C54   C     C_3   0.460588 0.321500 0.374799 -0.674691
C55   C     C_3   0.536316 0.174374 0.617617 -0.604888
C56   C     C_R   0.053157 0.598396 0.932628 -0.095399
C57   C     C_3   0.309675 0.821153 0.912564 -0.572204
C58   C     C_3   0.314200 0.807281 0.073710 -0.610108
C59   C     C_R   0.121809 0.701792 0.957060 0.231360
C60   C     C_R   0.123120 0.702530 0.016837 0.187905
C61   C     C_R   0.931517 0.391570 0.885679 0.576785
Cu1   Cu    Cu3+1 0.098270 0.475410 0.513370 0.924092
Cu2   Cu    Cu3+1 0.901730 0.524590 0.486630 0.936760
H1    H     H_    0.818664 0.489947 0.306382 0.184987
H2    H     H_    0.722669 0.396058 0.560851 0.212088
H3    H     H_    0.162164 0.474364 0.699529 0.175755
H4    H     H_    0.827701 0.519085 0.658291 0.165322
H5    H     H_    0.846806 0.122298 0.079039 0.218741
H6    H     H_    0.716913 0.143868 0.063781 0.210574
H7    H     H_    0.247932 0.592394 0.361690 0.219601
H8    H     H_    0.202454 0.446165 0.370514 0.246441
H9    H     H_    0.220621 0.444173 0.241970 0.236062
H10   H     H_    0.274884 0.589664 0.228727 0.236147
H11   H     H_    0.042829 0.943512 0.399318 0.250264
H12   H     H_    0.256339 0.083041 0.386408 0.151050
H13   H     H_    0.128024 0.907610 0.321452 0.224767
H14   H     H_    0.970028 0.815595 0.329484 0.217039
H15   H     H_    0.083831 0.762349 0.360488 0.225578
H16   H     H_    0.410495 0.179416 0.332685 0.254650
H17   H     H_    0.447325 0.373731 0.332587 0.232762
H18   H     H_    0.543387 0.376884 0.400570 0.243762
H19   H     H_    0.380157 0.292122 0.399012 0.222886
H20   H     H_    0.948691 0.203505 0.615887 0.221660
H21   H     H_    0.983289 0.137529 0.570763 0.240149
H22   H     H_    0.514067 0.913863 0.648200 0.227595
H23   H     H_    0.374127 0.805633 0.528720 0.201271
H24   H     H_    0.511985 0.804836 0.619743 0.219107
H25   H     H_    0.716019 0.142254 0.966207 0.214577
H26   H     H_    0.846266 0.121290 0.981253 0.215611
H27   H     H_    0.697803 0.218316 0.360345 0.229466
H28   H     H_    0.711069 0.332892 0.387718 0.261012
H29   H     H_    0.642808 0.319194 0.657029 0.245229
H30   H     H_    0.533093 0.114677 0.659134 0.228472
H31   H     H_    0.609263 0.180762 0.593853 0.205477
H32   H     H_    0.446796 0.138765 0.590888 0.244547
H33   H     H_    0.268849 0.173035 0.642263 0.221332
H34   H     H_    0.734268 0.947287 0.635092 0.165964
H35   H     H_    0.332218 0.279445 0.684348 0.221284
H36   H     H_    0.190695 0.879628 0.931493 0.264415
H37   H     H_    0.345234 0.892798 0.876455 0.232382
H38   H     H_    0.305460 0.741817 0.900524 0.223823
H39   H     H_    0.373840 0.843020 0.952581 0.201259
H40   H     H_    0.161268 0.846572 0.055462 0.291893
H41   H     H_    0.378092 0.897089 0.079871 0.217651
H42   H     H_    0.358677 0.772757 0.050756 0.210779
H43   H     H_    0.296050 0.754491 0.117291 0.254965
H44   H     H_    0.143385 0.395343 0.843606 0.235578
H45   H     H_    0.170237 0.318223 0.606135 0.129142
H46   H     H_    0.223769 0.540161 0.835306 0.223988
H47   H     H_    0.716421 0.450869 0.753796 0.223471
H48   H     H_    0.796989 0.595326 0.746300 0.228038
H49   H     H_    0.747278 0.413530 0.173711 0.243021
H50   H     H_    0.807236 0.559157 0.160672 0.232148
H51   H     H_    0.333292 0.557234 0.464628 0.123766
H52   H     H_    0.834794 0.682985 0.395242 0.150995
H53   H     H_    0.482612 0.642066 0.415996 0.137728
H54   H     H_    0.660840 0.734445 0.363588 0.151293
N1    N     N_R   0.987727 0.497217 0.146710 -0.453978
N2    N     N_3   0.923117 0.126611 0.599816 -0.591128
N3    N     N_3   0.499511 0.880872 0.609339 -0.607787
N4    N     N_3   0.808087 0.178011 0.959671 -0.516115
N5    N     N_3   0.715766 0.253316 0.398877 -0.575052
N6    N     N_2   0.562184 0.286532 0.630400 -0.392849
N7    N     N_3   0.344442 0.250405 0.648972 -0.542192
N8    N     N_2   0.190107 0.806407 0.921540 -0.365405
N9    N     N_2   0.202555 0.806277 0.039932 -0.425491
N10   N     N_3   0.181632 0.468678 0.813135 -0.591118
N11   N     N_3   0.798147 0.517158 0.767605 -0.566161
N12   N     N_R   0.987264 0.493363 0.850919 -0.465903
N13   N     N_3   0.783280 0.487794 0.193503 -0.584942
N14   N     N_R   0.246280 0.438190 0.533650 -0.187361
N15   N     N_R   0.754320 0.561190 0.466710 -0.199912
N16   N     N_3   0.809233 0.179578 0.079558 -0.518782
N17   N     N_3   0.216931 0.520721 0.340254 -0.613103
N18   N     N_3   0.199861 0.512859 0.220527 -0.578121
N19   N     N_2   0.075308 0.881219 0.405602 -0.422781
N20   N     N_2   0.475030 0.223871 0.363909 -0.444264
O1    O     O_R   0.972510 0.318130 0.516820 -0.588150
O2    O     O_R   0.082990 0.479280 0.429170 -0.585106
O3    O     O_R   0.917010 0.520800 0.406580 -0.596413
O4    O     O_2   0.081729 0.697683 0.133841 -0.563013
O5    O     O_2   0.886750 0.296820 0.163827 -0.511466
O6    O     O_2   0.877080 0.293809 0.861418 -0.505216
O7    O     O_2   0.089581 0.693626 0.834453 -0.505267
O8    O     O_R   0.806530 0.359650 0.494230 -0.589518
O9    O     O_R   0.082990 0.479200 0.593420 -0.588877
O10   O     O_R   0.917010 0.520720 0.570830 -0.598515
O11   O     O_R   0.193470 0.640350 0.505770 -0.595682
O12   O     O_R   0.027490 0.681870 0.483180 -0.540941

loop_
_geom_bond_atom_site_label_1
_geom_bond_atom_site_label_2
_ccdc_geom_bond_type
C47   H51   S    
C40   N1    A    
C18   H12   S    
C27   C29   A    
C2    O7    S    
Cu2   O3    S    
C1    O8    A    
C28   O3    A    
C55   H30   S    
C19   C31   A    
H8    N17   S    
C1    C33   S    
C7    C8    A    
C39   C41   A    
C48   H45   S    
C22   N3    S    
C57   H39   S    
C53   N19   S    
C12   C23   A    
C26   C27   A    
C37   C38   A    
H5    N16   S    
C24   C26   A    
C36   N15   A    
C57   N8    S    
C5    C6    A    
C3    N10   S    
H36   N8    S    
C54   N20   S    
C15   N18   S    
C19   C32   A    
C10   C17   A    
C11   C13   A    
C2    N12   A    
C21   H34   S    
H20   N2    S    
H40   N9    S    
Cu2   O12   S    
C52   C60   A    
C8    N11   S    
C30   N5    S    
C45   C56   A    
C8    C9    A    
C23   N4    S    
H28   N5    S    
H11   N19   S    
C41   C46   A    
C48   N14   A    
C16   O12   A    
C13   C14   A    
Cu1   O2    S    
C29   C30   A    
C35   C43   A    
C35   N7    S    
C61   N12   A    
C59   C60   A    
C31   H23   S    
Cu1   O11   S    
C21   C22   A    
H27   N5    S    
C28   O2    A    
C55   H31   S    
C35   C48   A    
Cu2   O10   S    
C44   C46   A    
C39   C42   A    
C54   H17   S    
C55   N6    S    
H50   N13   S    
H33   N7    S    
C51   C52   A    
H10   N18   S    
C24   C25   A    
C46   H2    S    
C55   H32   S    
C11   H1    S    
H29   N6    S    
C32   N19   S    
H21   N2    S    
C5    H3    S    
H9    N18   S    
C14   N17   S    
C40   C52   A    
C57   H37   S    
C34   C61   A    
C47   N14   A    
C58   H43   S    
H22   N3    S    
H35   N7    S    
C43   C44   A    
C10   N13   S    
Cu1   Cu2   S    
C3    C9    A    
C38   H53   S    
C49   N1    A    
C23   C34   A    
C4    O9    A    
C49   O5    S    
C50   C51   A    
C37   H54   S    
C13   C28   S    
C34   C45   A    
Cu2   N15   S    
Cu1   O1    S    
C17   N1    S    
C20   C33   A    
C4    C6    S    
H16   N20   S    
C58   N9    S    
C12   N16   S    
C53   H14   S    
C22   C24   A    
C53   H13   S    
C58   H41   S    
C42   C43   A    
C54   H19   S    
C57   H38   S    
C25   C30   A    
C15   C17   A    
C36   C37   A    
H6    N16   S    
Cu1   N14   S    
C18   C27   A    
H25   N4    S    
C3    C5    A    
C41   N15   A    
C12   C50   A    
C6    C7    A    
C9    N12   S    
C59   N8    S    
C29   N20   S    
C44   N6    S    
C56   C59   A    
C16   O11   A    
C58   H42   S    
C61   O6    S    
C53   H15   S    
H44   N10   S    
H24   N3    S    
C2    C56   A    
C4    O10   A    
C38   C39   A    
H26   N4    S    
C16   C19   S    
C60   N9    S    
H46   N10   S    
C42   C47   A    
C20   N2    S    
C10   C11   A    
C7    H4    S    
C26   C31   A    
C18   C32   A    
C20   C21   A    
C49   C50   A    
Cu1   O9    S    
H47   N11   S    
H48   N11   S    
H7    N17   S    
C45   C51   A    
C14   C15   A    
H49   N13   S    
C40   O4    S    
C36   H52   S    
Cu2   O8    S    
C54   H18   S    
C1    O1    A    
C25   C33   A    
