data_mof_unit_55936.cif
_audit_creation_date              2012-12-10T17:49:30-0500
_audit_creation_method            fapswitch 2.2
_symmetry_space_group_name_H-M    P1
_symmetry_Int_Tables_number       1
_space_group_crystal_system       triclinic
_cell_length_a                    14.673349
_cell_length_b                    14.691517
_cell_length_c                    15.87423
_cell_angle_alpha                 76.921978
_cell_angle_beta                  102.884547
_cell_angle_gamma                 114.747735
_cell_volume                      2995.18728665

loop_
_atom_site_label
_atom_site_type_symbol
_atom_type_description
_atom_site_fract_x
_atom_site_fract_y
_atom_site_fract_z
_atom_type_partial_charge
C1    C     C_R   0.879949 0.312111 0.511308 0.815028
C2    C     C_3   0.068807 0.445793 0.075352 -0.501634
C3    C     C_3   0.001524 0.500730 0.083200 0.239807
C4    C     C_3   0.046911 0.611688 0.035450 0.136488
C5    C     C_3   0.042718 0.611015 0.936767 -0.417795
C6    C     C_1   0.001148 0.499769 0.175498 -0.056848
C7    C     C_1   0.999808 0.500186 0.824784 -0.059241
C8    C     C_1   0.999360 0.500085 0.749199 -0.182534
C9    C     C_R   0.811630 0.203981 0.515701 -0.157254
C10   C     C_R   0.187255 0.795069 0.489374 -0.092415
C11   C     C_R   0.787538 0.025144 0.552199 0.266702
C12   C     C_R   0.999703 0.499923 0.659709 0.828045
C13   C     C_R   0.851270 0.128761 0.547278 -0.279188
C14   C     C_R   0.706146 0.174857 0.488833 0.171824
C15   C     C_R   0.640833 0.073762 0.511745 0.010538
C16   C     C_R   0.681171 0.997649 0.534478 0.041248
C17   C     C_R   0.535662 0.046543 0.510535 0.101319
C18   C     C_R   0.468199 0.943990 0.509934 0.072178
C19   C     C_R   0.509494 0.869491 0.524338 -0.230763
C20   C     C_R   0.613883 0.895679 0.539933 -0.210002
C21   C     C_R   0.497867 0.117908 0.518276 -0.182222
C22   C     C_R   0.395323 0.091213 0.517740 -0.229541
C23   C     C_R   0.119632 0.687793 0.487955 0.818619
C24   C     C_R   0.326878 0.992806 0.508291 0.121824
C25   C     C_R   0.362196 0.918983 0.501318 0.088113
C26   C     C_R   0.223723 0.966558 0.509169 -0.264248
C27   C     C_R   0.153805 0.867581 0.501855 0.249367
C28   C     C_R   0.290304 0.822350 0.487050 -0.310023
C29   C     C_R   0.708447 0.659179 0.347484 0.180900
C30   C     C_R   0.795093 0.636830 0.377055 -0.016209
C31   C     C_R   0.714611 0.508853 0.487528 0.042016
C32   C     C_R   0.626371 0.531453 0.465429 -0.112989
C33   C     C_R   0.619229 0.598923 0.386907 0.027902
C34   C     C_R   0.000161 0.499804 0.340340 0.816661
C35   C     C_R   0.544111 0.486481 0.516142 -0.018770
C36   C     C_R   0.449167 0.495439 0.478408 -0.048951
C37   C     C_R   0.436507 0.538965 0.389095 0.156386
C38   C     C_R   0.522504 0.598275 0.346594 0.202164
C39   C     C_R   0.553702 0.435975 0.604052 0.245267
C40   C     C_R   0.468629 0.386509 0.647451 -0.247899
C41   C     C_R   0.377158 0.396504 0.611823 0.099361
C42   C     C_R   0.368708 0.457722 0.530487 -0.005854
C43   C     C_R   0.295889 0.351249 0.660111 -0.309922
C44   C     C_R   0.209008 0.371973 0.630081 0.075933
C45   C     C_3   0.060939 0.437232 0.977963 0.151946
C46   C     C_R   0.281879 0.483085 0.507598 0.057018
C47   C     C_3   0.890881 0.449361 0.939102 -0.477942
C48   C     C_3   0.891975 0.444382 0.038031 -0.401976
C49   C     C_1   0.000751 0.499588 0.250950 -0.178624
C50   C     C_3   0.001009 0.500443 0.917106 0.271810
Cu1   Cu    Cu3+1 0.081750 0.475690 0.522550 0.934833
Cu2   Cu    Cu3+1 0.918250 0.524310 0.477450 0.944960
H1    H     H_    0.148626 0.486817 0.103909 0.174700
H2    H     H_    0.641023 0.834860 0.556252 0.157747
H3    H     H_    0.313137 0.766706 0.473751 0.157324
H4    H     H_    0.369657 0.147800 0.525405 0.147979
H5    H     H_    0.012822 0.356343 0.971121 0.106697
H6    H     H_    0.463065 0.789433 0.530711 0.144603
H7    H     H_    0.547642 0.193603 0.530671 0.142448
H8    H     H_    0.197585 0.022165 0.518321 0.136583
H9    H     H_    0.862017 0.678722 0.345407 0.129706
H10   H     H_    0.844788 0.492630 0.900108 0.183062
H11   H     H_    0.853199 0.371402 0.921632 0.166859
H12   H     H_    0.862754 0.363610 0.069139 0.169996
H13   H     H_    0.128090 0.645631 0.064754 0.125392
N1    N     N_R   0.795410 0.560790 0.443550 -0.194623
N2    N     N_R   0.204590 0.439170 0.556520 -0.188577
O1    O     O_R   0.977910 0.338120 0.529720 -0.590355
O2    O     O_R   0.839850 0.379180 0.491640 -0.591528
O3    O     O_R   0.069060 0.479460 0.639610 -0.578060
O4    O     O_R   0.931000 0.520530 0.601530 -0.567107
O5    O     O_R   0.160150 0.620820 0.508360 -0.596347
O6    O     O_R   0.022090 0.661880 0.470280 -0.546540
O7    O     O_R   0.069000 0.479470 0.398470 -0.575818
O8    O     O_R   0.930940 0.520540 0.360390 -0.579488
H14   H     H_    0.043393 0.368400 0.114060 0.154327
N3    N     N_2   0.158443 0.455207 0.954180 -0.422249
H15   H     H_    0.186676 0.401209 0.987113 0.244387
C51   C     C_3   0.236361 0.556490 0.944343 -0.676809
H16   H     H_    0.310172 0.552069 0.944580 0.213925
H17   H     H_    0.245312 0.596890 0.998700 0.210020
H18   H     H_    0.218782 0.599333 0.880184 0.237373
N4    N     N_2   0.994431 0.672044 0.047367 -0.416470
H19   H     H_    0.920282 0.651357 0.017077 0.258548
C52   C     C_3   0.050929 0.780620 0.036741 -0.730907
H20   H     H_    0.006060 0.818029 0.052261 0.230341
H21   H     H_    0.066450 0.809936 0.968304 0.223338
H22   H     H_    0.123613 0.799833 0.082156 0.231992
N5    N     N_2   0.052176 0.839611 0.514517 -0.406852
H23   H     H_    0.047539 0.860139 0.570891 0.240601
C53   C     C_3   0.989733 0.871082 0.439694 -0.672521
H24   H     H_    0.015899 0.955049 0.427296 0.208734
H25   H     H_    0.910317 0.837979 0.453117 0.225102
H26   H     H_    0.992115 0.843801 0.380729 0.230518
N6    N     N_2   0.828083 0.948008 0.575613 -0.427199
H27   H     H_    0.806944 0.900444 0.529704 0.241574
C54   C     C_3   0.930613 0.970945 0.620775 -0.715884
H28   H     H_    0.941971 0.899129 0.646910 0.227211
H29   H     H_    0.943689 0.010635 0.676859 0.235141
H30   H     H_    0.986088 0.017866 0.574951 0.218717
H31   H     H_    0.932486 0.151579 0.564375 0.179122
N7    N     N_2   0.665647 0.240179 0.426318 -0.425008
H32   H     H_    0.667684 0.302638 0.446948 0.262506
C55   C     C_3   0.688094 0.257529 0.338476 -0.635726
H33   H     H_    0.770316 0.302125 0.336182 0.218949
H34   H     H_    0.644954 0.300501 0.293906 0.215363
H35   H     H_    0.665155 0.184043 0.315281 0.222929
N8    N     N_2   0.510649 0.650964 0.260225 -0.391741
H36   H     H_    0.464885 0.691046 0.249654 0.232283
C56   C     C_3   0.496236 0.595950 0.190163 -0.651276
H37   H     H_    0.504051 0.648762 0.127483 0.219913
H38   H     H_    0.419389 0.534851 0.184495 0.211564
H39   H     H_    0.554266 0.562746 0.201509 0.232332
H40   H     H_    0.276324 0.540791 0.453449 0.157969
H41   H     H_    0.146495 0.337622 0.667554 0.128678
H42   H     H_    0.476332 0.346888 0.713379 0.150195
N9    N     N_2   0.712186 0.741207 0.278314 -0.394478
H43   H     H_    0.766129 0.759228 0.238631 0.235766
C57   C     C_3   0.713305 0.830068 0.304311 -0.669106
H44   H     H_    0.702999 0.883891 0.245091 0.225282
H45   H     H_    0.786899 0.868494 0.343971 0.200660
H46   H     H_    0.651002 0.809717 0.342714 0.234569
H47   H     H_    0.718625 0.446146 0.536046 0.180436
N10   N     N_2   0.337211 0.514391 0.339604 -0.449499
H48   H     H_    0.327274 0.566006 0.286368 0.248425
C58   C     C_3   0.286221 0.410529 0.322838 -0.677251
H49   H     H_    0.209030 0.398507 0.286510 0.220890
H50   H     H_    0.278288 0.356796 0.384997 0.238271
H51   H     H_    0.329264 0.393835 0.283169 0.220173
N11   N     N_2   0.650479 0.448090 0.654210 -0.442048
H52   H     H_    0.674876 0.501215 0.695646 0.257040
C59   C     C_3   0.665638 0.355932 0.695808 -0.742966
H53   H     H_    0.747852 0.374497 0.718159 0.237177
H54   H     H_    0.638778 0.301085 0.648890 0.227539
H55   H     H_    0.625331 0.320732 0.753667 0.220895
H56   H     H_    0.300449 0.302069 0.721726 0.135613
H57   H     H_    0.839495 0.477227 0.046866 0.171330
H58   H     H_    0.118363 0.657629 0.916981 0.150604
H59   H     H_    0.992721 0.649209 0.896014 0.169603

loop_
_geom_bond_atom_site_label_1
_geom_bond_atom_site_label_2
_ccdc_geom_bond_type
C10   C27   A    
C31   N1    A    
C58   H49   S    
N6    H27   S    
C41   C42   A    
C36   C42   A    
C19   C20   A    
Cu1   O7    S    
C9    C14   A    
C3    C6    S    
C47   H10   S    
C55   H34   S    
C54   H28   S    
Cu2   N1    S    
C7    C8    T    
N3    H15   S    
C25   C28   A    
C45   H5    S    
C26   C27   A    
C37   C38   A    
C48   H57   S    
C36   C37   A    
C24   C26   A    
C21   H7    S    
N9    C57   S    
C47   H11   S    
C4    H13   S    
C14   N7    S    
C11   N6    S    
C15   C16   A    
C29   C33   A    
C3    C48   S    
C1    O1    A    
N8    H36   S    
C18   C19   A    
C42   C46   A    
C9    C13   A    
C56   H37   S    
Cu2   O2    S    
C31   C32   A    
C44   H41   S    
C59   H53   S    
C47   C48   S    
C27   N5    S    
Cu1   O3    S    
N5    C53   S    
C8    C12   S    
C34   O8    A    
Cu2   O8    S    
C52   H21   S    
C2    C45   S    
C21   C22   A    
C41   C43   A    
C43   H56   S    
C18   C25   A    
C23   O6    A    
C55   H33   S    
C54   H29   S    
C28   H3    S    
C5    H59   S    
C47   C50   S    
N3    C51   S    
C19   H6    S    
C46   H40   S    
Cu1   Cu2   S    
C32   C35   A    
C5    H58   S    
C1    C9    S    
C24   C25   A    
C20   H2    S    
Cu2   O6    S    
C53   H24   S    
C51   H17   S    
C22   H4    S    
C58   H51   S    
C52   H20   S    
C29   N9    S    
C1    O2    A    
C35   C36   A    
N11   C59   S    
C43   C44   A    
C29   C30   A    
C53   H25   S    
C37   N10   S    
C11   C16   A    
N4    H19   S    
C16   C20   A    
C17   C18   A    
Cu1   N2    S    
N7    C55   S    
C56   H39   S    
C30   N1    A    
C57   H45   S    
C34   O7    A    
C40   C41   A    
N4    C52   S    
C12   O4    A    
C22   C24   A    
C5    C50   S    
Cu1   O5    S    
C13   H31   S    
C3    C4    S    
C39   C40   A    
C54   H30   S    
C2    H14   S    
N10   C58   S    
C52   H22   S    
C10   C28   A    
C15   C17   A    
C12   O3    A    
C34   C49   S    
C58   H50   S    
C23   O5    A    
C7    C50   S    
C4    C5    S    
C2    H1    S    
C51   H18   S    
C57   H44   S    
N6    C54   S    
C39   N11   S    
C10   C23   S    
C33   C38   A    
C32   C33   A    
C2    C3    S    
C31   H47   S    
C46   N2    A    
Cu2   O4    S    
N9    H43   S    
C53   H26   S    
C11   C13   A    
C40   H42   S    
C4    N4    S    
C45   C50   S    
C59   H55   S    
C35   C39   A    
C57   H46   S    
N8    C56   S    
N11   H52   S    
Cu1   O1    S    
C6    C49   T    
C38   N8    S    
N7    H32   S    
C56   H38   S    
C48   H12   S    
C51   H16   S    
C59   H54   S    
C30   H9    S    
C14   C15   A    
C44   N2    A    
C45   N3    S    
N5    H23   S    
C26   H8    S    
C55   H35   S    
N10   H48   S    
C17   C21   A    
