data_mof_unit_55842.cif
_audit_creation_date              2013-03-05T15:48:17-0500
_audit_creation_method            fapswitch 2.2
_symmetry_space_group_name_H-M    P1
_symmetry_Int_Tables_number       1
_space_group_crystal_system       triclinic
_cell_length_a                    15.742495
_cell_length_b                    15.742491
_cell_length_c                    34.297286
_cell_angle_alpha                 90.001931
_cell_angle_beta                  90.002549
_cell_angle_gamma                 120.004546
_cell_volume                      7360.67270083

loop_
_atom_site_label
_atom_site_type_symbol
_atom_site_description
_atom_site_fract_x
_atom_site_fract_y
_atom_site_fract_z
_atom_type_partial_charge
O1    O     O_R   0.498680 0.159540 0.541860 -0.503616
O2    O     O_R   0.840460 0.339140 0.541860 -0.503540
O3    O     O_R   0.660860 0.501320 0.541860 -0.502694
O4    O     O_R   0.159540 0.498680 0.041860 -0.503610
O5    O     O_R   0.339140 0.840460 0.041860 -0.503559
O6    O     O_R   0.501320 0.660860 0.041860 -0.502685
O7    O     O_R   0.532760 0.358060 0.540030 -0.495192
O8    O     O_R   0.641940 0.174700 0.540030 -0.495216
O9    O     O_R   0.825300 0.467240 0.540030 -0.494687
O10   O     O_R   0.358060 0.532760 0.040030 -0.495214
O11   O     O_R   0.174700 0.641940 0.040030 -0.495185
O12   O     O_R   0.467240 0.825300 0.040030 -0.494707
C1    C     C_R   0.578315 0.441473 0.555001 0.570346
C2    C     C_R   0.558547 0.136885 0.555019 0.569856
C3    C     C_R   0.863123 0.421683 0.555016 0.569724
C4    C     C_R   0.441473 0.578314 0.055002 0.570349
C5    C     C_R   0.136887 0.558548 0.055020 0.569870
C6    C     C_R   0.421686 0.863126 0.055015 0.569691
O13   O     O_R   0.498590 0.161190 0.456930 -0.465618
O14   O     O_R   0.838810 0.337400 0.456930 -0.460311
O15   O     O_R   0.662600 0.501410 0.456930 -0.470763
O16   O     O_R   0.161190 0.498590 0.956930 -0.465747
O17   O     O_R   0.337400 0.838810 0.956930 -0.460136
O18   O     O_R   0.501410 0.662600 0.956930 -0.470757
O19   O     O_R   0.532680 0.359580 0.461300 -0.473641
O20   O     O_R   0.640420 0.173100 0.461300 -0.473611
O21   O     O_R   0.826900 0.467320 0.461300 -0.484891
O22   O     O_R   0.359580 0.532680 0.961300 -0.473703
O23   O     O_R   0.173100 0.640420 0.961300 -0.473233
O24   O     O_R   0.467320 0.826900 0.961300 -0.484930
C7    C     C_R   0.576433 0.443381 0.446087 0.594731
C8    C     C_R   0.556519 0.132972 0.446116 0.595749
C9    C     C_R   0.866868 0.423542 0.446001 0.586018
C10   C     C_R   0.443377 0.576435 0.946084 0.594716
C11   C     C_R   0.132964 0.556516 0.946120 0.595912
C12   C     C_R   0.423538 0.866864 0.945999 0.585989
Cr1   Cr    Cr6+3 0.522350 0.263930 0.500020 1.126934
Cr2   Cr    Cr6+3 0.736070 0.258420 0.500020 1.127141
Cr3   Cr    Cr6+3 0.741580 0.477650 0.500020 1.120573
Cr4   Cr    Cr6+3 0.263930 0.522350 0.000020 1.126870
Cr5   Cr    Cr6+3 0.258420 0.736070 0.000020 1.127418
Cr6   Cr    Cr6+3 0.477650 0.741580 0.000020 1.120533
O25   O     O_3   0.666667 0.333333 0.499990 -0.299831
O26   O     O_3   0.333333 0.666667 0.999990 -0.299867
N1    N     N_R   0.934242 0.449805 0.770744 -0.142157
N2    N     N_R   0.549351 0.486157 0.770391 -0.140332
N3    N     N_R   0.523170 0.066182 0.770669 -0.135853
N4    N     N_R   0.449839 0.934305 0.270729 -0.142176
N5    N     N_R   0.486054 0.549386 0.270415 -0.140306
N6    N     N_R   0.066248 0.523191 0.270681 -0.135805
N7    N     N_R   0.927324 0.446636 0.732090 -0.169466
N8    N     N_R   0.552587 0.482328 0.731743 -0.171791
N9    N     N_R   0.526448 0.073257 0.732017 -0.171136
N10   N     N_R   0.446670 0.927386 0.232075 -0.169454
N11   N     N_R   0.482229 0.552627 0.231768 -0.171658
N12   N     N_R   0.073320 0.526463 0.232029 -0.171092
C13   C     C_R   0.921124 0.458225 0.591063 -0.019803
C14   C     C_R   0.541624 0.463249 0.590927 -0.019711
C15   C     C_R   0.536891 0.078630 0.591004 -0.019305
C16   C     C_R   0.458243 0.921141 0.091056 -0.019800
C17   C     C_R   0.463234 0.541634 0.090933 -0.019703
C18   C     C_R   0.078648 0.536898 0.091009 -0.019301
C19   C     C_R   0.954390 0.401925 0.610244 -0.101018
C20   C     C_R   0.597530 0.553310 0.609835 -0.101009
C21   C     C_R   0.448219 0.047399 0.610637 -0.101176
C22   C     C_R   0.401961 0.954431 0.110235 -0.101038
C23   C     C_R   0.553253 0.597587 0.109865 -0.101022
C24   C     C_R   0.047419 0.448225 0.110642 -0.101163
C25   C     C_R   0.991510 0.425152 0.648228 0.182310
C26   C     C_R   0.574124 0.567836 0.647696 0.182690
C27   C     C_R   0.434502 0.009983 0.648562 0.181497
C28   C     C_R   0.425208 0.991569 0.148217 0.182316
C29   C     C_R   0.567737 0.574195 0.147735 0.182673
C30   C     C_R   0.010023 0.434514 0.148570 0.181494
C31   C     C_R   0.994154 0.506156 0.667403 0.033059
C32   C     C_R   0.493321 0.489637 0.667018 0.033642
C33   C     C_R   0.512023 0.004619 0.667164 0.032872
C34   C     C_R   0.506209 0.994202 0.167389 0.033056
C35   C     C_R   0.489536 0.493360 0.167043 0.033590
C36   C     C_R   0.004678 0.512041 0.167175 0.032860
C37   C     C_R   0.968456 0.568432 0.646903 -0.035988
C38   C     C_R   0.431394 0.401130 0.646764 -0.036082
C39   C     C_R   0.598740 0.028033 0.646179 -0.035941
C40   C     C_R   0.568469 0.968483 0.146890 -0.036009
C41   C     C_R   0.401075 0.431390 0.146767 -0.036108
C42   C     C_R   0.028095 0.598763 0.146192 -0.035943
C43   C     C_R   0.932963 0.543664 0.608766 -0.151771
C44   C     C_R   0.456366 0.389716 0.608753 -0.151979
C45   C     C_R   0.609512 0.064319 0.608171 -0.151182
C46   C     C_R   0.543684 0.932976 0.108756 -0.151765
C47   C     C_R   0.389711 0.456345 0.108746 -0.151993
C48   C     C_R   0.064359 0.609527 0.108181 -0.151189
N13   N     N_R   0.087043 0.580225 0.727438 -0.096759
N14   N     N_R   0.419864 0.509767 0.726974 -0.097355
N15   N     N_R   0.489072 0.909799 0.726993 -0.098096
N16   N     N_R   0.580306 0.087078 0.227424 -0.096755
N17   N     N_R   0.509587 0.419849 0.226999 -0.097428
N18   N     N_R   0.909863 0.489090 0.227005 -0.098153
N19   N     N_R   0.093874 0.583531 0.766148 -0.150222
N20   N     N_R   0.416507 0.513398 0.765681 -0.156012
N21   N     N_R   0.485920 0.902763 0.765699 -0.177030
N22   N     N_R   0.583614 0.093909 0.266134 -0.150238
N23   N     N_R   0.513213 0.416487 0.265705 -0.155975
N24   N     N_R   0.902829 0.485942 0.265711 -0.177089
C49   C     C_R   0.017555 0.518426 0.788381 0.347066
C50   C     C_R   0.481124 0.501533 0.787974 0.347932
C51   C     C_R   0.503276 0.980954 0.788088 0.348728
C52   C     C_R   0.518485 0.017604 0.288365 0.347029
C53   C     C_R   0.501387 0.481130 0.287998 0.347929
C54   C     C_R   0.981022 0.503300 0.288100 0.348730
C55   C     C_R   0.003356 0.511897 0.709885 0.411262
C56   C     C_R   0.487771 0.493675 0.709485 0.411472
C57   C     C_R   0.509790 0.995412 0.709629 0.415545
C58   C     C_R   0.511954 0.003404 0.209870 0.411264
C59   C     C_R   0.493539 0.487787 0.209509 0.411548
C60   C     C_R   0.995474 0.509804 0.209641 0.415565
C61   C     C_R   0.015494 0.437864 0.850967 0.192231
C62   C     C_R   0.561734 0.577625 0.850877 0.189784
C63   C     C_R   0.419589 0.977519 0.849724 0.196031
C64   C     C_R   0.437921 0.015605 0.350942 0.192190
C65   C     C_R   0.577570 0.561746 0.350888 0.189780
C66   C     C_R   0.977627 0.419652 0.349743 0.196030
C67   C     C_R   0.036986 0.444192 0.890985 0.177809
C68   C     C_R   0.555524 0.592016 0.890992 0.171354
C69   C     C_R   0.405364 0.959066 0.889950 0.182136
C70   C     C_R   0.444232 0.037073 0.390960 0.177898
C71   C     C_R   0.592006 0.555539 0.390999 0.171340
C72   C     C_R   0.959151 0.405418 0.389969 0.182082
C73   C     C_R   0.058855 0.609198 0.892745 -0.033628
C74   C     C_R   0.389068 0.451091 0.892155 -0.034541
C75   C     C_R   0.552394 0.943847 0.892990 -0.037207
C76   C     C_R   0.609237 0.058940 0.392730 -0.033697
C77   C     C_R   0.451010 0.389126 0.392187 -0.034489
C78   C     C_R   0.943867 0.552411 0.392998 -0.037214
C79   C     C_R   0.044541 0.605856 0.851898 -0.074135
C80   C     C_R   0.392390 0.441173 0.851256 -0.075501
C81   C     C_R   0.566973 0.962669 0.852411 -0.074062
C82   C     C_R   0.605889 0.044572 0.351887 -0.074010
C83   C     C_R   0.441044 0.392440 0.351290 -0.075512
C84   C     C_R   0.962702 0.566992 0.352419 -0.074068
C85   C     C_R   0.026266 0.520962 0.831051 -0.054087
C86   C     C_R   0.478110 0.507030 0.830667 -0.054207
C87   C     C_R   0.495675 0.971633 0.830646 -0.053056
C88   C     C_R   0.521010 0.026325 0.331034 -0.054140
C89   C     C_R   0.506916 0.478134 0.330690 -0.054214
C90   C     C_R   0.971704 0.495710 0.330659 -0.053057
C91   C     C_R   0.069998 0.534212 0.910807 -0.018574
C92   C     C_R   0.465073 0.535833 0.910608 -0.018260
C93   C     C_R   0.464233 0.929504 0.910505 -0.029296
C94   C     C_R   0.534235 0.070053 0.410791 -0.018651
C95   C     C_R   0.535810 0.465101 0.410623 -0.018264
C96   C     C_R   0.929535 0.464256 0.410514 -0.029264
H1    H     H_    0.947758 0.337246 0.596202 0.183814
H2    H     H_    0.662044 0.611295 0.595682 0.184298
H3    H     H_    0.390881 0.056010 0.597033 0.183563
H4    H     H_    0.337282 0.947803 0.096195 0.183805
H5    H     H_    0.611234 0.662127 0.095724 0.184264
H6    H     H_    0.056015 0.390881 0.097035 0.183566
H7    H     H_    0.908740 0.588283 0.593642 0.144414
H8    H     H_    0.412033 0.320491 0.593836 0.144048
H9    H     H_    0.677575 0.086861 0.592691 0.144625
H10   H     H_    0.588290 0.908737 0.093633 0.144412
H11   H     H_    0.320519 0.411979 0.093810 0.144036
H12   H     H_    0.086902 0.677592 0.092701 0.144624
N25   N     N_R   0.026526 0.359621 0.911330 0.123456
O27   O     O_R   0.063340 0.308449 0.897024 -0.226383
O28   O     O_R   0.978975 0.332953 0.944204 -0.252972
N26   N     N_R   0.640666 0.664253 0.911683 0.118637
O29   O     O_R   0.664849 0.641943 0.944822 -0.255480
O30   O     O_R   0.695351 0.751620 0.897285 -0.259517
N27   N     N_R   0.329634 0.967992 0.909683 0.122493
O31   O     O_R   0.349438 0.018096 0.941892 -0.257381
O32   O     O_R   0.241116 0.926810 0.895590 -0.233792
N28   N     N_R   0.359667 0.026657 0.411293 0.123541
O33   O     O_R   0.308670 0.063710 0.397016 -0.226482
O34   O     O_R   0.332872 0.978983 0.444139 -0.252885
N29   N     N_R   0.664299 0.640672 0.411679 0.118660
O35   O     O_R   0.642048 0.664900 0.444819 -0.255370
O36   O     O_R   0.751656 0.695312 0.397264 -0.259508
N30   N     N_R   0.968141 0.329736 0.409714 0.122346
O37   O     O_R   0.018146 0.349565 0.441950 -0.257423
O38   O     O_R   0.927207 0.241269 0.395588 -0.233877
N31   N     N_R   0.021645 0.363207 0.667598 0.100946
O39   O     O_R   0.092038 0.399521 0.693227 -0.227018
O40   O     O_R   0.985379 0.272141 0.657017 -0.282597
N32   N     N_R   0.635731 0.660393 0.666813 0.100403
O41   O     O_R   0.599163 0.694596 0.692272 -0.232612
O42   O     O_R   0.726702 0.715425 0.656157 -0.284462
N33   N     N_R   0.343665 0.982510 0.668475 0.100055
O43   O     O_R   0.308501 0.911977 0.694043 -0.223971
O44   O     O_R   0.290873 0.021469 0.658473 -0.285997
N34   N     N_R   0.363284 0.021732 0.167585 0.100933
O45   O     O_R   0.399617 0.092129 0.193213 -0.227091
O46   O     O_R   0.272220 0.985494 0.157003 -0.282612
N35   N     N_R   0.660251 0.635845 0.166873 0.100412
O47   O     O_R   0.694472 0.599304 0.192337 -0.232588
O48   O     O_R   0.715232 0.726840 0.156235 -0.284507
N36   N     N_R   0.982547 0.343675 0.168482 0.100069
O49   O     O_R   0.912018 0.308512 0.194051 -0.223983
O50   O     O_R   0.021494 0.290874 0.158475 -0.285925
C97   C     C_2   0.970293 0.655995 0.664350 0.299633
H13   H     H_    0.941561 0.694979 0.647845 0.149010
O51   O     O_2   0.004216 0.686807 0.696642 -0.409102
C98   C     C_2   0.343983 0.315617 0.664391 0.300851
H14   H     H_    0.305694 0.247245 0.648251 0.150345
O52   O     O_2   0.312461 0.319684 0.696409 -0.408608
C99   C     C_2   0.683063 0.022588 0.663039 0.302291
H15   H     H_    0.750769 0.051059 0.646547 0.149006
O53   O     O_2   0.678565 0.985616 0.694788 -0.409704
C100  C     C_2   0.656028 0.970306 0.164336 0.299663
H16   H     H_    0.694995 0.941555 0.147832 0.149045
O54   O     O_2   0.686856 0.004238 0.196625 -0.409050
C101  C     C_2   0.315552 0.343949 0.164376 0.300966
H17   H     H_    0.247274 0.305507 0.148175 0.150304
O55   O     O_2   0.319495 0.312588 0.196451 -0.408615
C102  C     C_2   0.022675 0.683096 0.163057 0.302239
H18   H     H_    0.051140 0.750800 0.146562 0.148991
O56   O     O_2   0.985734 0.678610 0.194812 -0.409763
N37   N     N_R   0.985805 0.347801 0.830381 0.131965
O57   O     O_R   0.908753 0.267100 0.841631 -0.187979
O58   O     O_R   0.037311 0.345569 0.801134 -0.193016
N38   N     N_R   0.652238 0.637121 0.830464 0.126435
O59   O     O_R   0.731565 0.637132 0.841126 -0.228346
O60   O     O_R   0.656274 0.693668 0.801995 -0.235241
N39   N     N_R   0.356138 0.001614 0.828198 0.132708
O61   O     O_R   0.347747 0.076736 0.838336 -0.221938
O62   O     O_R   0.306288 0.948402 0.798558 -0.197535
N40   N     N_R   0.347890 0.986015 0.330344 0.131922
O63   O     O_R   0.267101 0.909079 0.341614 -0.187818
O64   O     O_R   0.345758 0.037544 0.301085 -0.193108
N41   N     N_R   0.637083 0.652232 0.330467 0.126436
O65   O     O_R   0.637157 0.731589 0.341130 -0.228209
O66   O     O_R   0.693588 0.656222 0.301988 -0.235179
N42   N     N_R   0.001790 0.356245 0.328224 0.132723
O67   O     O_R   0.077003 0.347997 0.338345 -0.222044
O68   O     O_R   0.948570 0.306323 0.298597 -0.197544
C103  C     C_2   0.052042 0.684496 0.916811 0.329037
H19   H     H_    0.070785 0.755465 0.905068 0.207162
O69   O     O_2   0.019759 0.665598 0.950013 -0.445079
C104  C     C_2   0.312352 0.369183 0.915845 0.327422
H20   H     H_    0.240468 0.319682 0.904135 0.206826
O70   O     O_2   0.330868 0.353000 0.948675 -0.443292
C105  C     C_2   0.628218 0.937593 0.916589 0.359375
H21   H     H_    0.666283 0.901786 0.904985 0.188865
O71   O     O_2   0.650817 0.975331 0.948841 -0.426604
C106  C     C_2   0.684599 0.052280 0.416802 0.328952
H22   H     H_    0.755764 0.071619 0.405131 0.207319
O72   O     O_2   0.665575 0.019554 0.449931 -0.444946
C107  C     C_2   0.369093 0.312472 0.415894 0.327478
H23   H     H_    0.319459 0.240627 0.404180 0.206843
O73   O     O_2   0.353043 0.331006 0.448744 -0.443349
C108  C     C_2   0.937598 0.628229 0.416594 0.359368
H24   H     H_    0.901801 0.666299 0.404985 0.188913
O74   O     O_2   0.975316 0.650820 0.448850 -0.426605
C109  C     C_2   0.044747 0.688151 0.830475 0.298224
H25   H     H_    0.991937 0.672711 0.807328 0.173871
O75   O     O_2   0.107166 0.773181 0.836793 -0.398144
C110  C     C_2   0.309121 0.360836 0.829535 0.296750
H26   H     H_    0.323449 0.323194 0.806163 0.174332
O76   O     O_2   0.224615 0.340049 0.835898 -0.402613
C111  C     C_2   0.657176 0.976431 0.832299 0.295056
H27   H     H_    0.653867 0.953686 0.802239 0.176985
O77   O     O_2   0.737051 0.017405 0.848387 -0.385250
C112  C     C_2   0.688135 0.044645 0.330474 0.298557
H28   H     H_    0.672631 0.991805 0.307333 0.173864
O78   O     O_2   0.773198 0.106977 0.336794 -0.398317
C113  C     C_2   0.360650 0.309190 0.329583 0.296764
H29   H     H_    0.323009 0.323541 0.306217 0.174361
O79   O     O_2   0.339811 0.224669 0.335949 -0.402421
C114  C     C_2   0.976445 0.657184 0.332305 0.295040
H30   H     H_    0.953693 0.653864 0.302245 0.177009
O80   O     O_2   0.017411 0.737062 0.348389 -0.385270

loop_
_geom_bond_atom_site_label_1
_geom_bond_atom_site_label_2
_geom_bond_distance
_ccdc_geom_bond_type
N21   C51   1.357586 A    
O7    C1    1.249143 A    
N24   C54   1.357588 A    
N27   O31   1.301410 A    
C109  O75   1.220155 D    
O20   C8    1.257069 A    
N25   O27   1.300956 A    
C65   N41   1.436251 S    
N16   N22   1.330898 A    
C62   N38   1.436248 S    
C27   C33   1.416493 A    
C63   C87   1.407996 A    
C97   H13   1.085951 S    
C24   C30   1.399407 A    
C110  O76   1.220302 D    
C77   C95   1.419652 A    
C78   C108  1.485624 S    
N16   C58   1.355614 A    
N40   O64   1.301336 A    
C41   C47   1.398974 A    
N29   O35   1.301441 A    
C84   C114  1.493833 S    
C101  H17   1.086111 S    
O21   C9    1.256934 A    
N4    N10   1.329080 A    
O16   C11   1.253697 A    
C68   C92   1.415292 A    
C74   C104  1.491313 S    
C107  H23   1.080382 S    
N42   O68   1.301299 A    
C46   H10   1.084312 S    
N1    N7    1.329083 A    
N5    C53   1.354974 A    
C64   C88   1.408866 A    
C102  O56   1.219972 D    
C65   C71   1.405670 A    
C35   C59   1.462381 S    
O8    Cr2   1.965433 S    
C78   C84   1.417573 A    
C111  H27   1.084046 S    
C64   C70   1.405097 A    
C12   C93   1.494369 S    
N7    C55   1.355871 A    
C83   C89   1.412592 A    
N8    C56   1.355769 A    
C76   C82   1.415717 A    
C105  H21   1.083076 S    
C20   H2    1.083143 S    
C78   C96   1.422913 A    
O9    Cr3   1.965395 S    
C114  O80   1.220796 D    
C7    C95   1.491282 S    
O10   Cr4   1.965365 S    
C15   C45   1.400698 A    
C39   C99   1.489159 S    
N33   O44   1.301652 A    
O2    Cr2   2.070201 S    
N28   O33   1.301100 A    
C36   C42   1.419289 A    
O13   Cr1   2.081987 S    
C71   C95   1.415295 A    
N19   C49   1.357915 A    
C68   N26   1.438330 S    
C10   C92   1.491277 S    
C72   C96   1.415535 A    
C22   C28   1.399504 A    
C30   N36   1.442201 S    
O21   Cr3   1.952599 S    
C112  H28   1.085497 S    
C105  O71   1.221305 D    
C18   C48   1.400705 A    
N15   N21   1.330990 A    
C80   C86   1.412592 A    
O5    Cr5   2.070204 S    
N22   C52   1.357912 A    
N36   O49   1.301416 A    
C72   N30   1.437644 S    
C20   C26   1.399492 A    
N17   C59   1.355631 A    
O6    C4    1.247009 A    
N6    N12   1.329166 A    
N13   N19   1.330905 A    
O3    C1    1.247001 A    
C70   C94   1.415573 A    
O1    Cr1   2.070380 S    
N3    N9    1.329162 A    
O23   Cr5   1.952409 S    
O12   C6    1.249044 A    
C48   H12   1.084290 S    
N26   O30   1.300970 A    
C81   C87   1.412543 A    
C16   C22   1.398845 A    
N25   O28   1.301414 A    
C30   C36   1.416498 A    
C103  H19   1.080661 S    
C66   C72   1.404643 A    
C3    C13   1.472268 S    
C47   H11   1.084318 S    
C98   O52   1.219856 D    
C34   C58   1.462489 S    
C40   C46   1.398935 A    
C97   O51   1.219799 D    
N6    C54   1.354620 A    
C24   H6    1.083140 S    
O13   C8    1.253680 A    
N15   C57   1.355702 A    
N13   C55   1.355620 A    
C45   H9    1.084286 S    
N40   O63   1.301268 A    
N1    C49   1.354957 A    
N9    C57   1.355976 A    
C33   C57   1.462337 S    
C13   C19   1.398849 A    
C42   C102  1.489169 S    
C101  O55   1.220031 D    
C14   C20   1.398990 A    
C39   C45   1.399118 A    
C106  O72   1.221434 D    
C107  O73   1.221509 D    
C79   C85   1.412606 A    
O12   Cr6   1.965406 S    
C99   H15   1.085900 S    
C71   N29   1.438332 S    
C19   C25   1.399506 A    
C102  H18   1.085918 S    
C19   H1    1.083140 S    
C23   H5    1.083145 S    
C16   C46   1.400616 A    
C84   C90   1.412537 A    
N37   O57   1.301186 A    
C111  O77   1.220804 D    
O20   Cr2   1.952407 S    
C66   C90   1.407994 A    
Cr3   O25   1.967911 S    
O5    C6    1.247283 A    
N12   C60   1.355978 A    
N29   O36   1.300975 A    
N5    N11   1.329018 A    
C74   C92   1.419636 A    
O18   C10   1.254394 A    
C13   C43   1.400614 A    
C83   C113  1.488137 S    
N34   O46   1.301656 A    
Cr1   O25   1.967920 S    
C61   C85   1.408847 A    
N31   O39   1.301460 A    
O22   Cr4   1.952595 S    
O4    Cr4   2.070391 S    
C75   C81   1.417578 A    
C41   C101  1.489563 S    
C5    C18   1.472376 S    
N37   O58   1.301316 A    
O14   Cr2   2.082070 S    
C17   C23   1.398989 A    
N18   C60   1.355703 A    
O15   Cr3   2.082041 S    
N14   N20   1.330962 A    
C32   C56   1.462388 S    
N18   N24   1.330988 A    
O16   Cr4   2.081976 S    
C73   C79   1.415730 A    
O15   C7    1.254381 A    
C104  O70   1.221478 D    
N39   O61   1.301194 A    
O7    Cr1   1.965375 S    
C21   C27   1.399404 A    
C8    C94   1.491434 S    
N41   O66   1.301305 A    
N17   N23   1.330957 A    
C27   N33   1.442198 S    
N38   O60   1.301310 A    
O2    C3    1.247278 A    
C37   C43   1.398956 A    
C69   C93   1.415532 A    
C25   N31   1.442230 S    
C23   C29   1.399478 A    
O4    C5    1.247095 A    
C63   C69   1.404612 A    
C100  O54   1.219796 D    
C6    C16   1.472240 S    
N26   O29   1.301435 A    
C66   N42   1.437201 S    
C82   C112  1.488073 S    
O17   C12   1.255193 A    
N3    C51   1.354615 A    
C103  O69   1.221638 D    
C80   C110  1.488129 S    
C76   C94   1.419537 A    
Cr5   O26   1.968050 S    
C65   C89   1.408972 A    
C75   C93   1.422913 A    
N42   O67   1.301175 A    
O14   C9    1.255204 A    
C26   C32   1.416579 A    
C32   C38   1.419741 A    
C109  H25   1.085478 S    
C42   C48   1.399115 A    
C62   C68   1.405677 A    
C77   C107  1.491343 S    
C52   C88   1.468524 S    
N30   O37   1.301394 A    
C63   N39   1.437232 S    
C108  O74   1.221311 D    
C64   N40   1.436818 S    
C106  H22   1.080232 S    
O11   C5    1.249242 A    
C50   C86   1.468970 S    
O8    C2    1.249242 A    
N30   O38   1.300725 A    
C73   C103  1.491651 S    
C61   N37   1.436773 S    
N20   C50   1.358032 A    
O19   C7    1.256328 A    
C74   C80   1.415246 A    
C67   C91   1.415589 A    
C62   C86   1.408968 A    
C9    C96   1.494379 S    
C14   C44   1.400524 A    
N10   C58   1.355869 A    
C37   C97   1.489682 S    
C113  H29   1.085471 S    
C29   N35   1.442257 S    
C77   C83   1.415259 A    
C1    C14   1.472205 S    
C53   C89   1.468955 S    
C31   C37   1.419798 A    
N27   O32   1.300810 A    
C29   C35   1.416591 A    
O23   C11   1.257060 A    
C31   C55   1.462516 S    
O17   Cr5   2.082068 S    
O24   C12   1.256937 A    
N23   C53   1.358041 A    
C79   C109  1.488009 S    
N34   O45   1.301463 A    
C49   C85   1.468565 S    
N31   O40   1.301639 A    
C110  H26   1.085471 S    
O9    C3    1.249060 A    
Cr6   O26   1.967910 S    
Cr2   O25   1.968050 S    
C21   H3    1.083135 S    
O10   C4    1.249138 A    
C15   C21   1.399093 A    
N2    N8    1.329019 A    
C38   C98   1.489523 S    
C113  O79   1.220308 D    
C76   C106  1.491460 S    
N4    C52   1.354947 A    
C25   C31   1.416748 A    
N11   C59   1.355778 A    
C82   C88   1.412608 A    
C38   C44   1.398952 A    
N2    C50   1.354958 A    
N14   C56   1.355615 A    
C104  H20   1.080337 S    
N39   O62   1.301307 A    
C35   C41   1.419774 A    
C43   H7    1.084307 S    
C70   N28   1.437788 S    
O11   Cr5   1.965433 S    
C40   C100  1.489693 S    
C18   C24   1.399098 A    
C44   H8    1.084310 S    
C61   C67   1.405116 A    
N33   O43   1.301419 A    
C69   N27   1.437613 S    
C51   C87   1.465892 S    
N28   O34   1.301446 A    
C73   C91   1.419568 A    
O18   Cr6   2.082054 S    
C26   N32   1.442251 S    
O22   C10   1.256317 A    
N35   O47   1.301459 A    
C67   N25   1.437813 S    
C34   C40   1.419797 A    
Cr4   O26   1.967918 S    
C75   C105  1.485623 S    
C11   C91   1.491441 S    
C98   H14   1.085962 S    
C112  O78   1.220168 D    
C100  H16   1.085939 S    
C4    C17   1.472201 S    
C28   C34   1.416757 A    
N41   O65   1.301141 A    
C99   O53   1.219959 D    
C81   C111  1.493841 S    
C33   C39   1.419280 A    
C114  H30   1.084032 S    
O24   Cr6   1.952589 S    
N36   O50   1.301660 A    
O1    C2    1.247093 A    
C22   H4    1.083144 S    
C36   C60   1.462346 S    
C2    C15   1.472372 S    
N32   O41   1.301450 A    
C54   C90   1.465911 S    
N32   O42   1.301643 A    
N38   O59   1.301146 A    
C28   N34   1.442238 S    
O3    Cr3   2.070398 S    
C17   C47   1.400529 A    
O19   Cr1   1.952584 S    
C108  H24   1.083069 S    
N35   O48   1.301660 A    
O6    Cr6   2.070384 S    
