data_mof_unit_57673.cif
_audit_creation_date              2012-12-10T19:03:06-0500
_audit_creation_method            fapswitch 2.2
_symmetry_space_group_name_H-M    P1
_symmetry_Int_Tables_number       1
_space_group_crystal_system       triclinic
_cell_length_a                    10.779174
_cell_length_b                    10.817867
_cell_length_c                    9.543504
_cell_angle_alpha                 90.27936
_cell_angle_beta                  90.738852
_cell_angle_gamma                 90.867711
_cell_volume                      1112.61132895

loop_
_atom_site_label
_atom_site_type_symbol
_atom_type_description
_atom_site_fract_x
_atom_site_fract_y
_atom_site_fract_z
_atom_type_partial_charge
C1    C     C_R   0.496516 0.262297 0.499548 0.793547
C2    C     C_3   0.879431 0.495899 0.504030 0.145061
C3    C     C_3   0.935591 0.628022 0.539600 0.036361
C4    C     C_3   0.926697 0.465976 0.353256 -0.502822
C5    C     C_R   0.463148 0.063939 0.621565 0.024802
C6    C     C_R   0.481691 0.129149 0.497590 -0.073760
C7    C     C_R   0.481082 0.063549 0.370004 -0.221043
C8    C     C_R   0.481865 0.934737 0.370371 -0.201423
C9    C     C_R   0.482872 0.870571 0.498327 -0.130096
C10   C     C_R   0.462942 0.936509 0.621844 -0.012127
C11   C     C_3   0.530615 0.934214 0.761082 0.301997
C12   C     C_R   0.260341 0.496768 0.499050 0.769277
C13   C     C_3   0.528237 0.074723 0.760360 -0.485750
C14   C     C_R   0.548252 0.598286 0.075192 0.261195
C15   C     C_R   0.439965 0.409726 0.073038 -0.088949
C16   C     C_R   0.439803 0.409826 0.924117 -0.095830
C17   C     C_R   0.548525 0.598211 0.927730 0.325944
C18   C     C_3   0.679498 0.643414 0.926456 -0.511440
C19   C     C_3   0.678224 0.644975 0.084706 -0.505812
C20   C     C_R   0.497119 0.737707 0.500013 0.789350
C21   C     C_R   0.740526 0.497223 0.501082 0.772229
C22   C     C_3   0.076032 0.393449 0.598764 -0.375901
C23   C     C_3   0.932475 0.388877 0.599375 0.038869
C24   C     C_3   0.078395 0.621995 0.549932 -0.374376
C25   C     C_3   0.069287 0.467761 0.349760 -0.397408
C26   C     C_3   0.123398 0.494917 0.498284 0.095021
Cu1   Cu    Cu3+1 0.499990 0.499980 0.640670 0.926659
Cu2   Cu    Cu3+1 0.500010 0.500020 0.359330 0.926301
H1    H     H_    0.114035 0.411759 0.706133 0.186815
H2    H     H_    0.893565 0.535692 0.277390 0.178669
H3    H     H_    0.119963 0.697261 0.485639 0.130734
H4    H     H_    0.913209 0.688498 0.448655 0.143821
H5    H     H_    0.487497 0.111034 0.270634 0.162244
H6    H     H_    0.488810 0.886415 0.271147 0.171246
H7    H     H_    0.626238 0.898844 0.750898 0.092023
H8    H     H_    0.467947 0.115048 0.841823 0.195504
H9    H     H_    0.622002 0.118360 0.752861 0.165892
H10   H     H_    0.393275 0.335432 0.127659 0.135801
H11   H     H_    0.111622 0.301787 0.565841 0.127071
H12   H     H_    0.392617 0.335890 0.867308 0.138052
H13   H     H_    0.742136 0.572867 0.883938 0.215655
H14   H     H_    0.689659 0.737048 0.881647 0.211408
H15   H     H_    0.741501 0.576218 0.130529 0.208868
H16   H     H_    0.684914 0.739439 0.130831 0.201317
H17   H     H_    0.902988 0.299776 0.549036 0.133742
H18   H     H_    0.111429 0.637609 0.659713 0.176826
H19   H     H_    0.101312 0.539919 0.275018 0.187498
H20   H     H_    0.102360 0.376971 0.310934 0.172469
H21   H     H_    0.890488 0.374292 0.316562 0.178312
N1    N     N_R   0.500800 0.500930 0.147930 -0.189818
N2    N     N_R   0.500800 0.500890 0.852020 -0.196605
O1    O     O_R   0.500000 0.319640 0.618810 -0.583803
O2    O     O_R   0.500010 0.319680 0.381230 -0.590973
O3    O     O_R   0.317690 0.499960 0.618790 -0.594490
O4    O     O_R   0.317700 0.500000 0.381210 -0.586310
O5    O     O_R   0.499990 0.680320 0.618770 -0.581742
O6    O     O_R   0.500000 0.680360 0.381190 -0.580143
O7    O     O_R   0.682300 0.500000 0.618790 -0.571727
O8    O     O_R   0.682310 0.500040 0.381210 -0.591240
O9    O     O_3   0.469098 0.882902 0.879632 -0.607317
C27   C     C_3   0.340024 0.862427 0.859770 0.084435
H22   H     H_    0.323417 0.787819 0.780722 0.163180
H23   H     H_    0.293669 0.948665 0.825472 0.135370
C28   C     C_3   0.283424 0.821888 0.998568 -0.335446
H24   H     H_    0.331649 0.738806 0.038022 0.219689
H25   H     H_    0.296074 0.897228 0.077337 0.215825
C29   C     C_3   0.145335 0.791124 0.981801 -0.950136
H26   H     H_    0.094443 0.872645 0.942213 0.255271
H27   H     H_    0.106848 0.764379 0.084895 0.255494
H28   H     H_    0.131166 0.712542 0.907730 0.253658
C30   C     C_3   0.886846 0.377548 0.751276 -0.882320
H29   H     H_    0.910859 0.460363 0.814279 0.240772
H30   H     H_    0.786457 0.355356 0.756444 0.257223
H31   H     H_    0.933690 0.298489 0.802418 0.216274
C31   C     C_3   0.883218 0.698031 0.665410 -0.918870
H32   H     H_    0.781355 0.707528 0.655252 0.243754
H33   H     H_    0.909087 0.654741 0.765760 0.250301
H34   H     H_    0.923094 0.793364 0.668013 0.225850

loop_
_geom_bond_atom_site_label_1
_geom_bond_atom_site_label_2
_ccdc_geom_bond_type
C23   H17   S    
C22   H1    S    
C16   N2    A    
C20   O5    A    
C17   N2    A    
C4    C25   S    
Cu1   O3    S    
C7    C8    A    
Cu2   O6    S    
Cu1   O1    S    
C24   C26   S    
C21   O8    A    
C18   H14   S    
C5    C6    A    
C15   C16   A    
C18   C19   S    
C15   N1    A    
C27   H23   S    
C1    O2    A    
Cu2   N1    S    
C19   H15   S    
C8    C9    A    
C3    C31   S    
C9    C10   A    
C25   H19   S    
C13   H9    S    
C7    H5    S    
C14   C17   A    
C3    C24   S    
C3    H4    S    
C31   H34   S    
Cu2   O4    S    
Cu1   N2    S    
C1    C6    S    
C28   C29   S    
C23   C30   S    
C13   H8    S    
C18   H13   S    
C30   H30   S    
Cu1   O5    S    
C25   C26   S    
C29   H26   S    
C12   C26   S    
O9    C27   S    
C29   H27   S    
C28   H25   S    
C27   C28   S    
C2    C4    S    
C31   H32   S    
C15   H10   S    
C9    C20   S    
C2    C21   S    
C17   C18   S    
C8    H6    S    
C31   H33   S    
C25   H20   S    
C16   H12   S    
C11   O9    S    
C2    C23   S    
C19   H16   S    
Cu2   O8    S    
C5    C13   S    
C14   C19   S    
Cu1   O7    S    
C30   H31   S    
Cu2   O2    S    
C6    C7    A    
C4    H21   S    
C29   H28   S    
C24   H18   S    
C28   H24   S    
C11   H7    S    
C2    C3    S    
C24   H3    S    
C21   O7    A    
C11   C13   S    
C14   N1    A    
C22   H11   S    
C27   H22   S    
C1    O1    A    
C4    H2    S    
C12   O4    A    
C10   C11   S    
C5    C10   A    
C30   H29   S    
C22   C26   S    
Cu1   Cu2   S    
C22   C23   S    
C20   O6    A    
C12   O3    A    
