data_mof_unit_29359.cif
_audit_creation_date              2013-03-05T16:07:04-0500
_audit_creation_method            fapswitch 2.2
_symmetry_space_group_name_H-M    P1
_symmetry_Int_Tables_number       1
_space_group_crystal_system       triclinic
_cell_length_a                    10.938143
_cell_length_b                    9.61447
_cell_length_c                    9.062342
_cell_angle_alpha                 89.713673
_cell_angle_beta                  92.192163
_cell_angle_gamma                 89.156231
_cell_volume                      952.220707261

loop_
_atom_site_label
_atom_site_type_symbol
_atom_site_description
_atom_site_fract_x
_atom_site_fract_y
_atom_site_fract_z
_atom_type_partial_charge
O1    O     O_R   0.319640 0.618740 0.499990 -0.565783
O2    O     O_R   0.680360 0.381260 0.500010 -0.564894
O3    O     O_R   0.680360 0.618740 0.500010 -0.556628
O4    O     O_R   0.319640 0.381260 0.499990 -0.556341
C1    C     C_R   0.262761 0.501119 0.509070 0.790627
C2    C     C_R   0.737253 0.498877 0.491012 0.791022
O5    O     O_R   0.500000 0.618760 0.288390 -0.541432
O6    O     O_R   0.500000 0.381240 0.711610 -0.540995
O7    O     O_R   0.500000 0.618760 0.711610 -0.546462
O8    O     O_R   0.500000 0.381240 0.288390 -0.546520
C3    C     C_R   0.499698 0.500218 0.220902 0.841590
C4    C     C_R   0.500300 0.499781 0.779098 0.841959
Cu1   Cu    Cu3+1 0.500000 0.640660 0.500000 1.084655
Cu2   Cu    Cu3+1 0.500000 0.359340 0.500000 1.084967
C5    C     C_1   0.499896 0.500298 0.065621 -0.045936
C6    C     C_1   0.500101 0.499696 0.934379 -0.045926
C7    C     C_R   0.065911 0.376962 0.536113 -0.068049
C8    C     C_R   0.934138 0.623027 0.464202 -0.068145
C9    C     C_R   0.939923 0.371955 0.507194 -0.080821
C10   C     C_R   0.060109 0.628027 0.493220 -0.080958
C11   C     C_R   0.871762 0.496862 0.482820 -0.130663
C12   C     C_R   0.128270 0.503119 0.517435 -0.130609
C13   C     C_R   0.441253 0.075749 0.388578 0.303779
C14   C     C_R   0.558738 0.924233 0.611425 0.303628
C15   C     C_R   0.556675 0.072222 0.613101 0.297599
C16   C     C_R   0.443271 0.927758 0.386957 0.297806
N1    N     N_R   0.500000 0.852070 0.500000 -0.313239
N2    N     N_R   0.500000 0.147930 0.500000 -0.312955
C17   C     C_1   0.128049 0.254136 0.598347 0.361340
N3    N     N_1   0.177629 0.157103 0.649248 -0.195473
C18   C     C_1   0.872056 0.745891 0.401976 0.361777
N4    N     N_1   0.822527 0.842962 0.351083 -0.195454
C19   C     C_1   0.885365 0.236117 0.489532 0.392434
N5    N     N_1   0.843069 0.127367 0.473891 -0.199369
C20   C     C_1   0.114644 0.763827 0.511312 0.392335
N6    N     N_1   0.156934 0.872534 0.527336 -0.199235
N7    N     N_R   0.371446 0.148568 0.275340 0.173779
O9    O     O_R   0.256549 0.176477 0.294769 -0.333622
O10   O     O_R   0.412019 0.154078 0.142410 -0.258960
N8    N     N_R   0.628740 0.851395 0.724484 0.173551
O11   O     O_R   0.588060 0.845220 0.857334 -0.259115
O12   O     O_R   0.743855 0.824519 0.705192 -0.334083
N9    N     N_R   0.609108 0.140785 0.739543 0.176550
O13   O     O_R   0.718079 0.192203 0.736341 -0.333189
O14   O     O_R   0.555583 0.133227 0.865007 -0.253926
N10   N     N_R   0.390624 0.859117 0.260712 0.176448
O15   O     O_R   0.444644 0.865564 0.135493 -0.254292
O16   O     O_R   0.280364 0.810990 0.263152 -0.332771

loop_
_geom_bond_atom_site_label_1
_geom_bond_atom_site_label_2
_geom_bond_distance
_ccdc_geom_bond_type
N9    O13   1.298395 A    
N7    O9    1.299969 A    
C8    C11   1.412975 A    
C7    C17   1.454281 S    
C7    C12   1.412892 A    
O3    Cu1   1.980937 S    
C14   N1    1.372691 A    
O6    C4    1.296118 A    
O3    C2    1.306016 A    
Cu2   N2    2.032596 S    
C15   N9    1.429988 S    
N8    O12   1.300189 A    
C19   N5    1.156746 T    
N7    O10   1.300731 A    
C13   N7    1.429482 S    
C13   N2    1.372808 A    
C15   N2    1.376704 A    
O5    C3    1.296128 A    
N9    O14   1.300833 A    
C16   N1    1.376470 A    
O2    C2    1.302443 A    
O1    C1    1.302461 A    
N8    O11   1.300775 A    
C14   N8    1.429504 S    
C10   C12   1.415875 A    
C8    C10   1.394419 A    
O4    Cu2   1.980937 S    
O2    Cu2   1.987109 S    
O7    C4    1.294357 A    
N10   O16   1.299044 A    
O1    Cu1   1.987109 S    
O8    C3    1.294346 A    
C16   N10   1.429819 S    
C17   N3    1.157101 T    
C5    C6    1.189489 T    
C4    C6    1.407292 S    
O5    Cu1   1.930253 S    
C14   C15   1.422854 A    
O8    Cu2   1.928162 S    
C13   C16   1.422864 A    
O7    Cu1   1.928160 S    
N10   O15   1.300902 A    
Cu1   N1    2.032595 S    
O6    Cu2   1.930252 S    
C8    C18   1.454282 S    
C7    C9    1.394474 A    
Cu1   Cu2   2.704743 S    
C2    C11   1.475834 S    
C3    C5    1.407293 S    
C10   C20   1.450875 S    
C1    C12   1.475771 S    
C18   N4    1.157118 T    
C9    C19   1.450910 S    
O4    C1    1.305975 A    
C9    C11   1.416052 A    
C20   N6    1.156737 T    
