data_mof_unit_42322.cif
_audit_creation_date              2012-12-10T18:10:56-0500
_audit_creation_method            fapswitch 2.2
_symmetry_space_group_name_H-M    P1
_symmetry_Int_Tables_number       1
_space_group_crystal_system       triclinic
_cell_length_a                    12.656105
_cell_length_b                    13.129012
_cell_length_c                    15.722167
_cell_angle_alpha                 91.821962
_cell_angle_beta                  103.243112
_cell_angle_gamma                 82.059506
_cell_volume                      2518.57460453

loop_
_atom_site_label
_atom_site_type_symbol
_atom_type_description
_atom_site_fract_x
_atom_site_fract_y
_atom_site_fract_z
_atom_type_partial_charge
C1    C     C_R   0.438893 0.691279 0.483375 0.945195
C2    C     C_R   0.599757 0.198387 0.506200 -0.336485
C3    C     C_R   0.292130 0.845561 0.459031 0.224828
C4    C     C_R   0.501851 0.499567 0.661543 0.854650
C5    C     C_R   0.267577 0.951955 0.469387 0.402434
C6    C     C_R   0.351380 0.014176 0.483341 0.481259
C7    C     C_R   0.457424 0.972441 0.472089 -0.095879
C8    C     C_R   0.481075 0.866601 0.457702 -0.222385
C9    C     C_R   0.543727 0.031957 0.480431 -0.117506
C10   C     C_R   0.653324 0.985346 0.501040 -0.251899
C11   C     C_R   0.674655 0.883335 0.473439 0.355315
C12   C     C_3   0.384211 0.566469 0.025065 1.028636
C13   C     C_R   0.585646 0.830009 0.439503 0.532530
C14   C     C_R   0.524539 0.135554 0.462847 0.409570
C15   C     C_R   0.706933 0.153997 0.548006 0.363348
C16   C     C_R   0.561348 0.308435 0.508218 1.000207
C17   C     C_R   0.401943 0.801463 0.463181 -0.289765
C18   C     C_R   0.073648 0.425693 0.334072 0.348161
C19   C     C_R   0.801862 0.617361 0.613647 -0.016634
C20   C     C_R   0.904630 0.649048 0.638255 -0.314716
C21   C     C_R   0.986317 0.613991 0.592826 0.613580
C22   C     C_R   0.961362 0.546832 0.520322 -0.087126
C23   C     C_3   0.493215 0.505062 0.081241 -0.100455
C24   C     C_R   0.852976 0.519037 0.495592 0.091507
C25   C     C_R   0.039424 0.504690 0.470976 -0.025360
C26   C     C_R   0.001039 0.465174 0.386323 -0.068369
C27   C     C_R   0.892187 0.451045 0.359102 -0.222466
C28   C     C_R   0.498325 0.499745 0.338378 0.929693
C29   C     C_R   0.826583 0.459501 0.418198 0.387446
C30   C     C_R   0.153732 0.493012 0.503808 -0.079304
C31   C     C_R   0.186406 0.411424 0.372295 0.591226
C32   C     C_3   0.389364 0.550040 0.926874 -0.640680
C33   C     C_3   0.594683 0.561308 0.971654 0.660821
C34   C     C_3   0.507715 0.390564 0.049796 0.186261
C35   C     C_3   0.595921 0.553585 0.070847 0.181233
C36   C     C_1   0.494242 0.500923 0.248682 -0.207716
C37   C     C_3   0.504535 0.498526 0.917928 -0.098215
C38   C     C_3   0.330632 0.710778 0.111059 -0.178313
C39   C     C_3   0.190016 0.568197 0.988639 -0.336891
C40   C     C_3   0.879927 0.205559 0.574579 -0.091260
C41   C     C_3   0.840906 0.963508 0.663122 -0.267603
C42   C     C_3   0.366247 0.124995 0.598474 -0.317309
C43   C     C_3   0.131295 0.994098 0.543332 -0.137564
C44   C     C_3   0.536479 0.761427 0.303840 -0.270449
C45   C     C_3   0.518328 0.386464 0.953092 0.235952
C46   C     C_3   0.253027 0.382400 0.244800 -0.035380
C47   C     C_3   0.994178 0.471911 0.192354 -0.304418
C48   C     C_3   0.136294 0.651164 0.697804 -0.362956
C49   C     C_3   0.705848 0.667662 0.152285 -0.197982
C50   C     C_3   0.611522 0.250099 0.888536 -0.226978
C51   C     C_3   0.449649 0.241394 0.089451 -0.259012
C52   C     C_1   0.492353 0.503293 0.172978 0.069356
C53   C     C_1   0.506544 0.496916 0.826522 0.121804
C54   C     C_1   0.505823 0.497899 0.751068 -0.146261
C55   C     C_R   0.735357 0.045689 0.541994 0.478982
Cl1   Cl    Cl    0.806647 0.827604 0.463787 -0.498016
Cl2   Cl    Cl    0.426321 0.176850 0.366934 -0.512765
Cl3   Cl    Cl    0.182097 0.771715 0.441122 -0.498725
Cl4   Cl    Cl    0.751077 0.355920 0.402631 -0.635148
Cl5   Cl    Cl    0.728783 0.514257 0.954664 -0.587600
Cl6   Cl    Cl    0.568718 0.693138 0.934578 -0.532335
H1    H     H_    0.327827 0.500547 0.893244 0.175182
H2    H     H_    0.335336 0.652932 0.162016 0.148281
H3    H     H_    0.243557 0.741173 0.083938 0.158440
H4    H     H_    0.370998 0.776164 0.143040 0.178684
H5    H     H_    0.160289 0.509719 0.939742 0.190868
H6    H     H_    0.192805 0.639935 0.953811 0.165337
H7    H     H_    0.129161 0.585807 0.029638 0.188868
H8    H     H_    0.909267 0.281861 0.580362 0.163681
H9    H     H_    0.876503 0.178516 0.506164 0.191837
H10   H     H_    0.941211 0.153159 0.620925 0.157191
H11   H     H_    0.786762 0.902702 0.659080 0.165024
H12   H     H_    0.586140 0.351831 0.091506 0.141238
H13   H     H_    0.817027 0.027410 0.706125 0.159719
H14   H     H_    0.925484 0.928578 0.693793 0.189153
H15   H     H_    0.337608 0.067797 0.635719 0.124911
H16   H     H_    0.334582 0.202769 0.618821 0.196191
H17   H     H_    0.457086 0.117357 0.616799 0.144733
H18   H     H_    0.172153 0.925468 0.583955 0.148488
H19   H     H_    0.041736 0.992307 0.531194 0.240716
H20   H     H_    0.148738 0.065519 0.580303 0.130414
H21   H     H_    0.550938 0.833036 0.274707 0.178491
H22   H     H_    0.448334 0.763240 0.303264 0.136707
H23   H     H_    0.366202 0.624721 0.891340 0.235375
H24   H     H_    0.558225 0.696515 0.262085 0.227483
H25   H     H_    0.334150 0.361760 0.228783 0.197943
H26   H     H_    0.229725 0.466541 0.233458 0.106269
H27   H     H_    0.197358 0.336510 0.199397 0.200674
H28   H     H_    0.045448 0.535675 0.204662 0.142248
H29   H     H_    0.908690 0.502672 0.194197 0.172579
H30   H     H_    0.993433 0.443696 0.124990 0.221924
H31   H     H_    0.133864 0.575242 0.726598 0.134468
H32   H     H_    0.102043 0.714885 0.735862 0.176013
H33   H     H_    0.223800 0.659139 0.703541 0.207055
H34   H     H_    0.864922 0.410538 0.298569 0.226892
H35   H     H_    0.760423 0.656450 0.105542 0.197667
H36   H     H_    0.738820 0.616356 0.209903 0.146526
H37   H     H_    0.704687 0.748206 0.175959 0.205443
H38   H     H_    0.569141 0.277755 0.821680 0.140556
H39   H     H_    0.567428 0.191824 0.910281 0.138709
H40   H     H_    0.694519 0.212131 0.885594 0.206575
H41   H     H_    0.497897 0.241573 0.158139 0.192216
H42   H     H_    0.497558 0.194761 0.047333 0.163900
H43   H     H_    0.375659 0.204643 0.088844 0.202285
H44   H     H_    0.190524 0.518237 0.568121 0.205663
H45   H     H_    0.739757 0.645788 0.648887 0.163541
H46   H     H_    0.918772 0.704166 0.690856 0.153607
H47   H     H_    0.668852 0.498422 0.102794 0.095871
H48   H     H_    0.448833 0.348218 0.914100 0.131017
N1    N     N_R   0.222200 0.444690 0.455710 -0.172739
N2    N     N_R   0.776960 0.554780 0.543830 -0.099001
O1    O     O_R   0.366740 0.627160 0.478850 -0.567712
O2    O     O_3   0.291583 0.526580 0.042882 -0.603515
O3    O     O_3   0.777797 0.216184 0.598416 -0.597480
O4    O     O_3   0.840090 0.999908 0.579518 -0.581235
O5    O     O_3   0.327270 0.115647 0.507239 -0.522380
O6    O     O_3   0.160055 0.996466 0.461819 -0.528497
O7    O     O_3   0.602746 0.744018 0.388530 -0.563167
O8    O     O_3   0.262532 0.354148 0.332545 -0.532462
O9    O     O_3   0.034786 0.388346 0.250908 -0.600471
O10   O     O_3   0.082156 0.658792 0.608525 -0.559150
O11   O     O_3   0.597685 0.651544 0.112086 -0.544131
O12   O     O_R   0.544830 0.662520 0.507140 -0.589968
O13   O     O_3   0.622299 0.332499 0.948356 -0.565449
O14   O     O_3   0.416176 0.342753 0.057757 -0.578173
O15   O     O_R   0.410920 0.482310 0.608710 -0.641569
O16   O     O_R   0.589010 0.517670 0.637000 -0.607549
O17   O     O_R   0.455170 0.337480 0.492860 -0.548992
O18   O     O_R   0.633260 0.372840 0.521150 -0.526226
O19   O     O_R   0.410990 0.482330 0.363000 -0.606084
O20   O     O_R   0.589080 0.517690 0.391290 -0.544726
O21   O     O_3   0.381472 0.674485 0.042467 -0.580624
Zn1   Zn    Zn3+2 0.381090 0.476390 0.481110 1.030423
Zn2   Zn    Zn3+2 0.618910 0.523610 0.518890 1.042154

loop_
_geom_bond_atom_site_label_1
_geom_bond_atom_site_label_2
_ccdc_geom_bond_type
C8    C13   A    
C40   H10   S    
C27   C29   A    
C39   H7    S    
C27   H34   S    
C19   C20   A    
C18   C26   A    
O16   Zn2   S    
O1    Zn1   S    
C44   H22   S    
C13   O7    S    
C7    C8    A    
C53   C54   T    
C51   H41   S    
C12   C23   S    
C50   H38   S    
C40   H9    S    
C30   N1    A    
C46   H26   S    
C44   H21   S    
C1    O1    A    
C5    C6    A    
C45   H48   S    
C43   H18   S    
C24   C29   A    
C35   H47   S    
C33   C35   S    
C41   H13   S    
C38   H2    S    
C16   O18   A    
C29   Cl4   S    
O15   Zn1   S    
C39   O2    S    
C22   C25   A    
C2    C16   S    
C9    C10   A    
C46   H27   S    
C36   C52   T    
C20   H46   S    
C37   C53   S    
O20   Zn2   S    
C49   H37   S    
C21   C22   A    
C12   C32   S    
C47   H28   S    
C24   N2    A    
C39   H6    S    
C41   O4    S    
C25   C26   A    
C38   H3    S    
C45   O13   S    
C32   H23   S    
C40   O3    S    
C48   H32   S    
O12   Zn2   S    
C51   O14   S    
C50   O13   S    
C40   H8    S    
C48   O10   S    
C51   H43   S    
C33   C37   S    
C5    O6    S    
C15   C55   A    
C9    C14   A    
C1    O12   A    
C3    Cl3   S    
C10   C55   A    
C41   H14   S    
C38   H4    S    
C44   O7    S    
C23   C34   S    
C6    O5    S    
C26   C27   A    
C15   O3    S    
C34   C45   S    
C32   C37   S    
C20   C21   A    
C2    C15   A    
C16   O17   A    
C31   O8    S    
C48   H33   S    
C43   O6    S    
C41   H11   S    
C42   O5    S    
C47   O9    S    
C42   H17   S    
C33   Cl5   S    
C23   C35   S    
C30   H44   S    
C43   H20   S    
C47   H29   S    
C22   C24   A    
O19   Zn1   S    
C37   C45   S    
C44   H24   S    
C18   O9    S    
C12   O2    S    
C25   C30   A    
C7    C9    A    
C14   Cl2   S    
C12   O21   S    
C4    O16   A    
C4    C54   S    
C47   H30   S    
C35   O11   S    
C3    C5    A    
N2    Zn2   S    
C6    C7    A    
C19   N2    A    
C42   H15   S    
C8    C17   A    
C4    O15   A    
C28   O20   A    
C43   H19   S    
C32   H1    S    
O17   Zn1   S    
C11   C13   A    
C23   C52   S    
C55   O4    S    
C34   O14   S    
C49   O11   S    
C39   H5    S    
C31   N1    A    
C46   O8    S    
C3    C17   A    
C28   O19   A    
C49   H35   S    
C21   O10   S    
C2    C14   A    
C50   H39   S    
C10   C11   A    
C34   H12   S    
C49   H36   S    
O18   Zn2   S    
C19   H45   S    
C1    C17   S    
C28   C36   S    
C50   H40   S    
C33   Cl6   S    
C48   H31   S    
C42   H16   S    
N1    Zn1   S    
C18   C31   A    
C51   H42   S    
C11   Cl1   S    
C38   O21   S    
C46   H25   S    
