data_mof_unit_15841.cif
_audit_creation_date              2012-12-10T17:43:22-0500
_audit_creation_method            fapswitch 2.2
_symmetry_space_group_name_H-M    P1
_symmetry_Int_Tables_number       1
_space_group_crystal_system       triclinic
_cell_length_a                    15.074477
_cell_length_b                    13.948191
_cell_length_c                    10.834611
_cell_angle_alpha                 89.480359
_cell_angle_beta                  87.219405
_cell_angle_gamma                 90.366262
_cell_volume                      2275.27455576

loop_
_atom_site_label
_atom_site_type_symbol
_atom_type_description
_atom_site_fract_x
_atom_site_fract_y
_atom_site_fract_z
_atom_type_partial_charge
C1    C     C_R   0.329011 0.499673 0.500474 0.826637
C2    C     C_R   0.670862 0.500456 0.496513 0.813931
C3    C     C_R   0.953059 0.503613 0.493756 -0.053793
C4    C     C_R   0.046467 0.502037 0.495144 -0.054311
C5    C     C_R   0.910520 0.489914 0.382169 0.067125
C6    C     C_R   0.088121 0.499974 0.608789 0.063941
C7    C     C_R   0.945145 0.526281 0.715702 0.192468
C8    C     C_R   0.055304 0.495905 0.271175 0.191671
C9    C     C_R   0.035724 0.503231 0.719136 0.190494
C10   C     C_R   0.962259 0.481342 0.271273 0.187636
C11   C     C_R   0.439044 0.793086 0.574081 0.116302
C12   C     C_R   0.561797 0.207481 0.426719 0.123417
C13   C     C_R   0.558669 0.794762 0.422797 0.137815
C14   C     C_R   0.439919 0.205352 0.574597 0.114520
C15   C     C_R   0.559314 0.897949 0.418965 -0.096245
C16   C     C_R   0.435104 0.102661 0.570338 -0.087611
C17   C     C_R   0.438409 0.896311 0.577342 -0.091558
C18   C     C_R   0.564964 0.104368 0.427389 -0.088864
C19   C     C_R   0.499413 0.948641 0.498705 -0.016236
C20   C     C_R   0.499631 0.051894 0.498424 -0.013843
C21   C     C_R   0.619500 0.952360 0.339869 0.187725
C22   C     C_R   0.368891 0.049306 0.639252 0.202639
C23   C     C_R   0.376472 0.949123 0.653605 0.190497
C24   C     C_R   0.629606 0.051860 0.356087 0.205872
C25   C     C_R   0.497217 0.499800 0.259964 0.872807
C26   C     C_R   0.503374 0.499708 0.740092 0.884101
C27   C     C_3   0.446140 0.568350 0.040585 -0.075376
C28   C     C_3   0.555834 0.427168 0.959134 -0.060741
C29   C     C_3   0.532412 0.584215 0.959271 -0.063151
C30   C     C_3   0.469835 0.411564 0.041724 -0.065901
C31   C     C_3   0.421544 0.483134 0.959264 0.124172
C32   C     C_3   0.581117 0.512293 0.040985 0.146976
C33   C     C_3   0.506120 0.499120 0.877104 -0.188972
C34   C     C_3   0.495764 0.497745 0.123138 -0.190518
C35   C     C_R   0.817097 0.486786 0.384120 -0.188266
C36   C     C_R   0.181139 0.496040 0.609794 -0.183966
C37   C     C_R   0.767364 0.502133 0.494312 -0.036245
C38   C     C_R   0.232298 0.498851 0.498949 -0.044853
C39   C     C_R   0.809532 0.521149 0.602904 -0.149144
C40   C     C_R   0.191185 0.501096 0.386303 -0.165687
C41   C     C_R   0.902331 0.518770 0.604480 0.050057
C42   C     C_R   0.097946 0.500412 0.383361 0.058693
Cu1   Cu    Cu3+1 0.500000 0.597420 0.500000 1.022530
Cu2   Cu    Cu3+1 0.500000 0.402580 0.500000 1.018597
H1    H     H_    0.782431 0.474944 0.300256 0.181562
H2    H     H_    0.214197 0.494471 0.696292 0.171324
H3    H     H_    0.769299 0.533283 0.686898 0.206570
H4    H     H_    0.232479 0.501172 0.301642 0.184537
N1    N     N_R   0.500000 0.743810 0.500000 -0.284753
N2    N     N_R   0.500000 0.256190 0.500000 -0.290648
O1    O     O_R   0.370260 0.582280 0.500030 -0.573399
O2    O     O_R   0.629740 0.417720 0.499970 -0.561426
O3    O     O_R   0.629740 0.582280 0.499970 -0.575967
O4    O     O_R   0.370260 0.417720 0.500030 -0.551929
O5    O     O_R   0.499980 0.582260 0.316850 -0.543929
O6    O     O_R   0.500020 0.417740 0.683150 -0.576488
O7    O     O_R   0.500020 0.582260 0.683150 -0.557763
O8    O     O_R   0.499980 0.417740 0.316850 -0.574224
N3    N     N_2   0.337010 0.469994 0.904941 -0.435032
H5    H     H_    0.318932 0.528823 0.853898 0.282118
C43   C     C_3   0.267284 0.433392 0.987691 -0.652762
H6    H     H_    0.203608 0.451975 0.949986 0.252774
H7    H     H_    0.270810 0.465504 0.080692 0.262571
H8    H     H_    0.270713 0.354201 0.993874 0.239511
N4    N     N_2   0.665023 0.524965 0.097948 -0.456571
H9    H     H_    0.664882 0.576512 0.164816 0.281375
C44   C     C_3   0.743011 0.526359 0.016727 -0.642622
H10   H     H_    0.797833 0.561438 0.064100 0.224849
H11   H     H_    0.731417 0.566675 0.930678 0.288063
H12   H     H_    0.762593 0.451975 0.994384 0.252182
C45   C     C_2   0.379508 0.642619 0.081663 0.909082
O9    O     O_2   0.344250 0.691673 0.004369 -0.580488
O10   O     O_R   0.356042 0.653765 0.206921 -0.753997
H13   H     H_    0.310159 0.705674 0.222189 0.326750
C46   C     C_2   0.618874 0.354657 0.903029 0.905995
O11   O     O_2   0.615360 0.271009 0.937102 -0.529042
O12   O     O_R   0.680713 0.383539 0.809604 -0.798305
H14   H     H_    0.719293 0.328867 0.778075 0.329734
C47   C     C_2   0.568855 0.678917 0.912837 0.935596
O13   O     O_2   0.538062 0.753216 0.954685 -0.603699
O14   O     O_R   0.636976 0.681817 0.820734 -0.775405
H15   H     H_    0.655356 0.749720 0.796534 0.327612
C48   C     C_2   0.430801 0.319976 0.096494 0.926585
O15   O     O_2   0.458575 0.242282 0.061606 -0.518013
O16   O     O_R   0.363212 0.324421 0.189227 -0.783245
H16   H     H_    0.342957 0.258644 0.220079 0.326502
N5    N     N_2   0.896838 0.555827 0.823864 -0.448529
H17   H     H_    0.903175 0.510150 0.897442 0.254642
C49   C     C_3   0.910602 0.655866 0.852531 -0.709403
H18   H     H_    0.868328 0.676097 0.934569 0.230287
H19   H     H_    0.892212 0.701948 0.773669 0.255897
H20   H     H_    0.981139 0.669444 0.872703 0.218412
N6    N     N_2   0.106500 0.505743 0.158692 -0.461276
H21   H     H_    0.089434 0.457952 0.092453 0.258762
C50   C     C_3   0.116078 0.603945 0.115277 -0.720062
H22   H     H_    0.160393 0.607091 0.030555 0.253425
H23   H     H_    0.146114 0.648917 0.186578 0.254655
H24   H     H_    0.050402 0.633703 0.093428 0.218546
N7    N     N_2   0.070885 0.471009 0.830823 -0.459417
H25   H     H_    0.051526 0.511206 0.906186 0.254431
C51   C     C_3   0.057898 0.368758 0.850651 -0.714583
H26   H     H_    0.087117 0.345412 0.937720 0.217923
H27   H     H_    0.090912 0.328155 0.773682 0.263767
H28   H     H_    0.985897 0.350642 0.856948 0.224680
N8    N     N_2   0.920624 0.458936 0.160274 -0.457421
H29   H     H_    0.946668 0.495288 0.084062 0.249689
C52   C     C_3   0.910308 0.357157 0.140046 -0.704512
H30   H     H_    0.876421 0.345215 0.052823 0.223250
H31   H     H_    0.869350 0.323695 0.217066 0.268549
H32   H     H_    0.976266 0.321978 0.132780 0.221739
C53   C     C_2   0.366845 0.738904 0.640003 0.965681
O17   O     O_2   0.378343 0.702758 0.740914 -0.572537
O18   O     O_R   0.282514 0.737511 0.591559 -0.766756
H33   H     H_    0.237135 0.701806 0.647068 0.320194
C54   C     C_2   0.623996 0.262649 0.343384 0.954609
O19   O     O_2   0.697661 0.284033 0.377323 -0.606306
O20   O     O_R   0.603264 0.279253 0.221097 -0.728800
H34   H     H_    0.652386 0.315163 0.172627 0.334072
C55   C     C_2   0.621724 0.741590 0.342479 0.945176
O21   O     O_2   0.601085 0.720877 0.238461 -0.604565
O22   O     O_R   0.708548 0.727505 0.378435 -0.765178
H35   H     H_    0.746989 0.694275 0.312645 0.311036
C56   C     C_2   0.390992 0.256068 0.674938 0.959607
O23   O     O_2   0.318913 0.292235 0.658133 -0.588166
O24   O     O_R   0.423493 0.252860 0.793151 -0.729145
H36   H     H_    0.381041 0.283253 0.856120 0.337475
N9    N     N_2   0.668588 0.908686 0.239921 -0.443232
H37   H     H_    0.735998 0.921816 0.235611 0.256996
C57   C     C_3   0.628510 0.918375 0.121709 -0.557458
H38   H     H_    0.666510 0.875476 0.051659 0.241796
H39   H     H_    0.628874 0.994474 0.090732 0.216097
H40   H     H_    0.558826 0.891637 0.128445 0.275261
N10   N     N_2   0.291294 0.095530 0.689544 -0.431465
H41   H     H_    0.271160 0.076766 0.778725 0.259767
C58   C     C_3   0.219117 0.100246 0.606507 -0.643251
H42   H     H_    0.164098 0.143038 0.649300 0.233879
H43   H     H_    0.193949 0.027061 0.587567 0.213280
H44   H     H_    0.241700 0.135655 0.518074 0.245233
N11   N     N_2   0.322498 0.902844 0.748209 -0.442791
H45   H     H_    0.255578 0.917331 0.747158 0.259460
C59   C     C_3   0.357635 0.908047 0.869914 -0.561076
H46   H     H_    0.312719 0.868914 0.937344 0.257898
H47   H     H_    0.363054 0.983667 0.900016 0.205271
H48   H     H_    0.424304 0.874802 0.869323 0.284571
N12   N     N_2   0.707709 0.097464 0.303681 -0.423142
H49   H     H_    0.722160 0.084678 0.211446 0.265693
C60   C     C_3   0.784229 0.090408 0.378945 -0.636807
H50   H     H_    0.839708 0.133953 0.336264 0.232790
H51   H     H_    0.806062 0.014776 0.386413 0.208009
H52   H     H_    0.768084 0.118342 0.473069 0.252436

loop_
_geom_bond_atom_site_label_1
_geom_bond_atom_site_label_2
_ccdc_geom_bond_type
C58   H44   S    
N5    H17   S    
N6    H21   S    
C27   C29   S    
O10   H13   S    
C50   H22   S    
C1    O4    A    
C6    C9    A    
N12   H49   S    
C50   H24   S    
C56   O23   D    
C39   C41   A    
O12   H14   S    
C15   C19   A    
N8    C52   S    
C17   C23   A    
C18   C24   A    
C23   N11   S    
C60   H51   S    
C8    C42   A    
O18   H33   S    
C29   C32   S    
C24   N12   S    
C59   H47   S    
C30   C31   S    
C56   O24   S    
C54   O19   D    
C29   C33   S    
C40   H4    S    
C31   N3    S    
C30   C48   S    
C43   H7    S    
N6    C50   S    
C60   H50   S    
C13   C55   S    
Cu1   O3    S    
C7    N5    S    
C19   C20   A    
Cu2   O8    S    
N4    C44   S    
C52   H30   S    
C31   C33   S    
C36   H2    S    
C21   N9    S    
C58   H42   S    
C25   C34   S    
C12   C54   S    
Cu2   O2    S    
C40   C42   A    
O24   H36   S    
N3    H5    S    
C9    N7    S    
C58   H43   S    
C52   H31   S    
N12   C60   S    
O14   H15   S    
C55   O22   S    
C27   C34   S    
N11   H45   S    
N3    C43   S    
C30   C34   S    
C22   N10   S    
C27   C31   S    
C44   H10   S    
C51   H26   S    
C28   C32   S    
C60   H52   S    
C4    C6    A    
C59   H48   S    
C45   O10   S    
Cu1   N1    S    
C54   O20   S    
O16   H16   S    
C11   C53   S    
C44   H11   S    
C32   C34   S    
C43   H8    S    
C46   O11   D    
N9    C57   S    
C11   N1    A    
C46   O12   S    
Cu2   O6    S    
C26   C33   S    
C48   O15   D    
C29   C47   S    
C16   C20   A    
C53   O18   S    
C49   H20   S    
C1    O1    A    
O22   H35   S    
C2    O2    A    
C1    C38   S    
C13   N1    A    
Cu1   O5    S    
C48   O16   S    
C28   C33   S    
C51   H28   S    
C13   C15   A    
Cu1   Cu2   S    
N10   H41   S    
C52   H32   S    
C14   C16   A    
C49   H19   S    
C25   O8    A    
N9    H37   S    
C35   H1    S    
C27   C45   S    
C35   C37   A    
C39   H3    S    
C57   H38   S    
C51   H27   S    
Cu2   N2    S    
C7    C9    A    
C11   C17   A    
C16   C22   A    
C14   C56   S    
C53   O17   D    
N7    C51   S    
C8    N6    S    
C25   O5    A    
C3    C5    A    
C2    O3    A    
C26   O6    A    
C12   N2    A    
C55   O21   D    
C50   H23   S    
N8    H29   S    
C47   O14   S    
N7    H25   S    
C44   H12   S    
C57   H40   S    
C28   C30   S    
C5    C10   A    
C37   C39   A    
C59   H46   S    
C38   C40   A    
N11   C59   S    
C2    C37   S    
Cu1   O1    S    
C14   N2    A    
C4    C42   A    
C5    C35   A    
C36   C38   A    
C17   C19   A    
C6    C36   A    
C18   C20   A    
C7    C41   A    
C43   H6    S    
C26   O7    A    
C3    C41   A    
Cu1   O7    S    
C47   O13   D    
Cu2   O4    S    
C15   C21   A    
C45   O9    D    
C8    C10   A    
N4    H9    S    
C21   C24   A    
C12   C18   A    
N10   C58   S    
N5    C49   S    
C22   C23   A    
C10   N8    S    
C49   H18   S    
O20   H34   S    
C28   C46   S    
C3    C4    A    
C32   N4    S    
C57   H39   S    
