data_mof_unit_64322.cif
_audit_creation_date              2012-12-11T15:47:32-0500
_audit_creation_method            fapswitch 2.2
_symmetry_space_group_name_H-M    P1
_symmetry_Int_Tables_number       1
_space_group_crystal_system       triclinic
_cell_length_a                    19.12442
_cell_length_b                    19.054973
_cell_length_c                    19.055703
_cell_angle_alpha                 108.817758
_cell_angle_beta                  107.062863
_cell_angle_gamma                 109.231352
_cell_volume                      5551.08469837

loop_
_atom_site_label
_atom_site_type_symbol
_atom_type_description
_atom_site_fract_x
_atom_site_fract_y
_atom_site_fract_z
_atom_type_partial_charge
C1    C     C_R   0.021931 0.062051 0.738898 0.502894
C2    C     C_3   0.436833 0.563121 0.989793 -0.289026
C3    C     C_3   0.448305 0.451581 0.986313 -0.314595
C4    C     C_3   0.524830 0.602468 0.996405 -0.299217
C5    C     C_1   0.286221 0.361014 0.784734 0.222403
C6    C     C_1   0.694000 0.666955 0.198857 0.135214
C7    C     C_3   0.504524 0.518312 0.927102 0.482856
C8    C     C_3   0.468390 0.535500 0.055350 0.490908
C9    C     C_3   0.417181 0.479599 0.920997 -0.111254
C10   C     C_3   0.555590 0.574038 0.061229 -0.104874
C11   C     C_1   0.344141 0.420429 0.844403 0.248253
C12   C     C_R   0.004035 0.934091 0.268820 0.420228
C13   C     C_1   0.630649 0.623477 0.137367 0.239107
C14   C     C_1   0.327767 0.994915 0.496949 0.126779
C15   C     C_1   0.673615 0.002454 0.512283 0.133401
C16   C     C_R   0.172728 0.929176 0.450138 0.507733
C17   C     C_R   0.828633 0.069103 0.558784 0.566524
C18   C     C_1   0.392267 0.995397 0.500346 0.075045
C19   C     C_1   0.609452 0.001184 0.511135 0.076198
C20   C     C_1   0.468464 0.997130 0.504663 0.059400
C21   C     C_1   0.533435 0.999013 0.508063 0.059334
C22   C     C_1   0.994356 0.326308 0.493954 0.211668
C23   C     C_R   0.251326 0.996334 0.493837 -0.154612
C24   C     C_1   0.977928 0.652961 0.475208 0.215064
C25   C     C_1   0.989311 0.386018 0.488403 0.070916
C26   C     C_1   0.977753 0.589486 0.475105 0.071096
C27   C     C_1   0.983860 0.456298 0.482242 0.058579
C28   C     C_1   0.980207 0.516994 0.478026 0.058668
C29   C     C_1   0.990558 0.988681 0.823819 0.209120
C30   C     C_1   0.040306 0.003206 0.182560 0.189800
C31   C     C_1   0.000408 0.989546 0.890316 0.070269
C32   C     C_1   0.035543 0.000697 0.116523 0.059111
C33   C     C_1   0.013798 0.992869 0.969652 0.057285
C34   C     C_R   0.749382 0.002586 0.510949 -0.167140
C35   C     C_1   0.024853 0.996490 0.037338 0.057139
C36   C     C_R   0.946671 0.774374 0.516674 0.455764
C37   C     C_R   0.045423 0.218747 0.474121 0.446453
C38   C     C_R   0.222808 0.234810 0.651230 0.474656
C39   C     C_R   0.774911 0.766644 0.345150 0.439706
C40   C     C_R   0.006668 0.768996 0.434617 0.455501
C41   C     C_R   0.975195 0.219205 0.546457 0.390416
C42   C     C_R   0.150758 0.234763 0.721770 -0.104182
C43   C     C_R   0.840163 0.774236 0.268300 -0.083007
C44   C     C_R   0.241651 0.066921 0.523510 -0.141979
C45   C     C_R   0.981729 0.731318 0.479471 -0.243060
C46   C     C_R   0.758656 0.932434 0.477704 -0.155363
C47   C     C_R   0.934290 0.926798 0.666329 0.464833
C48   C     C_R   0.072901 0.071771 0.335840 0.479120
C49   C     C_R   0.982845 0.991613 0.746254 -0.231176
C50   C     C_R   0.037289 0.003571 0.258406 -0.202991
C51   C     C_2   0.589406 0.448239 0.991309 1.165478
C52   C     C_2   0.381709 0.603691 0.988694 1.166408
C53   C     C_2   0.109610 0.273888 0.764340 1.183220
C54   C     C_2   0.839208 0.769507 0.189570 1.125824
C55   C     C_2   0.311371 0.151256 0.565149 1.123903
C56   C     C_R   0.000279 0.254645 0.500220 -0.218684
C57   C     C_2   0.690971 0.847668 0.440697 1.118080
C58   C     C_2   0.407993 0.368490 0.984937 1.164394
C59   C     C_2   0.567056 0.686670 0.001027 1.150759
C60   C     C_R   0.221982 0.281390 0.721363 -0.156319
C61   C     C_R   0.770154 0.725242 0.269686 -0.099075
C62   C     C_3   0.535634 0.490461 0.992323 -0.305858
Cl1   Cl    Cl    0.109927 0.149684 0.825452 -0.626390
Cl2   Cl    Cl    0.736126 0.708786 0.392562 -0.477693
Cl3   Cl    Cl    0.983192 0.705038 0.332043 -0.457536
Cl4   Cl    Cl    0.946320 0.269444 0.618424 -0.538884
Cl5   Cl    Cl    0.832909 0.856455 0.639782 -0.430538
Cl6   Cl    Cl    0.175284 0.147098 0.371956 -0.432630
Cl7   Cl    Cl    0.016129 0.845628 0.222486 -0.490338
Cl8   Cl    Cl    0.445966 0.547860 0.141740 -0.493829
Cl9   Cl    Cl    0.527388 0.506632 0.841035 -0.478421
Cl10  Cl    Cl    0.153262 0.832565 0.377505 -0.471393
Cl11  Cl    Cl    0.849552 0.140046 0.657288 -0.506736
Cl12  Cl    Cl    0.882902 0.731772 0.557195 -0.464094
Cl13  Cl    Cl    0.109042 0.262936 0.434222 -0.474540
Cl14  Cl    Cl    0.260171 0.285218 0.597576 -0.499745
H1    H     H_    0.697595 0.450954 0.049712 0.358948
H2    H     H_    0.272899 0.598303 0.927329 0.354026
H3    H     H_    0.009491 0.259494 0.783895 0.393669
H4    H     H_    0.829437 0.819771 0.111132 0.344239
H5    H     H_    0.389095 0.243169 0.553324 0.375232
H6    H     H_    0.590123 0.750497 0.338193 0.375430
H7    H     H_    0.311453 0.252136 0.925606 0.366387
H8    H     H_    0.663570 0.803319 0.065922 0.348669
N1    N     N_R   0.996890 0.041250 0.656740 -0.108614
N2    N     N_R   0.999280 0.159070 0.543360 -0.132257
N3    N     N_R   0.112670 0.157030 0.656740 -0.084240
N4    N     N_R   0.887330 0.842970 0.343260 -0.095447
N5    N     N_R   0.159720 0.044030 0.499880 -0.092876
N6    N     N_R   0.840280 0.955970 0.500120 -0.094753
N7    N     N_R   0.953670 0.953920 0.613510 -0.131959
N8    N     N_R   0.046330 0.046080 0.386490 -0.128899
N9    N     N_R   0.003110 0.958750 0.343260 -0.122059
N10   N     N_R   0.116500 0.956710 0.456640 -0.107286
N11   N     N_R   0.883500 0.043290 0.543360 -0.106639
N12   N     N_R   0.955840 0.840160 0.499880 -0.128239
N13   N     N_R   0.044160 0.159840 0.500120 -0.125473
N14   N     N_R   0.157540 0.157800 0.613510 -0.108619
N15   N     N_R   0.842460 0.842200 0.386490 -0.111544
N16   N     N_R   0.000720 0.840930 0.456640 -0.134675
Ni1   Ni    Ni4+2 0.998100 0.099260 0.599150 0.289710
Ni2   Ni    Ni4+2 0.001900 0.900740 0.400850 0.308793
Ni3   Ni    Ni4+2 0.898980 0.898980 0.500000 0.309114
Ni4   Ni    Ni4+2 0.101020 0.101020 0.500000 0.305626
O1    O     O_2   0.564443 0.381120 0.931830 -0.572130
O2    O     O_R   0.337611 0.186628 0.517876 -0.681134
O3    O     O_2   0.677904 0.815948 0.484982 -0.493168
O4    O     O_R   0.636502 0.807451 0.356335 -0.786570
O5    O     O_2   0.442415 0.357101 0.042117 -0.565545
O6    O     O_R   0.331782 0.304860 0.919083 -0.778323
O7    O     O_2   0.535863 0.700024 0.944167 -0.570684
O8    O     O_R   0.641366 0.749414 0.070130 -0.791034
O9    O     O_R   0.667451 0.485537 0.057900 -0.755993
O10   O     O_2   0.404860 0.670671 0.047432 -0.578505
O11   O     O_R   0.304314 0.564863 0.920728 -0.749281
O12   O     O_2   0.147204 0.348159 0.815342 -0.583888
O13   O     O_R   0.028311 0.226207 0.747370 -0.721575
O14   O     O_2   0.835823 0.707331 0.139831 -0.519388
O15   O     O_R   0.832758 0.831451 0.168142 -0.812855
O16   O     O_2   0.351583 0.186247 0.640504 -0.610518

loop_
_geom_bond_atom_site_label_1
_geom_bond_atom_site_label_2
_ccdc_geom_bond_type
N15   Ni3   S    
C12   Cl7   S    
C58   O5    D    
C14   C18   T    
H2    O11   S    
C16   Cl10  S    
C38   N14   A    
C37   N13   A    
N1    N7    A    
N6    N11   A    
C41   C56   A    
C38   Cl14  S    
C15   C19   T    
C39   Cl2   S    
C51   O9    S    
C43   N4    A    
C6    C61   S    
C19   C21   S    
C24   C26   T    
C5    C11   T    
C42   C53   S    
C7    Cl9   S    
C53   O13   S    
C3    C62   S    
N12   N16   A    
N5    N10   A    
N2    N13   A    
N3    Ni1   S    
C37   C56   A    
C22   C25   T    
C59   O7    D    
C31   C33   S    
C34   C46   A    
H6    O4    S    
C15   C34   S    
C53   O12   D    
N3    N14   A    
C48   C50   A    
C37   Cl13  S    
H4    O15   S    
C54   O15   S    
C17   Cl11  S    
C10   C62   S    
C51   C62   S    
C47   N7    A    
C4    C7    S    
H1    O9    S    
C1    Cl1   S    
C47   Cl5   S    
C26   C28   S    
C55   O16   D    
C1    N1    A    
C40   C45   A    
C39   C61   A    
C55   O2    S    
N4    N15   A    
C32   C35   S    
C47   C49   A    
C3    C8    S    
C42   C60   A    
C29   C49   S    
N4    Ni2   S    
C23   C44   A    
C14   C23   S    
C2    C4    S    
C7    C62   S    
C3    C9    S    
C36   N12   A    
C43   C54   S    
C39   N15   A    
C51   O1    D    
N16   Ni2   S    
C59   O8    S    
H7    O6    S    
C36   C45   A    
H8    O8    S    
C48   Cl6   S    
C9    C11   S    
C2    C52   S    
C17   N11   A    
C8    C10   S    
C57   O3    D    
C16   C23   A    
C40   Cl3   S    
C54   O14   D    
N5    Ni4   S    
C38   C60   A    
C12   N9    A    
C17   C34   A    
C24   C45   S    
C4    C10   S    
N1    Ni1   S    
C43   C61   A    
C52   O11   S    
C7    C9    S    
H5    O2    S    
C36   Cl12  S    
C5    C60   S    
C58   O6    S    
C8    Cl8   S    
C2    C8    S    
N7    Ni3   S    
C10   C13   S    
N9    Ni2   S    
C40   N16   A    
C12   C50   A    
C41   Cl4   S    
C46   N6    A    
C52   O10   D    
C25   C27   S    
C16   N10   A    
C22   C56   S    
C46   C57   S    
C6    C13   T    
C30   C32   T    
N2    Ni1   S    
C44   C55   S    
N14   Ni4   S    
H3    O13   S    
C4    C59   S    
N8    N9    A    
C33   C35   T    
C18   C20   S    
C30   C50   S    
N6    Ni3   S    
N13   Ni4   S    
C41   N2    A    
N8    Ni4   S    
C3    C58   S    
C57   O4    S    
C20   C21   T    
N10   Ni2   S    
C29   C31   T    
C48   N8    A    
N12   Ni3   S    
C27   C28   T    
C42   N3    A    
C2    C9    S    
C1    C49   A    
C44   N5    A    
N11   Ni1   S    
