data_mof_unit_66730.cif
_audit_creation_date              2013-03-05T15:39:26-0500
_audit_creation_method            fapswitch 2.2
_symmetry_space_group_name_H-M    P1
_symmetry_Int_Tables_number       1
_space_group_crystal_system       triclinic
_cell_length_a                    20.249287
_cell_length_b                    22.020157
_cell_length_c                    8.632902
_cell_angle_alpha                 90.194861
_cell_angle_beta                  103.416073
_cell_angle_gamma                 90.214188
_cell_volume                      3744.23839559

loop_
_atom_site_label
_atom_site_type_symbol
_atom_site_description
_atom_site_fract_x
_atom_site_fract_y
_atom_site_fract_z
_atom_type_partial_charge
P1    P     P_3+3 0.859590 0.433890 0.993820 1.042481
P2    P     P_3+3 0.859590 0.566110 0.493820 1.052660
P3    P     P_3+3 0.359590 0.933890 0.993820 1.041219
P4    P     P_3+3 0.359590 0.066110 0.493820 1.053610
O1    O     O_2   0.866180 0.413660 0.823810 -0.448008
O2    O     O_2   0.866180 0.586340 0.323810 -0.442836
O3    O     O_2   0.366180 0.913660 0.823810 -0.449085
O4    O     O_2   0.366180 0.086340 0.323810 -0.442527
O5    O     O_3   0.922050 0.469730 0.097400 -0.467567
O6    O     O_3   0.922050 0.530270 0.597400 -0.466695
O7    O     O_3   0.422050 0.969730 0.097400 -0.466280
O8    O     O_3   0.422050 0.030270 0.597400 -0.465968
O9    O     O_3   0.976760 0.360270 0.628090 -0.429853
O10   O     O_3   0.976760 0.639730 0.128090 -0.446318
O11   O     O_3   0.476760 0.860270 0.628090 -0.428595
O12   O     O_3   0.476760 0.139730 0.128090 -0.440407
O13   O     O_2   0.858487 0.319810 0.662774 -0.481970
O14   O     O_2   0.860261 0.683156 0.159139 -0.419719
O15   O     O_2   0.358468 0.819584 0.662931 -0.480798
O16   O     O_2   0.360075 0.182949 0.159017 -0.420387
O17   O     O_3   0.785812 0.478003 0.953054 -0.648564
O18   O     O_3   0.783906 0.523926 0.454143 -0.636083
O19   O     O_3   0.285781 0.977997 0.952921 -0.648424
O20   O     O_3   0.283871 0.023975 0.454118 -0.636014
O21   O     O_3   0.939680 0.232112 0.635789 -0.548515
O22   O     O_3   0.946794 0.769370 0.143183 -0.561118
O23   O     O_3   0.439504 0.731790 0.634595 -0.551496
O24   O     O_3   0.446314 0.269331 0.142765 -0.561382
C1    C     C_3   0.983083 0.135002 0.563938 -0.202229
C2    C     C_3   0.980028 0.869710 0.063107 -0.188747
C3    C     C_3   0.484891 0.635084 0.564742 -0.193214
C4    C     C_3   0.479899 0.369536 0.062683 -0.188664
P5    P     P_3+3 0.140130 0.433190 0.695710 1.019932
P6    P     P_3+3 0.140130 0.566810 0.195710 1.089217
P7    P     P_3+3 0.640130 0.933190 0.695710 1.020844
P8    P     P_3+3 0.640130 0.066810 0.195710 1.023112
P9    P     P_3+3 0.085867 0.305184 0.124135 1.068972
P10   P     P_3+3 0.087423 0.693377 0.627710 1.053263
P11   P     P_3+3 0.586419 0.805586 0.124115 1.067064
P12   P     P_3+3 0.587448 0.193291 0.628698 1.047729
O25   O     O_2   0.133470 0.412980 0.865660 -0.465305
O26   O     O_2   0.133470 0.587020 0.365660 -0.433237
O27   O     O_2   0.633470 0.912980 0.865660 -0.463135
O28   O     O_2   0.633470 0.087020 0.365660 -0.474325
O29   O     O_3   0.022720 0.360150 0.061220 -0.428264
O30   O     O_3   0.022720 0.639850 0.561220 -0.430206
O31   O     O_3   0.522720 0.860150 0.061220 -0.427851
O32   O     O_3   0.522720 0.139850 0.561220 -0.424634
O33   O     O_2   0.138907 0.313801 0.022631 -0.442315
O34   O     O_2   0.143205 0.681137 0.536395 -0.451940
O35   O     O_2   0.639522 0.814571 0.022976 -0.443118
O36   O     O_2   0.643352 0.181095 0.537701 -0.478779
O37   O     O_3   0.211083 0.481280 0.737786 -0.624220
O38   O     O_3   0.211461 0.519926 0.233504 -0.576809
O39   O     O_3   0.711056 0.981311 0.737919 -0.625424
O40   O     O_3   0.711258 0.019677 0.233495 -0.599045
O41   O     O_3   0.049027 0.234051 0.063981 -0.537728
O42   O     O_3   0.054170 0.764403 0.560006 -0.539235
O43   O     O_3   0.550315 0.734276 0.063598 -0.541183
O44   O     O_3   0.554301 0.264294 0.560610 -0.538062
C5    C     C_3   0.978697 0.236333 0.058465 0.769574
C6    C     C_3   0.984125 0.764439 0.557654 0.773932
C7    C     C_3   0.479882 0.736392 0.056170 0.772715
C8    C     C_3   0.484218 0.264317 0.557818 0.773781
H1    H     H_    0.968392 0.263529 0.157149 -0.052229
H2    H     H_    0.973151 0.738779 0.657521 -0.053716
H3    H     H_    0.469163 0.762565 0.156064 -0.051030
H4    H     H_    0.473100 0.238683 0.657599 -0.053141
C9    C     C_3   0.950133 0.171620 0.065517 0.670056
C10   C     C_3   0.959014 0.829918 0.564515 0.658366
C11   C     C_3   0.451135 0.671664 0.058594 0.674992
C12   C     C_3   0.459093 0.329770 0.564509 0.657080
H5    H     H_    0.940984 0.150361 0.944914 0.022367
H6    H     H_    0.951281 0.849938 0.444152 0.000340
H7    H     H_    0.443910 0.650865 0.937960 0.028529
H8    H     H_    0.451806 0.349815 0.444279 0.001060
C13   C     C_3   0.195521 0.463450 0.289031 0.409749
C14   C     C_3   0.192765 0.538612 0.783506 0.311750
C15   C     C_3   0.695397 0.963424 0.290223 0.403034
C16   C     C_3   0.692600 0.038750 0.782585 0.302097
H9    H     H_    0.173094 0.468945 0.393878 -0.019051
H10   H     H_    0.166748 0.534830 0.882859 -0.004491
H11   H     H_    0.673327 0.969274 0.395479 -0.012303
H12   H     H_    0.666582 0.035185 0.881985 0.007005
H13   H     H_    0.159699 0.438255 0.193067 -0.063569
H14   H     H_    0.158979 0.561485 0.680678 0.009865
H15   H     H_    0.659333 0.938085 0.195037 -0.052870
H16   H     H_    0.658777 0.061365 0.679372 0.009647
C17   C     C_3   0.261155 0.427507 0.337670 0.223549
C18   C     C_3   0.257263 0.576709 0.837538 0.178131
C19   C     C_3   0.761075 0.927513 0.338442 0.221941
C20   C     C_3   0.757008 0.077002 0.835933 0.179109
H17   H     H_    0.250092 0.380812 0.371658 -0.038778
H18   H     H_    0.243623 0.625004 0.845577 0.011480
H19   H     H_    0.750196 0.880971 0.373774 -0.038516
H20   H     H_    0.743283 0.125311 0.843377 0.015225
H21   H     H_    0.285387 0.424620 0.234477 0.104295
H22   H     H_    0.289033 0.573658 0.748420 0.140062
H23   H     H_    0.784865 0.924211 0.234609 0.106565
H24   H     H_    0.788708 0.073799 0.746700 0.126741
Ba1   Ba    Ba6+2 0.999900 0.456810 0.844860 1.765200
Ba2   Ba    Ba6+2 0.999900 0.543190 0.344860 1.787010
Ba3   Ba    Ba6+2 0.499900 0.956810 0.844860 1.765591
Ba4   Ba    Ba6+2 0.499900 0.043190 0.344860 1.771307
C21   C     C_3   0.800538 0.539224 0.933361 0.308309
C22   C     C_3   0.794388 0.461912 0.433373 0.211347
C23   C     C_3   0.300472 0.039253 0.933675 0.309431
C24   C     C_3   0.294287 0.961963 0.433194 0.211813
H25   H     H_    0.822352 0.544028 0.827464 -0.081523
H26   H     H_    0.818101 0.455347 0.330955 -0.059108
H27   H     H_    0.322516 0.044172 0.828158 -0.081739
H28   H     H_    0.318095 0.955411 0.330927 -0.058453
H29   H     H_    0.837456 0.556675 0.039794 0.037612
H30   H     H_    0.827699 0.442715 0.542043 0.016721
H31   H     H_    0.337215 0.056662 0.040422 0.038357
H32   H     H_    0.327499 0.942709 0.541925 0.016688
C25   C     C_3   0.734469 0.576739 0.908688 0.520445
C26   C     C_3   0.724204 0.429634 0.397996 0.549784
C27   C     C_3   0.234323 0.076704 0.908435 0.519685
C28   C     C_3   0.224047 0.929753 0.397404 0.548929
O45   O     O_3   0.077880 0.530130 0.092320 -0.515094
O46   O     O_3   0.077880 0.469870 0.592320 -0.500905
O47   O     O_3   0.577880 0.030130 0.092320 -0.497267
O48   O     O_3   0.577880 0.969870 0.592320 -0.498402
P13   P     P_3+3 0.915407 0.696749 0.066499 1.101520
P14   P     P_3+3 0.912039 0.305767 0.566768 1.076902
P15   P     P_3+3 0.415209 0.196611 0.066405 1.103175
P16   P     P_3+3 0.411979 0.805662 0.566696 1.074161
C29   C     C_3   0.990288 0.206146 0.566097 0.545810
C30   C     C_3   0.992043 0.799264 0.063398 0.512399
C31   C     C_3   0.490706 0.706376 0.565802 0.536764
C32   C     C_3   0.491840 0.299074 0.063507 0.513105
H33   H     H_    0.014022 0.117441 0.482686 0.136769
H34   H     H_    0.013510 0.890706 0.992295 0.129054
H35   H     H_    0.516173 0.618008 0.483642 0.139739
H36   H     H_    0.513412 0.390392 0.991730 0.129972
C33   C     C_R   0.112017 0.647049 0.937446 -0.378096
C34   C     C_R   0.114284 0.352841 0.435201 -0.346818
C35   C     C_R   0.612776 0.147286 0.939415 -0.338552
C36   C     C_R   0.614419 0.852863 0.435384 -0.347589
C37   C     C_R   0.127947 0.693034 0.842416 -0.060516
C38   C     C_R   0.130568 0.307558 0.337682 -0.055549
C39   C     C_R   0.627995 0.193328 0.843595 -0.059101
C40   C     C_R   0.630924 0.807776 0.337680 -0.054951
C41   C     C_R   0.180240 0.734394 0.905603 -0.086496
C42   C     C_R   0.183981 0.267275 0.398962 -0.118566
C43   C     C_R   0.679833 0.235119 0.906034 -0.111794
C44   C     C_R   0.684447 0.767589 0.398776 -0.116870
C45   C     C_R   0.222136 0.727301 0.061222 -0.014857
C46   C     C_R   0.226123 0.274778 0.554827 0.027896
C47   C     C_R   0.722372 0.227966 0.060656 0.048608
C48   C     C_R   0.726465 0.775000 0.554785 0.029144
C49   C     C_R   0.210304 0.673808 0.146197 0.311351
C50   C     C_R   0.213405 0.326879 0.642713 0.332317
C51   C     C_R   0.712387 0.174504 0.145950 0.323884
C52   C     C_R   0.713618 0.827017 0.642823 0.330520
C53   C     C_R   0.152897 0.636973 0.088679 0.105974
C54   C     C_R   0.155154 0.363354 0.586982 0.041840
C55   C     C_R   0.654436 0.137011 0.090009 0.030554
C56   C     C_R   0.655272 0.863389 0.587138 0.041370
C57   C     C_R   0.811990 0.273580 0.293077 0.027943
C58   C     C_R   0.817257 0.730661 0.788918 0.008360
C59   C     C_R   0.311363 0.773551 0.293732 -0.051496
C60   C     C_R   0.317003 0.230500 0.788892 0.009192
C61   C     C_R   0.867773 0.311115 0.354210 -0.029871
C62   C     C_R   0.871899 0.692304 0.851457 0.014963
C63   C     C_R   0.367334 0.811041 0.354505 -0.008314
C64   C     C_R   0.371730 0.192212 0.851375 0.014686
C65   C     C_R   0.848879 0.363046 0.101015 0.065530
C66   C     C_R   0.850807 0.638297 0.599471 0.067287
C67   C     C_R   0.348578 0.862893 0.101161 0.057218
C68   C     C_R   0.350778 0.138302 0.599331 0.067261
C69   C     C_R   0.795966 0.322169 0.036783 -0.239724
C70   C     C_R   0.798847 0.679638 0.534367 -0.248168
C71   C     C_R   0.295672 0.821863 0.037185 -0.208415
C72   C     C_R   0.298742 0.179581 0.534240 -0.248240
C73   C     C_R   0.777852 0.274431 0.129671 0.072389
C74   C     C_R   0.782400 0.728984 0.625268 0.015545
C75   C     C_R   0.277491 0.774057 0.130321 0.062980
C76   C     C_R   0.282158 0.228836 0.625231 0.015486
C77   C     C_R   0.887436 0.354784 0.256642 0.126211
C78   C     C_R   0.890107 0.647533 0.754299 0.123435
C79   C     C_R   0.387105 0.854601 0.256719 0.130307
C80   C     C_R   0.390076 0.147556 0.754133 0.122794
H37   H     H_    0.794484 0.246417 0.378939 0.144015
H38   H     H_    0.800962 0.758488 0.875132 0.158371
H39   H     H_    0.293798 0.746049 0.379012 0.145185
H40   H     H_    0.300614 0.258253 0.875128 0.158296
H41   H     H_    0.187980 0.770638 0.828342 0.112761
H42   H     H_    0.192429 0.231539 0.320486 0.113324
H43   H     H_    0.686937 0.271674 0.828968 0.114490
H44   H     H_    0.693072 0.732014 0.320050 0.112772
H45   H     H_    0.769505 0.329452 0.915011 0.128649
H46   H     H_    0.771347 0.671202 0.413731 0.146545
H47   H     H_    0.269292 0.829157 0.915403 0.124148
H48   H     H_    0.271288 0.171169 0.413551 0.146597
H49   H     H_    0.072149 0.615164 0.887155 0.127681
H50   H     H_    0.073150 0.383464 0.387136 0.122230
H51   H     H_    0.572742 0.115448 0.889831 0.126088
H52   H     H_    0.573181 0.883398 0.387406 0.122403
C81   C     C_2   0.060757 0.224275 0.657561 0.848349
O49   O     O_2   0.068768 0.267420 0.748875 -0.540529
O50   O     O_R   0.116609 0.191597 0.634625 -0.751020
H53   H     H_    0.159982 0.205309 0.709987 0.306386
C82   C     C_2   0.065600 0.786993 0.144147 0.855605
O51   O     O_2   0.110721 0.815068 0.102278 -0.574842
O52   O     O_R   0.082182 0.743304 0.262113 -0.688766
H54   H     H_    0.133072 0.741502 0.304972 0.332315
C83   C     C_2   0.560817 0.725555 0.657389 0.850223
O53   O     O_2   0.568001 0.768713 0.748578 -0.538344
O54   O     O_R   0.617282 0.693505 0.635715 -0.752480
H55   H     H_    0.660180 0.707334 0.712687 0.306316
C84   C     C_2   0.565264 0.286618 0.145078 0.854499
O55   O     O_2   0.610623 0.314925 0.104811 -0.578260
O56   O     O_R   0.581469 0.242190 0.261228 -0.687707
H56   H     H_    0.632351 0.239770 0.303486 0.321437
O57   O     O_3   0.304837 0.456320 0.466952 -0.678306
H57   H     H_    0.350144 0.437726 0.476779 0.343861
O58   O     O_3   0.294059 0.557890 0.987734 -0.690587
H58   H     H_    0.318310 0.520281 0.970707 0.341837
O59   O     O_3   0.805172 0.956702 0.466385 -0.683541
H59   H     H_    0.850364 0.937885 0.476068 0.343764
O60   O     O_3   0.793901 0.058458 0.986300 -0.673382
H60   H     H_    0.818614 0.021082 0.969523 0.340403
O61   O     O_3   0.696699 0.570196 0.750667 -0.679699
H61   H     H_    0.721689 0.591840 0.681091 0.317848
O62   O     O_3   0.687473 0.446333 0.245699 -0.639293
H62   H     H_    0.709149 0.426224 0.167038 0.341033
O63   O     O_3   0.196759 0.070065 0.750263 -0.679671
H63   H     H_    0.221887 0.091630 0.680845 0.317709
O64   O     O_3   0.187525 0.946362 0.244831 -0.641057
H64   H     H_    0.209350 0.926213 0.166504 0.341041
O65   O     O_3   0.751568 0.638090 0.940107 -0.797199
H65   H     H_    0.709090 0.660827 0.937190 0.326604
O66   O     O_3   0.731506 0.366165 0.400087 -0.760193
H66   H     H_    0.749921 0.353294 0.511323 0.303958
O67   O     O_3   0.251335 0.138080 0.939728 -0.797665
H67   H     H_    0.208867 0.160781 0.937236 0.325554
O68   O     O_3   0.231270 0.866282 0.399964 -0.753162
H68   H     H_    0.249899 0.853563 0.511255 0.305281
C85   C     C_2   0.691455 0.555706 0.020190 0.954271
O69   O     O_2   0.647842 0.516720 0.976646 -0.533421
O70   O     O_R   0.700095 0.582510 0.170692 -0.745018
H69   H     H_    0.666107 0.567116 0.231158 0.358397
C86   C     C_2   0.684178 0.448656 0.518776 1.031515
O71   O     O_2   0.637996 0.485363 0.482300 -0.509164
O72   O     O_R   0.700269 0.424342 0.672238 -0.773016
H70   H     H_    0.668638 0.438920 0.739797 0.370955
C87   C     C_2   0.191113 0.055732 0.019606 0.955158
O73   O     O_2   0.147144 0.017098 0.975485 -0.533929
O74   O     O_R   0.200010 0.082231 0.170524 -0.744597
H71   H     H_    0.165854 0.066992 0.230719 0.358644
C88   C     C_2   0.183828 0.948892 0.517665 1.031399
O75   O     O_2   0.137442 0.985358 0.480451 -0.510203
O76   O     O_R   0.199962 0.924923 0.671497 -0.772139
H72   H     H_    0.168192 0.939512 0.738695 0.371383
O77   O     O_3   0.981937 0.224202 0.407817 -0.746649
H73   H     H_    0.004598 0.264283 0.407175 0.231766
O78   O     O_3   0.981067 0.780590 0.904984 -0.742421
H74   H     H_    0.004494 0.741043 0.904279 0.229843
O79   O     O_3   0.482089 0.724094 0.407155 -0.752474
H75   H     H_    0.504208 0.764397 0.405906 0.233299
O80   O     O_3   0.481115 0.280331 0.905166 -0.742769
H76   H     H_    0.504554 0.240781 0.904653 0.229796
C89   C     C_2   0.010068 0.102028 0.720115 0.837438
O81   O     O_2   0.003044 0.046882 0.724893 -0.544001
O82   O     O_R   0.045446 0.132775 0.855863 -0.735703
H77   H     H_    0.060158 0.105047 0.950720 0.347832
C90   C     C_2   0.998738 0.900562 0.225322 0.813888
O83   O     O_2   0.053228 0.890180 0.316690 -0.533955
O84   O     O_R   0.955258 0.943600 0.268091 -0.737289
H78   H     H_    0.974392 0.962186 0.376966 0.347729
C91   C     C_2   0.512615 0.602466 0.721200 0.840826
O85   O     O_2   0.505418 0.547375 0.727331 -0.540722
O86   O     O_R   0.548964 0.633427 0.855556 -0.738491
H79   H     H_    0.563238 0.606119 0.951384 0.346285
C92   C     C_2   0.498647 0.400548 0.224641 0.812573
O87   O     O_2   0.553835 0.391250 0.314512 -0.531860
O88   O     O_R   0.454431 0.442597 0.268735 -0.737174
H80   H     H_    0.473766 0.461516 0.377128 0.349264
O89   O     O_3   0.888963 0.173944 0.115315 -0.672103
H81   H     H_    0.852034 0.179069 0.018265 0.279405
O90   O     O_3   0.897636 0.830212 0.613809 -0.699054
H82   H     H_    0.860576 0.824377 0.517091 0.265192
O91   O     O_3   0.388604 0.673691 0.101650 -0.729044
H83   H     H_    0.353207 0.680582 0.002616 0.269534
O92   O     O_3   0.397410 0.330048 0.612544 -0.699023
H84   H     H_    0.360616 0.324154 0.515285 0.265469
O93   O     O_3   0.256163 0.652704 0.277575 -0.696172
H85   H     H_    0.301608 0.657900 0.255860 0.353358
O94   O     O_3   0.262681 0.346509 0.770241 -0.711955
H86   H     H_    0.240721 0.363588 0.851446 0.332897
O95   O     O_3   0.763602 0.155649 0.270615 -0.694395
H87   H     H_    0.744136 0.132977 0.347916 0.331439
O96   O     O_3   0.762847 0.846674 0.770416 -0.712180
H88   H     H_    0.740868 0.863806 0.851503 0.333357
O97   O     O_3   0.942632 0.391302 0.314906 -0.733516
H89   H     H_    0.929445 0.418552 0.394029 0.294259
O98   O     O_3   0.944840 0.611042 0.812201 -0.738226
H90   H     H_    0.930934 0.583184 0.888715 0.291572
O99   O     O_3   0.442423 0.891011 0.314739 -0.734929
H91   H     H_    0.429335 0.918384 0.393742 0.294047
O100  O     O_3   0.444953 0.111202 0.811913 -0.738400
H92   H     H_    0.431156 0.083255 0.888394 0.292022
C93   C     C_2   0.910863 0.114673 0.495603 0.990917
O101  O     O_2   0.866017 0.127524 0.563467 -0.612830
O102  O     O_R   0.896417 0.078051 0.359260 -0.666713
H93   H     H_    0.847434 0.063919 0.329659 0.384475
C94   C     C_2   0.908353 0.885979 0.981456 1.013369
O103  O     O_2   0.861192 0.868964 0.037073 -0.607182
O104  O     O_R   0.896715 0.923787 0.848186 -0.686315
H94   H     H_    0.847186 0.934759 0.808388 0.358319
C95   C     C_2   0.413157 0.613431 0.496448 0.946791
O105  O     O_2   0.367757 0.626018 0.562866 -0.590628
O106  O     O_R   0.399887 0.575761 0.362027 -0.687024
H95   H     H_    0.351308 0.560475 0.333022 0.378165
C96   C     C_2   0.408241 0.385812 0.980850 1.012967
O107  O     O_2   0.361045 0.368866 0.036439 -0.606371
O108  O     O_R   0.396658 0.423555 0.847457 -0.686750
H96   H     H_    0.347137 0.434547 0.807591 0.358717
O109  O     O_3   0.944987 0.264579 0.918750 -0.676895
H97   H     H_    0.897208 0.269759 0.925921 0.255028
O110  O     O_3   0.948142 0.735705 0.419897 -0.680788
H98   H     H_    0.900386 0.732214 0.428842 0.257203
O111  O     O_3   0.446802 0.765691 0.917560 -0.676478
H99   H     H_    0.399550 0.772714 0.926632 0.257743
O112  O     O_3   0.448389 0.235602 0.419857 -0.680197
H100  H     H_    0.400656 0.231824 0.428808 0.257651
O113  O     O_3   0.996874 0.136489 0.173520 -0.670955
H101  H     H_    0.981031 0.093739 0.156602 0.349538
O114  O     O_3   0.007564 0.864280 0.671968 -0.646931
H102  H     H_    0.992660 0.907209 0.658044 0.353564
O115  O     O_3   0.496358 0.636278 0.169377 -0.670474
H103  H     H_    0.480619 0.593567 0.150359 0.350698
O116  O     O_3   0.507402 0.364058 0.672820 -0.647936
H104  H     H_    0.492687 0.407029 0.658354 0.353282

loop_
_geom_bond_atom_site_label_1
_geom_bond_atom_site_label_2
_geom_bond_distance
_ccdc_geom_bond_type
C1    H33   1.112614 S    
C44   H44   1.076374 S    
C38   C42   1.407611 A    
O94   H86   0.987294 S    
P6    O26   1.567362 D    
Ba3   O47   2.838297 S    
C15   H15   1.111401 S    
Ba4   O47   2.987599 S    
O115  H103  0.992726 S    
C13   C17   1.523250 S    
P6    Ba2   3.417843 S    
O40   C15   1.396965 S    
C67   C79   1.400700 A    
P7    O48   1.590085 S    
C50   C54   1.419236 A    
O14   P13   1.545865 D    
O10   Ba2   2.805041 S    
O84   H78   1.014027 S    
C11   O115  1.401568 S    
C6    C10   1.536195 S    
C24   C28   1.551943 S    
C79   O99   1.370627 S    
C42   C46   1.425007 A    
O12   Ba4   2.805041 S    
C48   C52   1.430172 A    
P2    O18   1.752848 S    
C47   C51   1.429053 A    
P4    O8    1.584147 S    
O22   C30   1.427825 S    
O113  H101  0.992726 S    
C37   C41   1.403473 A    
C82   O52   1.387720 S    
C35   C55   1.395532 A    
C86   O71   1.223816 D    
C22   C26   1.551715 S    
C2    C90   1.520382 S    
C71   H47   1.075928 S    
C20   O60   1.402064 S    
O1    Ba1   2.831771 S    
P9    C38   1.856150 S    
O110  H98   0.990519 S    
C60   C64   1.400909 A    
O99   H91   0.990447 S    
P11   O31   1.758750 S    
C16   C20   1.527418 S    
O21   P14   1.776935 S    
O63   H63   0.992543 S    
O23   P16   1.778177 S    
C14   H10   1.109045 S    
O100  H92   0.989837 S    
O19   C23   1.398928 S    
O4    Ba4   2.838970 S    
C32   O80   1.394197 S    
C7    C11   1.539633 S    
P6    O38   1.747385 S    
C90   O84   1.401545 S    
P5    Ba1   3.419741 S    
P8    O28   1.567362 D    
C57   C73   1.419845 A    
P1    Ba1   3.416115 S    
P5    C54   1.861348 S    
C58   H38   1.072692 S    
C66   C70   1.409904 A    
C8    O112  1.391092 S    
P3    Ba3   3.416115 S    
P12   O32   1.752583 S    
O43   C7    1.413670 S    
C60   H40   1.072801 S    
O41   C5    1.414944 S    
P7    Ba3   3.419741 S    
Ba1   O46   2.987891 S    
C77   O97   1.370588 S    
O44   C8    1.413735 S    
O37   C14   1.398296 S    
C36   H52   1.080067 S    
C16   H16   1.110573 S    
O18   C22   1.400045 S    
O39   C16   1.398298 S    
P4    Ba4   3.417957 S    
O2    Ba2   2.838970 S    
P3    O7    1.576387 S    
C27   O63   1.407236 S    
C28   O68   1.405519 S    
O116  H104  0.992661 S    
C5    H1    1.099042 S    
O109  H97   0.990699 S    
O11   Ba3   2.792712 S    
C57   C61   1.396775 A    
C4    C92   1.520066 S    
C10   O90   1.404042 S    
P11   O35   1.546934 D    
P12   O44   1.752593 S    
C62   C78   1.397131 A    
C45   C75   1.532710 S    
P14   C61   1.850273 S    
C87   O73   1.223234 D    
O59   H59   0.991810 S    
C8    H4    1.097117 S    
C21   H29   1.107912 S    
C29   O77   1.396686 S    
C88   O75   1.223767 D    
C47   C73   1.529901 S    
P2    Ba2   3.417957 S    
C50   O94   1.370507 S    
C20   H20   1.105887 S    
C85   O69   1.223239 D    
C28   C88   1.520088 S    
C45   C49   1.438191 A    
C35   C39   1.388817 A    
C26   O66   1.405678 S    
C1    C29   1.572492 S    
C43   H43   1.076304 S    
C93   O102  1.397606 S    
Ba2   O45   2.987599 S    
P7    O27   1.569907 D    
O65   H65   0.992194 S    
C15   C19   1.523329 S    
O24   P15   1.785512 S    
O78   H74   0.993879 S    
O38   C13   1.397632 S    
C29   C81   1.513193 S    
C13   H13   1.111440 S    
O3    Ba3   2.831771 S    
O67   H67   0.992246 S    
C66   C78   1.401624 A    
C81   O50   1.394674 S    
C12   O92   1.404450 S    
C83   O53   1.218517 D    
C94   O104  1.398038 S    
C6    H2    1.096906 S    
C51   C55   1.420877 A    
C52   C56   1.419342 A    
O16   P15   1.545784 D    
O5    Ba2   2.839041 S    
O57   H57   0.991702 S    
O24   C32   1.427651 S    
C43   C47   1.420379 A    
C10   H6    1.107564 S    
O95   H87   0.986308 S    
C34   C54   1.395961 A    
C25   O65   1.403193 S    
O88   H80   1.014198 S    
O93   H85   0.987156 S    
C89   O82   1.395118 S    
C6    O110  1.391004 S    
C4    C96   1.504297 S    
P3    C67   1.858952 S    
C59   C75   1.418392 A    
P5    O46   1.590085 S    
P10   C37   1.844814 S    
C21   H25   1.108958 S    
P4    C68   1.859109 S    
C52   O96   1.370539 S    
C23   H27   1.108932 S    
C44   C48   1.424842 A    
O82   H77   1.011775 S    
Ba4   O48   2.853240 S    
C33   C53   1.393146 A    
C36   C56   1.395690 A    
C91   O86   1.395213 S    
C17   H17   1.106507 S    
O12   P15   1.764682 S    
C41   C45   1.422138 A    
P10   O30   1.752209 S    
C19   H19   1.106127 S    
P6    C53   1.850735 S    
C72   C76   1.423197 A    
P11   C40   1.855177 S    
P12   C39   1.846347 S    
O90   H82   0.992271 S    
C65   C69   1.406909 A    
C32   C84   1.516642 S    
C19   H23   1.114025 S    
C68   C72   1.410013 A    
C31   O79   1.397030 S    
O42   C6    1.413794 S    
Ba1   Ba2   4.722879 S    
C1    C89   1.520311 S    
O68   H68   0.989068 S    
C16   H12   1.109059 S    
O80   H76   0.993880 S    
C84   O55   1.224066 D    
C14   C18   1.527581 S    
P1    O1    1.567550 D    
P3    O3    1.567550 D    
C27   C87   1.513137 S    
P4    O20   1.752861 S    
O13   P14   1.541520 D    
O70   H69   1.013522 S    
O15   P16   1.541683 D    
O97   H89   0.990434 S    
C96   O108  1.398036 S    
P7    C56   1.860661 S    
C57   H37   1.075278 S    
P8    C55   1.853416 S    
P10   O42   1.752874 S    
C49   O93   1.372107 S    
P15   C64   1.862848 S    
C31   C83   1.513743 S    
P16   C63   1.849511 S    
O66   H66   0.988943 S    
C9    H5    1.115342 S    
O7    Ba4   2.839041 S    
O20   C24   1.399958 S    
C70   C74   1.423253 A    
C60   C76   1.425569 A    
P4    O4    1.570100 D    
C84   O56   1.388025 S    
O106  H95   1.013063 S    
C90   O83   1.221116 D    
C21   C25   1.547529 S    
Ba3   O48   2.987891 S    
C23   C27   1.547857 S    
C18   H18   1.105715 S    
O31   Ba3   2.804731 S    
O52   H54   1.011855 S    
C5    O109  1.390610 S    
P8    O47   1.582194 S    
P1    O5    1.576387 S    
O60   H60   0.992312 S    
O74   H71   1.013520 S    
C34   C38   1.391890 A    
O96   H88   0.987147 S    
C4    H36   1.113149 S    
C58   C62   1.400715 A    
C27   O67   1.403241 S    
C94   O103  1.222384 D    
Ba1   O45   2.838297 S    
O102  H93   1.012676 S    
O22   P13   1.785868 S    
O98   H90   0.989791 S    
O91   H83   0.992495 S    
P8    O40   1.747424 S    
P9    O33   1.547179 D    
O54   H55   1.008775 S    
C13   H9    1.109305 S    
P11   O43   1.755501 S    
C9    O113  1.401592 S    
C65   C77   1.401309 A    
O29   Ba1   2.804731 S    
O8    Ba3   2.853996 S    
O9    P14   1.760723 S    
C3    H35   1.112908 S    
C22   H30   1.106773 S    
C12   O116  1.402325 S    
O11   P16   1.763188 S    
C86   O72   1.397774 S    
C69   H45   1.076260 S    
C3    C91   1.520904 S    
O58   H58   0.992120 S    
C46   C76   1.540487 S    
C33   C37   1.388669 A    
C41   H41   1.075904 S    
O6    Ba1   2.853996 S    
C36   C40   1.391566 A    
C26   O62   1.403056 S    
P5    O25   1.569907 D    
C24   H32   1.106820 S    
O112  H100  0.990574 S    
O114  H102  0.992557 S    
C2    C30   1.571010 S    
C15   H11   1.109086 S    
C95   O105  1.223171 D    
O79   H75   0.993809 S    
O25   Ba1   2.841559 S    
O56   H56   1.011744 S    
C49   C53   1.406452 A    
O111  H99   0.990614 S    
O27   Ba3   2.841559 S    
C95   O106  1.397862 S    
C80   O100  1.369883 S    
O108  H96   1.012316 S    
C24   H28   1.108985 S    
C93   O101  1.222966 D    
Ba3   Ba4   4.722879 S    
C9    O89   1.403259 S    
Ba2   O46   2.853240 S    
O17   C21   1.399004 S    
O104  H94   1.012301 S    
P1    O17   1.751711 S    
O23   C31   1.424297 S    
C81   O49   1.218504 D    
P3    O19   1.752156 S    
C40   C44   1.407465 A    
O21   C29   1.423800 S    
C30   O78   1.393987 S    
O28   Ba4   2.834267 S    
C26   C86   1.520287 S    
C82   O51   1.224005 D    
C39   C43   1.402167 A    
O30   Ba2   2.792441 S    
C25   O61   1.407255 S    
O10   P13   1.764173 S    
C51   O95   1.376399 S    
O77   H73   0.993841 S    
C35   H51   1.079166 S    
O32   Ba4   2.792441 S    
C59   H39   1.076197 S    
C63   C79   1.397305 A    
O62   H62   0.993767 S    
C64   C80   1.396962 A    
C3    C31   1.573674 S    
C19   O59   1.401291 S    
C89   O81   1.224047 D    
C3    C95   1.510098 S    
P2    O2    1.570100 D    
O26   Ba2   2.834267 S    
C28   O64   1.403161 S    
C2    C94   1.504175 S    
P5    O37   1.749679 S    
P9    O41   1.756578 S    
C7    H3    1.098811 S    
C87   O74   1.398392 S    
C58   C74   1.425556 A    
P7    O39   1.749686 S    
C10   O114  1.402131 S    
C88   O76   1.397733 S    
C71   C75   1.424921 A    
C2    H34   1.113121 S    
O89   H81   0.992175 S    
P12   O36   1.544090 D    
C67   C71   1.408473 A    
C17   H21   1.114042 S    
C85   O70   1.398428 S    
C59   C63   1.398372 A    
C68   C80   1.401483 A    
C69   C73   1.421947 A    
O61   H61   0.992562 S    
C12   H8    1.107442 S    
C1    C93   1.509966 S    
C72   H48   1.076131 S    
C23   H31   1.107722 S    
C18   O58   1.402064 S    
C34   H50   1.079994 S    
O86   H79   1.011554 S    
P2    C66   1.859513 S    
P6    O45   1.582194 S    
C92   O88   1.402078 S    
O92   H84   0.992558 S    
C11   O91   1.400757 S    
O9    Ba1   2.792712 S    
O76   H72   1.013426 S    
P2    O6    1.584147 S    
C4    C32   1.570988 S    
C20   H24   1.113504 S    
C22   H26   1.108984 S    
C5    C9    1.542592 S    
C78   O98   1.369741 S    
C7    O111  1.390449 S    
C33   H49   1.079002 S    
O72   H70   1.013445 S    
C70   H46   1.076100 S    
P10   O34   1.544014 D    
P8    Ba4   3.417843 S    
C61   C77   1.396764 A    
P13   C62   1.863134 S    
C30   C82   1.516563 S    
C11   H7    1.114126 S    
C14   H14   1.110643 S    
P1    C65   1.854026 S    
C83   O54   1.394561 S    
C8    C12   1.535595 S    
C48   C74   1.540392 S    
C96   O107  1.222398 D    
C17   O57   1.401234 S    
C46   C50   1.430094 A    
O64   H64   0.993733 S    
C42   H42   1.076392 S    
O50   H53   1.008618 S    
C92   O87   1.221955 D    
P9    O29   1.757490 S    
C18   H22   1.113531 S    
C25   C85   1.512890 S    
C91   O85   1.224070 D    
