data_mof_unit_38697.cif
_audit_creation_date              2012-12-11T17:06:30-0500
_audit_creation_method            fapswitch 2.2
_symmetry_space_group_name_H-M    P1
_symmetry_Int_Tables_number       1
_space_group_crystal_system       triclinic
_cell_length_a                    6.940806
_cell_length_b                    14.551888
_cell_length_c                    15.964152
_cell_angle_alpha                 90.460824
_cell_angle_beta                  89.979745
_cell_angle_gamma                 90.068534
_cell_volume                      1612.35519061

loop_
_atom_site_label
_atom_site_type_symbol
_atom_type_description
_atom_site_fract_x
_atom_site_fract_y
_atom_site_fract_z
_atom_type_partial_charge
O1    O     O_R   0.494400 0.415450 0.412630 -0.547216
O2    O     O_R   0.823940 0.405730 0.586760 -0.534135
O3    O     O_R   0.994240 0.584550 0.587370 -0.523700
C1    C     C_R   0.654914 0.384250 0.615838 0.808252
O4    O     O_R   0.824110 0.404430 0.413240 -0.537788
O5    O     O_R   0.994420 0.583240 0.412620 -0.512688
C2    C     C_R   0.655325 0.382169 0.384336 0.740137
O6    O     O_R   0.494230 0.416760 0.587380 -0.551212
O7    O     O_3   0.660800 0.558670 0.500000 -0.361671
V1    V     V_3+5 0.935650 0.489120 0.500000 1.604477
O8    O     O_R   0.324140 0.594270 0.413240 -0.544885
C3    C     C_R   0.155054 0.614852 0.383277 0.842260
O9    O     O_R   0.323960 0.595570 0.586760 -0.549075
C4    C     C_R   0.155339 0.616951 0.615967 0.812911
V2    V     V_3+5 0.435660 0.510880 0.500000 1.568356
O10   O     O_3   0.160640 0.441330 0.500000 -0.401145
C5    C     C_3   0.025891 0.675814 0.766483 0.406454
C6    C     C_3   0.196533 0.709105 0.820837 -0.260947
H1    H     H_    0.244757 0.677121 0.880124 0.164843
C7    C     C_3   0.120986 0.808705 0.811009 -0.225206
C8    C     C_3   0.946663 0.774438 0.758168 -0.330395
C9    C     C_3   0.072063 0.784615 0.678802 0.288188
C10   C     C_3   0.242607 0.819694 0.730961 0.689828
C11   C     C_3   0.318877 0.720328 0.739477 -0.290550
C12   C     C_3   0.145839 0.685804 0.686289 -0.127633
H2    H     H_    0.793872 0.795638 0.765220 0.179797
H3    H     H_    0.471424 0.699074 0.731559 0.172435
C13   C     C_R   0.250558 0.819400 0.243112 -0.080772
C14   C     C_R   0.119025 0.808412 0.177432 -0.212341
C15   C     C_R   0.985693 0.733858 0.182516 0.242184
C16   C     C_R   0.993784 0.671752 0.251476 0.387258
C17   C     C_R   0.139973 0.681058 0.313225 -0.211604
C18   C     C_R   0.261801 0.757322 0.308591 -0.057104
C19   C     C_3   0.476186 0.763826 0.313639 0.514175
C20   C     C_3   0.465204 0.831713 0.241345 0.156035
H4    H     H_    0.550398 0.698387 0.297913 0.036085
H5    H     H_    0.532710 0.806297 0.182440 0.119140
C21   C     C_R   0.521318 0.239437 0.677772 -0.221353
C22   C     C_R   0.646040 0.314987 0.683046 -0.264199
C23   C     C_R   0.771665 0.319248 0.752512 0.616387
C24   C     C_R   0.760588 0.253329 0.816895 0.573407
C25   C     C_R   0.624022 0.181281 0.813288 -0.304260
C26   C     C_R   0.511554 0.173798 0.740713 -0.096081
C27   C     C_3   0.300088 0.158654 0.728336 0.868527
C28   C     C_3   0.309108 0.232248 0.660600 0.597952
C29   C     C_R   0.506436 0.318517 0.252460 0.091856
C30   C     C_R   0.647981 0.314544 0.314654 -0.216833
C31   C     C_R   0.788808 0.245437 0.306907 -0.131034
H6    H     H_    0.902390 0.240833 0.353201 0.149385
C32   C     C_R   0.774802 0.175960 0.244966 0.348112
C33   C     C_R   0.623753 0.178788 0.184164 -0.177829
C34   C     C_R   0.495862 0.253171 0.188517 -0.012397
C35   C     C_3   0.280685 0.253714 0.189626 -0.410241
C36   C     C_3   0.292729 0.324915 0.259657 0.502536
H7    H     H_    0.220185 0.186966 0.210219 0.177885
H8    H     H_    0.219053 0.280789 0.130501 0.229938
H9    H     H_    0.235504 0.301481 0.320924 0.047983
O11   O     O_R   0.771650 0.079500 0.908680 -0.527030
O12   O     O_R   0.441690 0.091800 0.082800 -0.537015
O13   O     O_R   0.271460 0.912980 0.083410 -0.539881
C37   C     C_R   0.610482 0.111565 0.113813 0.750594
O14   O     O_R   0.441930 0.090510 0.909280 -0.534564
O15   O     O_R   0.271690 0.911670 0.908660 -0.531813
C38   C     C_R   0.611016 0.112844 0.880973 0.846866
O16   O     O_R   0.771410 0.080810 0.083440 -0.534735
O17   O     O_3   0.605100 0.937580 0.996050 -0.383633
V3    V     V_3+5 0.330220 0.007110 0.996030 1.548990
O18   O     O_R   0.941980 0.900620 0.909250 -0.553945
C39   C     C_R   0.110778 0.878622 0.880499 0.755303
O19   O     O_R   0.941740 0.901920 0.082770 -0.541104
C40   C     C_R   0.110759 0.878057 0.110008 0.721082
V4    V     V_3+5 0.830220 0.985300 0.996000 1.523268
O20   O     O_3   0.105210 0.054870 0.996020 -0.361437
F1    F     F_    0.535310 0.803198 0.388619 -0.612267
O21   O     O_3   0.524875 0.921467 0.262729 -0.614714
H10   H     H_    0.440719 0.945424 0.308256 0.352208
F2    F     F_    0.894786 0.391162 0.761480 -0.592861
F3    F     F_    0.874125 0.263826 0.885559 -0.616178
O22   O     O_3   0.190368 0.185085 0.798353 -0.603035
H11   H     H_    0.130603 0.128507 0.820904 0.325165
F4    F     F_    0.256855 0.071466 0.697885 -0.652570
O23   O     O_3   0.208653 0.312352 0.683319 -0.586892
H12   H     H_    0.173998 0.344449 0.631094 0.341334
O24   O     O_3   0.262862 0.199989 0.579386 -0.643558
H13   H     H_    0.357205 0.151705 0.563285 0.320247
O25   O     O_3   0.912892 0.598850 0.784306 -0.586126
H14   H     H_    0.850334 0.612762 0.838764 0.310699
O26   O     O_3   0.903373 0.103999 0.250258 -0.641787
H15   H     H_    0.842276 0.047888 0.226995 0.317858
F5    F     F_    0.226109 0.410228 0.235258 -0.649235
O27   O     O_3   0.010594 0.823841 0.603792 -0.593238
H16   H     H_    0.970777 0.887277 0.618754 0.351803
F6    F     F_    0.356369 0.894494 0.711622 -0.612331
O28   O     O_3   0.854563 0.716013 0.119323 -0.656725
H17   H     H_    0.908398 0.737613 0.065532 0.289179
O29   O     O_3   0.871112 0.596897 0.256375 -0.621023
H18   H     H_    0.774572 0.598876 0.210863 0.330621

loop_
_geom_bond_atom_site_label_1
_geom_bond_atom_site_label_2
_ccdc_geom_bond_type
C8    H2    S    
O21   H10   S    
C24   C25   A    
C28   O23   S    
C33   C37   S    
C11   H3    S    
C1    O6    A    
C35   C36   S    
C27   C28   S    
C20   O21   S    
O14   V3    S    
C6    C11   S    
C13   C14   A    
C20   H5    S    
C36   F5    S    
O5    C3    A    
C21   C22   A    
V2    O10   S    
C29   C34   A    
C19   C20   S    
C21   C28   S    
O14   C38   A    
O12   V3    S    
O8    V2    S    
O17   V4    S    
O15   C39   A    
O13   V3    S    
O18   C39   A    
C9    C12   S    
C9    O27   S    
C1    C22   S    
O19   C40   A    
V3    O20   S    
O7    V1    S    
C19   H4    S    
C32   O26   S    
C31   C32   A    
O17   V3    S    
C27   O22   S    
C8    C9    S    
C3    C17   S    
O4    V1    S    
C5    C6    S    
C35   H7    S    
O11   C38   A    
O15   V3    S    
O12   C37   A    
C5    O25   S    
C11   C12   S    
C13   C20   S    
C27   F4    S    
O27   H16   S    
O4    C2    A    
O25   H14   S    
C6    H1    S    
O13   C40   A    
C5    C8    S    
C10   F6    S    
C2    C30   S    
O2    C1    A    
C26   C27   S    
C14   C15   A    
C30   C31   A    
C7    C10   S    
O18   V4    S    
O29   H18   S    
C29   C36   S    
C32   C33   A    
O24   H13   S    
O3    C4    A    
C19   F1    S    
O1    V2    S    
C23   C24   A    
C13   C18   A    
O6    V2    S    
O9    V2    S    
C7    C39   S    
C28   O24   S    
C25   C26   A    
O2    V1    S    
C25   C38   S    
C24   F3    S    
C34   C35   S    
C35   H8    S    
C29   C30   A    
C31   H6    S    
C7    C8    S    
O1    C2    A    
C16   C17   A    
V4    O20   S    
O5    V1    S    
O8    C3    A    
O16   V4    S    
C5    C12   S    
C17   C18   A    
O7    V2    S    
C33   C34   A    
C15   O28   S    
O3    V1    S    
V1    O10   S    
O11   V4    S    
C15   C16   A    
C18   C19   S    
C6    C7    S    
C23   F2    S    
C4    C12   S    
O28   H17   S    
C10   C11   S    
O22   H11   S    
C22   C23   A    
C37   O16   A    
C21   C26   A    
O26   H15   S    
O23   H12   S    
C9    C10   S    
O19   V4    S    
O9    C4    A    
C16   O29   S    
C14   C40   S    
C36   H9    S    
