data_mof_unit_42768.cif
_audit_creation_date              2012-12-11T14:01:39-0500
_audit_creation_method            fapswitch 2.2
_symmetry_space_group_name_H-M    P1
_symmetry_Int_Tables_number       1
_space_group_crystal_system       triclinic
_cell_length_a                    19.027815
_cell_length_b                    11.057185
_cell_length_c                    18.818781
_cell_angle_alpha                 90.09259
_cell_angle_beta                  90.959573
_cell_angle_gamma                 89.895687
_cell_volume                      3958.79314108

loop_
_atom_site_label
_atom_site_type_symbol
_atom_type_description
_atom_site_fract_x
_atom_site_fract_y
_atom_site_fract_z
_atom_type_partial_charge
C1    C     C_R   0.272025 0.043959 0.852776 0.567618
C2    C     C_R   0.005067 0.659831 0.964454 -0.152983
C3    C     C_3   0.859724 0.865250 0.890551 -0.294569
C4    C     C_3   0.871911 0.869544 0.810345 -0.387461
C5    C     C_3   0.124342 0.992211 0.070225 -0.207627
C6    C     C_3   0.139629 0.870649 0.108247 -0.298082
C7    C     C_3   0.123217 0.872809 0.187665 -0.393479
C8    C     C_R   0.536764 0.165642 0.014526 -0.160690
C9    C     C_R   0.539010 0.157421 0.941250 -0.138217
C10   C     C_2   0.254906 0.578527 0.922059 -0.137145
C11   C     C_2   0.754490 0.582712 0.080074 -0.112221
C12   C     C_2   0.752545 0.077978 0.920357 -0.134047
C13   C     C_2   0.246560 0.081140 0.078045 -0.135675
C14   C     C_2   0.249090 0.584860 0.076955 -0.069671
C15   C     C_2   0.784177 0.494593 0.937045 -0.079698
C16   C     C_2   0.746693 0.081586 0.075096 -0.088280
C17   C     C_R   0.727308 0.041999 0.146386 0.553399
C18   C     C_2   0.251138 0.087461 0.922928 -0.067642
C19   C     C_2   0.304744 0.535436 0.043697 0.232764
C20   C     C_2   0.720274 0.495148 0.967794 0.233305
C21   C     C_2   0.803460 0.037756 0.041174 0.229870
C22   C     C_2   0.195100 0.041767 0.957083 0.230493
C23   C     C_2   0.311136 0.543416 0.964253 -0.012026
C24   C     C_2   0.715553 0.498267 0.046633 -0.023845
C25   C     C_2   0.808093 0.039611 0.961616 -0.012698
C26   C     C_2   0.190726 0.043877 0.036744 -0.013174
C27   C     C_2   0.486157 0.829165 0.572127 -0.092304
C28   C     C_R   0.792394 0.492578 0.859627 0.602396
C29   C     C_2   0.489742 0.839038 0.415815 -0.105267
C30   C     C_2   0.986112 0.329170 0.572104 -0.093580
C31   C     C_2   0.989705 0.339048 0.415792 -0.106238
C32   C     C_2   0.470957 0.741745 0.452472 -0.164172
C33   C     C_2   0.455764 0.748338 0.527654 -0.148902
C34   C     C_2   0.970891 0.241766 0.452443 -0.163821
C35   C     C_2   0.955702 0.248360 0.527630 -0.149351
C36   C     C_2   0.253813 0.611970 0.569682 -0.099934
C37   C     C_2   0.746690 0.611208 0.429980 -0.089652
C38   C     C_2   0.753830 0.112026 0.569655 -0.099773
C39   C     C_R   0.227809 0.543236 0.147068 0.572758
C40   C     C_2   0.246679 0.111235 0.429987 -0.088043
C41   C     C_2   0.257171 0.602422 0.414689 -0.107576
C42   C     C_2   0.743171 0.601487 0.585003 -0.109069
C43   C     C_2   0.757197 0.102497 0.414649 -0.110208
C44   C     C_2   0.243172 0.101484 0.585000 -0.108592
C45   C     C_R   0.474337 0.821487 0.850701 0.538602
C46   C     C_R   0.559902 0.819077 0.138999 0.564213
C47   C     C_R   0.971505 0.321819 0.853284 0.537550
C48   C     C_R   0.028067 0.321893 0.147055 0.542770
C49   C     C_2   0.218144 0.680663 0.450570 -0.164687
C50   C     C_R   0.538686 0.061222 0.055837 -0.092864
C51   C     C_2   0.782332 0.679372 0.549296 -0.166861
C52   C     C_2   0.718178 0.180758 0.450527 -0.165557
C53   C     C_2   0.282327 0.179380 0.549297 -0.166269
C54   C     C_2   0.229614 0.699672 0.526005 -0.149892
C55   C     C_2   0.771107 0.698465 0.473892 -0.147844
C56   C     C_2   0.729626 0.199732 0.525977 -0.149053
C57   C     C_2   0.271095 0.198490 0.473898 -0.147889
C58   C     C_R   0.262270 0.636116 0.852000 0.547484
C59   C     C_R   0.739257 0.636967 0.148722 0.531200
C60   C     C_R   0.761544 0.134978 0.851028 0.546313
C61   C     C_R   0.538611 0.045630 0.908568 -0.080692
C62   C     C_R   0.238253 0.135683 0.148491 0.554263
C63   C     C_R   0.270890 0.047415 0.649363 0.555133
C64   C     C_R   0.729195 0.047766 0.350522 0.556580
C65   C     C_R   0.770884 0.547433 0.649375 0.563980
C66   C     C_R   0.229179 0.547719 0.350551 0.556886
C67   C     C_R   0.467241 0.823109 0.646211 0.553272
C68   C     C_R   0.528449 0.824527 0.350753 0.570771
C69   C     C_R   0.967218 0.323107 0.646196 0.558419
C70   C     C_R   0.028439 0.324527 0.350746 0.558554
C71   C     C_R   0.261325 0.642060 0.644026 0.552145
C72   C     C_R   0.988409 0.552303 0.073486 -0.083295
C73   C     C_R   0.738805 0.641922 0.355818 0.552644
C74   C     C_R   0.761333 0.142086 0.644012 0.550594
C75   C     C_R   0.238798 0.141945 0.355826 0.552893
C76   C     C_R   0.544868 0.831150 0.062403 -0.002553
C77   C     C_R   0.517373 0.828223 0.915930 -0.000391
C78   C     C_R   0.998322 0.329676 0.074923 -0.000223
C79   C     C_R   0.999738 0.329359 0.926038 0.000819
C80   C     C_R   0.539816 0.943987 0.024129 0.018674
C81   C     C_R   0.532865 0.939175 0.948934 0.022354
C82   C     C_R   0.995916 0.440826 0.037937 0.023152
C83   C     C_R   0.010875 0.551845 0.927734 -0.088375
C84   C     C_R   0.002499 0.440633 0.963090 0.019077
C85   C     C_R   0.528240 0.720891 0.953258 -0.121474
C86   C     C_R   0.542667 0.722374 0.024711 -0.126997
C87   C     C_R   0.001133 0.221018 0.964238 -0.135904
C88   C     C_R   0.995542 0.221254 0.036772 -0.139393
C89   C     C_3   0.376390 0.376820 0.082843 0.023487
C90   C     C_3   0.417856 0.340034 0.149357 -0.321723
C91   C     C_3   0.614746 0.439454 0.915473 0.003263
C92   C     C_3   0.579337 0.456023 0.842465 -0.337955
C93   C     C_3   0.871517 0.884168 0.087932 0.026052
C94   C     C_R   0.995520 0.660058 0.037046 -0.150484
C95   C     C_3   0.912575 0.857756 0.156510 -0.314980
C96   C     C_3   0.127896 0.885803 0.911547 0.025122
C97   C     C_3   0.086834 0.857092 0.843225 -0.313750
C98   C     C_3   0.382287 0.506783 0.934107 -0.210752
C99   C     C_3   0.381295 0.378719 0.901499 -0.307706
C100  C     C_3   0.367599 0.376400 0.821339 -0.384668
C101  C     C_3   0.659302 0.425809 0.083821 -0.234052
C102  C     C_3   0.685554 0.363127 0.152432 -0.267995
C103  C     C_3   0.624083 0.328651 0.199398 -0.404424
C104  C     C_3   0.874632 0.987261 0.928310 -0.211878
Cr1   Cr    Cr6+3 0.230530 0.836340 0.748870 0.993988
Cr2   Cr    Cr6+3 0.614360 0.677860 0.250770 0.998900
Cr3   Cr    Cr6+3 0.885640 0.177860 0.749230 0.981497
Cr4   Cr    Cr6+3 0.114360 0.177860 0.250770 0.990482
Cr5   Cr    Cr6+3 0.769470 0.836340 0.251130 0.983455
Cr6   Cr    Cr6+3 0.730530 0.336340 0.748870 0.991156
Cr7   Cr    Cr6+3 0.269470 0.336340 0.251130 1.003446
Cr8   Cr    Cr6+3 0.387420 0.989430 0.750820 1.001313
Cr9   Cr    Cr6+3 0.612580 0.989430 0.249180 0.982437
Cr10  Cr    Cr6+3 0.887420 0.489430 0.750820 0.987594
Cr11  Cr    Cr6+3 0.112580 0.489430 0.249180 0.996086
Cr12  Cr    Cr6+3 0.385640 0.677860 0.749230 0.977636
H1    H     H_    0.519867 0.634110 0.928660 0.137429
H2    H     H_    0.788493 0.785085 0.453336 0.151867
H3    H     H_    0.712314 0.286412 0.546820 0.153490
H4    H     H_    0.288480 0.285112 0.453343 0.151313
H5    H     H_    0.305287 0.565128 0.437720 0.095734
H6    H     H_    0.695256 0.564038 0.561754 0.103015
H7    H     H_    0.805304 0.065184 0.437686 0.095649
H8    H     H_    0.195253 0.064043 0.561755 0.103878
H9    H     H_    0.271749 0.524674 0.550635 0.083139
H10   H     H_    0.728692 0.523996 0.448766 0.084988
H11   H     H_    0.771785 0.024745 0.550601 0.083181
H12   H     H_    0.548098 0.636142 0.051051 0.138918
H13   H     H_    0.228684 0.024022 0.448772 0.085500
H14   H     H_    0.536062 0.079028 0.111579 0.162806
H15   H     H_    0.542262 0.043409 0.851276 0.129557
H16   H     H_    0.975877 0.557847 0.129184 0.126608
H17   H     H_    0.023447 0.557095 0.872061 0.130870
H18   H     H_    0.995121 0.744098 0.065431 0.097031
H19   H     H_    0.006395 0.743744 0.936241 0.095311
H20   H     H_    0.533610 0.253457 0.039646 0.087668
H21   H     H_    0.538850 0.237170 0.908910 0.093008
H22   H     H_    0.210893 0.640580 0.049092 0.035916
H23   H     H_    0.002751 0.134268 0.937785 0.156567
H24   H     H_    0.831817 0.485607 0.969286 0.042353
H25   H     H_    0.706067 0.132383 0.047626 0.053532
H26   H     H_    0.290811 0.139854 0.950460 0.033787
H27   H     H_    0.202517 0.584628 0.943275 0.073197
H28   H     H_    0.795464 0.628701 0.050973 0.075835
H29   H     H_    0.700670 0.090215 0.941656 0.087283
H30   H     H_    0.298233 0.093451 0.056284 0.069723
H31   H     H_    0.471504 0.652193 0.428604 0.151780
H32   H     H_    0.421968 0.677401 0.547752 0.156416
H33   H     H_    0.971425 0.152218 0.428570 0.151250
H34   H     H_    0.993476 0.134714 0.063299 0.157482
H35   H     H_    0.921902 0.177433 0.547734 0.155946
H36   H     H_    0.485241 0.929229 0.438325 0.109183
H37   H     H_    0.519715 0.901566 0.553793 0.094872
H38   H     H_    0.985211 0.429239 0.438303 0.109534
H39   H     H_    0.019675 0.401562 0.553767 0.095115
H40   H     H_    0.410454 0.352553 0.038278 0.100986
H41   H     H_    0.327499 0.323271 0.076659 0.158186
H42   H     H_    0.388834 0.364187 0.197990 0.193722
H43   H     H_    0.427748 0.241009 0.148785 0.091805
H44   H     H_    0.469191 0.387707 0.150797 0.115648
H45   H     H_    0.172362 0.723841 0.426312 0.150666
H46   H     H_    0.573512 0.442885 0.956520 0.098174
H47   H     H_    0.640234 0.348525 0.916766 0.143770
H48   H     H_    0.574293 0.553328 0.828733 0.183317
H49   H     H_    0.610077 0.410476 0.800618 0.166278
H50   H     H_    0.526138 0.415701 0.841889 0.059956
H51   H     H_    0.901179 0.846542 0.043672 0.095644
H52   H     H_    0.820883 0.835871 0.085384 0.172532
H53   H     H_    0.886146 0.896838 0.203288 0.189713
H54   H     H_    0.918369 0.758824 0.164370 0.096272
H55   H     H_    0.965432 0.898855 0.153186 0.109732
H56   H     H_    0.827920 0.722644 0.573785 0.150801
H57   H     H_    0.098321 0.849620 0.956088 0.094746
H58   H     H_    0.178700 0.837454 0.914624 0.172546
H59   H     H_    0.113205 0.894964 0.796175 0.189854
H60   H     H_    0.081554 0.757889 0.836193 0.096800
H61   H     H_    0.033643 0.897747 0.846077 0.110504
H62   H     H_    0.401934 0.441965 0.793944 0.158483
H63   H     H_    0.379728 0.285226 0.800214 0.155842
H64   H     H_    0.311507 0.396197 0.809158 0.168868
H65   H     H_    0.341601 0.321934 0.927924 0.157914
H66   H     H_    0.433071 0.336087 0.911851 0.129933
H67   H     H_    0.672413 0.223969 0.426251 0.149206
H68   H     H_    0.404631 0.572683 0.898567 0.202703
H69   H     H_    0.423716 0.510875 0.975876 0.133539
H70   H     H_    0.586524 0.269794 0.169826 0.141887
H71   H     H_    0.643969 0.279795 0.247127 0.169874
H72   H     H_    0.596085 0.411210 0.217302 0.143844
H73   H     H_    0.722258 0.418515 0.184782 0.171553
H74   H     H_    0.716265 0.282766 0.138266 0.161378
H75   H     H_    0.614137 0.485616 0.095150 0.164152
H76   H     H_    0.640068 0.353542 0.047792 0.110402
H77   H     H_    0.919403 0.922823 0.797661 0.131842
H78   H     H_    0.327921 0.222639 0.573782 0.151167
H79   H     H_    0.879486 0.776800 0.789394 0.166444
H80   H     H_    0.825555 0.909178 0.782415 0.175523
H81   H     H_    0.805122 0.833857 0.899765 0.181048
H82   H     H_    0.894274 0.794945 0.913900 0.146066
H83   H     H_    0.901864 0.051308 0.894321 0.196501
H84   H     H_    0.917619 0.975768 0.967499 0.124819
H85   H     H_    0.076111 0.928298 0.198849 0.134363
H86   H     H_    0.113323 0.779621 0.206703 0.156915
H87   H     H_    0.168634 0.909262 0.218556 0.173272
H88   H     H_    0.195426 0.843000 0.102299 0.164083
H89   H     H_    0.212317 0.786370 0.546837 0.153705
H90   H     H_    0.108153 0.798596 0.082398 0.144189
H91   H     H_    0.097620 0.057144 0.104120 0.199088
H92   H     H_    0.081102 0.980612 0.031314 0.124797
O1    O     O_R   0.215090 0.709860 0.828130 -0.549174
O2    O     O_R   0.543740 0.718170 0.330000 -0.509505
O3    O     O_R   0.956260 0.218170 0.670000 -0.513798
O4    O     O_R   0.043740 0.218170 0.330000 -0.513663
O5    O     O_R   0.320940 0.626760 0.674370 -0.507285
O6    O     O_R   0.679060 0.626760 0.325630 -0.498722
O7    O     O_R   0.820940 0.126760 0.674370 -0.507148
O8    O     O_R   0.179060 0.126760 0.325630 -0.501428
O9    O     O_3   0.334530 0.834540 0.749640 -0.241833
O10   O     O_3   0.665470 0.834540 0.250360 -0.260894
O11   O     O_3   0.834530 0.334540 0.749640 -0.269563
O12   O     O_R   0.784910 0.709860 0.171870 -0.555350
O13   O     O_3   0.165470 0.334540 0.250360 -0.244287
O14   O     O_R   0.236990 0.958390 0.823710 -0.483928
O15   O     O_R   0.763010 0.958390 0.176290 -0.482284
O16   O     O_R   0.736990 0.458390 0.823710 -0.466738
O17   O     O_R   0.263010 0.458390 0.176290 -0.469227
O18   O     O_R   0.332380 0.074750 0.830850 -0.534412
O19   O     O_R   0.667620 0.074750 0.169150 -0.555170
O20   O     O_R   0.832380 0.574750 0.830850 -0.531868
O21   O     O_R   0.167620 0.574750 0.169150 -0.538237
O22   O     O_R   0.445800 0.917770 0.825070 -0.500732
O23   O     O_R   0.715090 0.209860 0.828130 -0.544175
O24   O     O_R   0.554200 0.917770 0.174930 -0.523298
O25   O     O_R   0.945800 0.417770 0.825070 -0.528931
O26   O     O_R   0.054200 0.417770 0.174930 -0.508584
O27   O     O_R   0.456410 0.716580 0.829970 -0.557804
O28   O     O_R   0.543590 0.716580 0.170030 -0.509285
O29   O     O_R   0.956410 0.216580 0.829970 -0.533402
O30   O     O_R   0.043590 0.216580 0.170030 -0.539367
O31   O     O_R   0.321080 0.625290 0.822650 -0.504592
O32   O     O_R   0.678920 0.625290 0.177350 -0.509567
O33   O     O_R   0.821080 0.125290 0.822650 -0.508161
O34   O     O_R   0.284910 0.209860 0.171870 -0.544475
O35   O     O_R   0.178920 0.125290 0.177350 -0.504242
O36   O     O_R   0.214930 0.711450 0.668160 -0.516830
O37   O     O_R   0.785070 0.711450 0.331840 -0.519420
O38   O     O_R   0.714930 0.211450 0.668160 -0.516389
O39   O     O_R   0.285070 0.211450 0.331840 -0.520045
O40   O     O_R   0.236850 0.959870 0.675420 -0.511338
O41   O     O_R   0.763150 0.959870 0.324580 -0.508691
O42   O     O_R   0.736850 0.459870 0.675420 -0.508109
O43   O     O_R   0.263150 0.459870 0.324580 -0.510403
O44   O     O_R   0.332230 0.076350 0.670880 -0.517729
O45   O     O_R   0.445660 0.919250 0.676780 -0.496563
O46   O     O_R   0.667770 0.076350 0.329120 -0.522450
O47   O     O_R   0.832230 0.576350 0.670880 -0.516191
O48   O     O_R   0.167770 0.576350 0.329120 -0.519054
O49   O     O_3   0.362967 0.502688 0.085699 -0.546895
O50   O     O_3   0.662604 0.534723 0.927900 -0.537088
O51   O     O_3   0.863153 0.010438 0.081564 -0.566111
O52   O     O_3   0.135705 0.012360 0.916758 -0.564957
O53   O     O_R   0.554340 0.919250 0.323220 -0.492513
O54   O     O_R   0.945660 0.419250 0.676780 -0.493932
O55   O     O_R   0.054340 0.419250 0.323220 -0.500428
O56   O     O_R   0.456260 0.718170 0.670000 -0.520085

loop_
_geom_bond_atom_site_label_1
_geom_bond_atom_site_label_2
_ccdc_geom_bond_type
C3    C104  S    
C27   H37   S    
C4    H79   S    
C87   C88   A    
C101  C102  S    
C97   H59   S    
C8    C50   A    
C74   O7    A    
C8    H20   S    
C60   O23   A    
C70   O4    A    
Cr4   O30   S    
C36   H9    S    
C52   H67   S    
C47   C79   S    
Cr10  O11   S    
C40   H13   S    
C101  H76   S    
C68   O2    A    
C28   O20   A    
Cr8   O44   S    
C46   C76   S    
C38   H11   S    
Cr8   O45   S    
Cr8   O22   S    
C62   O35   A    
C32   H31   S    
C85   C86   A    
Cr6   O42   S    
C63   O40   A    
Cr3   O29   S    
Cr12  O31   S    
Cr5   O41   S    
C1    C18   S    
C16   C21   D    
Cr2   O28   S    
C30   C35   D    
C9    C61   A    
C51   H56   S    
C10   C58   S    
C71   O36   A    
C39   O21   A    
C29   C32   D    
C59   O12   A    
C79   C84   A    
C74   O38   A    
C43   C52   D    
Cr9   O19   S    
C73   O37   A    
C41   H5    S    
Cr1   O14   S    
Cr2   O2    S    
C65   O47   A    
C11   C24   D    
C3    H82   S    
Cr1   O1    S    
Cr12  O27   S    
C34   C35   S    
Cr7   O13   S    
C48   C78   S    
C90   H43   S    
C48   O30   A    
C99   H66   S    
C7    H87   S    
Cr5   O10   S    
C50   H14   S    
C102  H74   S    
C14   C39   S    
C93   O51   S    
C52   C56   S    
C9    H21   S    
C44   C53   D    
C41   C49   D    
C31   C70   S    
Cr11  O48   S    
C14   H22   S    
C93   H52   S    
C8    C9    A    
C42   C65   S    
Cr8   O9    S    
C91   H46   S    
C62   O34   A    
C69   O3    A    
C11   H28   S    
Cr1   O36   S    
C49   H45   S    
Cr5   O15   S    
C36   C71   S    
C96   O52   S    
C42   C51   D    
C72   C94   A    
Cr6   O38   S    
C63   O44   A    
C37   H10   S    
C100  H62   S    
C93   C95   S    
C97   H60   S    
Cr2   O32   S    
C75   O8    A    
C90   H44   S    
C53   H78   S    
C104  H84   S    
C91   H47   S    
C2    C83   A    
C4    H77   S    
C103  H70   S    
C35   H35   S    
C13   H30   S    
C11   C59   S    
C92   H49   S    
C79   C87   A    
C68   O53   A    
Cr4   O4    S    
C34   H33   S    
C43   C64   S    
C72   H16   S    
Cr10  O25   S    
C64   O46   A    
C67   O45   A    
C44   C63   S    
C70   O55   A    
Cr2   O6    S    
C46   O24   A    
Cr8   O18   S    
C96   H57   S    
C13   C62   S    
C86   H12   S    
Cr7   O17   S    
C20   C24   S    
C2    C94   A    
C103  H71   S    
C91   C92   S    
C53   C57   S    
C21   O51   S    
C89   H40   S    
C17   O15   A    
C22   O52   S    
C71   O5    A    
Cr10  O20   S    
C44   H8    S    
C27   C33   D    
Cr1   O9    S    
C64   O41   A    
C15   C20   D    
C46   O28   A    
C12   H29   S    
C90   H42   S    
C19   C23   S    
Cr1   O40   S    
C6    H88   S    
Cr12  O56   S    
C33   H32   S    
Cr11  O21   S    
C5    H91   S    
C29   C68   S    
C78   C82   A    
C97   H61   S    
C83   C84   A    
C1    O18   A    
C77   C81   A    
C28   O16   A    
C54   H89   S    
C30   C69   S    
C96   C97   S    
C60   O33   A    
C31   C34   D    
C89   O49   S    
Cr5   O37   S    
Cr9   O53   S    
C94   H18   S    
C85   H1    S    
Cr6   O11   S    
C95   H53   S    
C69   O54   A    
C96   H58   S    
C57   H4    S    
C67   O56   A    
C12   C60   S    
C30   H39   S    
Cr2   O10   S    
C66   O48   A    
Cr7   O34   S    
C82   C84   A    
C56   H3    S    
Cr3   O11   S    
C13   C26   D    
C76   C80   A    
C45   O22   A    
C58   O31   A    
C100  H64   S    
C43   H7    S    
Cr9   O10   S    
Cr10  O47   S    
C31   H38   S    
C75   O39   A    
Cr6   O16   S    
C42   H6    S    
Cr9   O24   S    
C15   H24   S    
C38   C74   S    
C58   O1    A    
C78   C88   A    
C102  H73   S    
C4    H80   S    
C21   C25   S    
C66   O43   A    
C18   H26   S    
C40   C57   D    
C49   C54   S    
C47   O29   A    
C18   C22   D    
C104  H83   S    
C88   H34   S    
C14   C19   D    
Cr11  O13   S    
Cr3   O33   S    
C103  H72   S    
C45   O27   A    
C39   O17   A    
C87   H23   S    
C80   C81   A    
C101  H75   S    
Cr3   O7    S    
C50   C80   A    
C19   O49   S    
Cr11  O55   S    
C40   C75   S    
C25   C104  S    
C89   H41   S    
C41   C66   S    
C10   C23   D    
C98   H69   S    
C38   C56   D    
C37   C73   S    
C2    H19   S    
C99   C100  S    
C12   C25   D    
C24   C101  S    
C32   C33   S    
C16   H25   S    
Cr10  O54   S    
C7    H85   S    
Cr5   O12   S    
C61   C81   A    
Cr12  O5    S    
C5    H92   S    
Cr4   O13   S    
C17   O19   A    
C92   H48   S    
C15   C28   S    
C5    C6    S    
C95   H55   S    
Cr9   O46   S    
Cr4   O35   S    
C3    H81   S    
C6    C7    S    
C51   C55   S    
C10   H27   S    
Cr4   O8    S    
C98   H68   S    
C102  C103  S    
C73   O6    A    
C95   H54   S    
C48   O26   A    
C6    H90   S    
C83   H17   S    
C27   C67   S    
Cr6   O23   S    
C61   H15   S    
C77   C85   A    
C5    C26   S    
C37   C55   D    
C92   H50   S    
C7    H86   S    
C23   C98   S    
Cr3   O3    S    
C93   H51   S    
Cr7   O39   S    
C98   C99   S    
C22   C26   S    
C76   C86   A    
C59   O32   A    
Cr12  O9    S    
C91   O50   S    
C1    O14   A    
C99   H65   S    
C45   C77   S    
C36   C54   D    
C47   O25   A    
C89   C90   S    
C65   O42   A    
C100  H63   S    
Cr7   O43   S    
Cr11  O26   S    
C72   C82   A    
C3    C4    S    
C16   C17   S    
C20   O50   S    
C29   H36   S    
C55   H2    S    
