data_mof_unit_26715.cif
_audit_creation_date              2012-12-10T18:59:14-0500
_audit_creation_method            fapswitch 2.2
_symmetry_space_group_name_H-M    P1
_symmetry_Int_Tables_number       1
_space_group_crystal_system       triclinic
_cell_length_a                    10.848962
_cell_length_b                    10.901692
_cell_length_c                    9.610128
_cell_angle_alpha                 89.504405
_cell_angle_beta                  89.315351
_cell_angle_gamma                 91.251408
_cell_volume                      1136.21210848

loop_
_atom_site_label
_atom_site_type_symbol
_atom_type_description
_atom_site_fract_x
_atom_site_fract_y
_atom_site_fract_z
_atom_type_partial_charge
C1    C     C_R   0.502787 0.262924 0.500035 0.803547
C2    C     C_R   0.061501 0.582180 0.602465 -0.007786
C3    C     C_R   0.127637 0.506141 0.508480 -0.071500
C4    C     C_R   0.063239 0.434872 0.411804 -0.195988
C5    C     C_R   0.935832 0.435276 0.408296 -0.247301
C6    C     C_R   0.871262 0.515511 0.492836 -0.084285
C7    C     C_R   0.454769 0.063819 0.612104 0.089387
C8    C     C_R   0.500686 0.129797 0.497426 -0.165164
C9    C     C_R   0.535789 0.066235 0.376171 0.235488
C10   C     C_R   0.526068 0.937818 0.375833 -0.278432
C11   C     C_R   0.491717 0.871586 0.496676 -0.147825
C12   C     C_R   0.262245 0.502991 0.502164 0.790033
C13   C     C_R   0.452381 0.936962 0.612576 0.122331
C14   C     C_3   0.494806 0.931741 0.759394 -0.485635
C15   C     C_3   0.496409 0.070386 0.759173 -0.452005
C16   C     C_R   0.606484 0.518297 0.071315 0.186722
C17   C     C_R   0.398424 0.461513 0.073856 0.337983
C18   C     C_R   0.397641 0.467499 0.925898 -0.165701
C19   C     C_R   0.607914 0.511644 0.924776 0.195870
C20   C     C_3   0.702485 0.611753 0.909891 -0.513866
C21   C     C_3   0.691855 0.628127 0.066821 0.035401
C22   C     C_R   0.497858 0.737706 0.499431 0.844774
C23   C     C_R   0.737355 0.504555 0.498336 0.838682
C24   C     C_R   0.113444 0.642081 0.719362 -0.225381
C25   C     C_R   0.043193 0.723775 0.799162 0.295196
C26   C     C_R   0.930185 0.761497 0.748139 -0.301614
C27   C     C_R   0.878975 0.704408 0.632267 0.221387
C28   C     C_R   0.935439 0.599574 0.577340 0.071837
Cu1   Cu    Cu3+1 0.499990 0.499980 0.640670 0.934009
Cu2   Cu    Cu3+1 0.500010 0.500020 0.359330 0.980744
H1    H     H_    0.111468 0.374022 0.343249 0.164985
H2    H     H_    0.587533 0.892263 0.771350 0.193425
H3    H     H_    0.425242 0.109538 0.829070 0.195721
H4    H     H_    0.590557 0.111591 0.769206 0.201701
H5    H     H_    0.314764 0.441353 0.871291 0.155060
H6    H     H_    0.792721 0.574206 0.877798 0.178130
H7    H     H_    0.672312 0.690306 0.845416 0.217596
H8    H     H_    0.779656 0.613363 0.122475 0.127530
H9    H     H_    0.203886 0.621646 0.755393 0.181242
H10   H     H_    0.882422 0.835874 0.797940 0.129588
H11   H     H_    0.887521 0.372449 0.339997 0.144507
H12   H     H_    0.558446 0.889937 0.286376 0.210389
H13   H     H_    0.422493 0.892715 0.828519 0.199012
N1    N     N_R   0.500790 0.500930 0.147930 -0.194611
N2    N     N_R   0.500790 0.500890 0.852020 -0.198078
O1    O     O_R   0.500000 0.319640 0.618810 -0.579927
O2    O     O_R   0.500010 0.319680 0.381230 -0.549666
O3    O     O_R   0.319640 0.499980 0.618820 -0.611500
O4    O     O_R   0.319650 0.500020 0.381230 -0.544694
O5    O     O_R   0.499990 0.680320 0.618770 -0.585613
O6    O     O_R   0.500000 0.680360 0.381190 -0.563716
O7    O     O_R   0.680350 0.499980 0.618770 -0.576361
O8    O     O_R   0.680360 0.500020 0.381180 -0.587903
N3    N     N_2   0.292840 0.409873 0.141993 -0.379391
H14   H     H_    0.212284 0.449073 0.109421 0.234665
C29   C     C_3   0.285174 0.277297 0.135536 -0.714059
H15   H     H_    0.283645 0.246090 0.025722 0.200451
H16   H     H_    0.199585 0.242813 0.188097 0.206979
H17   H     H_    0.364416 0.237017 0.189235 0.279769
N4    N     N_2   0.634332 0.743168 0.103813 -0.391535
H18   H     H_    0.693544 0.817462 0.088900 0.233499
C30   C     C_3   0.508718 0.765693 0.059798 -0.674148
H19   H     H_    0.441054 0.723320 0.133614 0.260675
H20   H     H_    0.491015 0.730258 0.954492 0.224869
H21   H     H_    0.491322 0.864862 0.058071 0.199639
N5    N     N_2   0.082624 0.765411 0.932064 -0.425525
H22   H     H_    0.017028 0.811756 0.988338 0.246445
C31   C     C_3   0.203230 0.823208 0.937447 -0.740089
H23   H     H_    0.221110 0.855544 0.044775 0.228208
H24   H     H_    0.208299 0.903357 0.865197 0.232911
H25   H     H_    0.274802 0.756219 0.910899 0.229732
N6    N     N_2   0.784740 0.764018 0.557495 -0.426770
H26   H     H_    0.737138 0.826894 0.615328 0.241955
C32   C     C_3   0.828530 0.815875 0.426005 -0.688894
H27   H     H_    0.753813 0.864263 0.373563 0.226560
H28   H     H_    0.860347 0.742791 0.355185 0.234198
H29   H     H_    0.905276 0.883038 0.443492 0.221121
N7    N     N_2   0.598999 0.130586 0.265709 -0.407623
H30   H     H_    0.688212 0.158511 0.286783 0.241124
C33   C     C_3   0.574838 0.098122 0.123115 -0.722326
H31   H     H_    0.590196 0.180425 0.055782 0.233288
H32   H     H_    0.477646 0.066547 0.110968 0.229234
H33   H     H_    0.639216 0.026575 0.088805 0.217312

loop_
_geom_bond_atom_site_label_1
_geom_bond_atom_site_label_2
_ccdc_geom_bond_type
N5    C31   S    
Cu2   O6    S    
C16   C21   S    
C10   H12   S    
C1    C8    S    
C19   C20   S    
C12   O3    A    
C12   O4    A    
C7    C8    A    
C26   C27   A    
Cu1   Cu2   S    
C32   H28   S    
C16   C19   A    
C5    C6    A    
N7    C33   S    
C1    O1    A    
C24   H9    S    
C29   H15   S    
N4    C30   S    
C30   H20   S    
C3    C12   S    
C31   H23   S    
C6    C28   A    
C21   H8    S    
C8    C9    A    
C32   H29   S    
C18   H5    S    
C16   N1    A    
C15   H4    S    
C22   O5    A    
C7    C15   S    
N5    H22   S    
C13   C14   S    
N6    H26   S    
Cu2   N1    S    
C33   H33   S    
C23   O8    A    
Cu1   O5    S    
Cu2   O8    S    
N3    C29   S    
C32   H27   S    
Cu1   O3    S    
Cu2   O2    S    
C24   C25   A    
C21   N4    S    
N6    C32   S    
N7    H30   S    
C1    O2    A    
C25   C26   A    
Cu1   N2    S    
N4    H18   S    
C30   H19   S    
C17   C18   A    
C4    C5    A    
C33   H32   S    
Cu2   O4    S    
C2    C24   A    
C3    C4    A    
C18   N2    A    
C9    C10   A    
C5    H11   S    
N3    H14   S    
C30   H21   S    
C25   N5    S    
C14   H2    S    
C33   H31   S    
C19   N2    A    
C11   C22   S    
C29   H17   S    
Cu1   O1    S    
C2    C3    A    
C17   N1    A    
C20   H7    S    
C11   C13   A    
C26   H10   S    
C23   O7    A    
C31   H25   S    
C6    C23   S    
C29   H16   S    
C9    N7    S    
C4    H1    S    
C10   C11   A    
C20   H6    S    
C7    C13   A    
C20   C21   S    
C31   H24   S    
C27   C28   A    
C14   C15   S    
C14   H13   S    
C2    C28   A    
C17   N3    S    
C15   H3    S    
C27   N6    S    
C22   O6    A    
Cu1   O7    S    
