data_mof_unit_54325.cif
_audit_creation_date              2012-12-11T20:37:09-0500
_audit_creation_method            fapswitch 2.2
_symmetry_space_group_name_H-M    P1
_symmetry_Int_Tables_number       1
_space_group_crystal_system       triclinic
_cell_length_a                    8.255991
_cell_length_b                    18.816759
_cell_length_c                    22.861202
_cell_angle_alpha                 97.117471
_cell_angle_beta                  89.703969
_cell_angle_gamma                 93.555119
_cell_volume                      3517.35002091

loop_
_atom_site_label
_atom_site_type_symbol
_atom_type_description
_atom_site_fract_x
_atom_site_fract_y
_atom_site_fract_z
_atom_type_partial_charge
Ba1   Ba    Ba6+2 0.849480 0.533290 0.473010 1.653713
Ba2   Ba    Ba6+2 0.340340 0.466770 0.527000 1.645417
C1    C     C_3   0.628164 0.795575 0.317350 0.289013
C2    C     C_3   0.606535 0.721049 0.337760 0.430578
C3    C     C_3   0.507786 0.362029 0.347294 0.295600
C4    C     C_3   0.501220 0.342805 0.280730 -0.360790
C5    C     C_3   0.098426 0.315220 0.685468 0.337679
C6    C     C_3   0.124852 0.295778 0.747182 -0.304621
C7    C     C_3   0.555503 0.275865 0.658498 0.355529
C8    C     C_3   0.520834 0.203224 0.680123 -0.357451
C9    C     C_R   0.339164 0.521148 0.332971 -0.297713
C10   C     C_R   0.081762 0.562235 0.942080 -0.028653
C11   C     C_R   0.037570 0.557571 0.881640 0.595339
C12   C     C_3   0.078121 0.710858 0.319161 0.335902
C13   C     C_R   0.969677 0.431343 0.879447 0.571916
C14   C     C_R   0.014762 0.434178 0.939287 -0.016486
C15   C     C_R   0.070535 0.499998 0.970838 -0.052656
C16   C     C_R   0.136188 0.627783 0.974661 -0.073802
C17   C     C_R   0.178137 0.631393 0.034332 -0.078145
C18   C     C_R   0.168135 0.569492 0.063469 -0.018483
C19   C     C_R   0.114631 0.503520 0.031464 -0.052592
C20   C     C_R   0.005182 0.372215 0.968290 -0.074672
C21   C     C_R   0.050242 0.375497 0.027427 -0.075582
C22   C     C_R   0.105096 0.440965 0.059818 -0.026151
C23   C     C_3   0.046549 0.750001 0.266360 -0.376105
C24   C     C_R   0.151355 0.445030 0.119756 0.588260
C25   C     C_R   0.209857 0.572138 0.123830 0.585017
C26   C     C_2   0.795632 0.452418 0.768285 -0.082619
C27   C     C_3   0.771484 0.429888 0.703106 -0.049597
C28   C     C_1   0.002765 0.513042 0.686284 0.028344
C29   C     C_2   0.047468 0.517918 0.742939 -0.105659
C30   C     C_2   0.936735 0.487765 0.788045 0.198646
C31   C     C_R   0.401570 0.545251 0.233342 -0.108047
C32   C     C_R   0.446142 0.548574 0.292851 -0.022733
C33   C     C_R   0.190786 0.486960 0.314467 0.032057
C34   C     C_3   0.194256 0.683104 0.597816 0.310780
C35   C     C_R   0.144469 0.483599 0.254831 -0.086608
C36   C     C_R   0.248602 0.513641 0.213530 0.214967
C37   C     C_2   0.870413 0.475560 0.665009 -0.290563
C38   C     C_2   0.409014 0.698226 0.474132 -0.246200
C39   C     C_3   0.322939 0.744909 0.436929 -0.041059
C40   C     C_2   0.362575 0.824230 0.453767 -0.132069
C41   C     C_2   0.491033 0.847772 0.489171 -0.076206
C42   C     C_2   0.581587 0.793832 0.516642 -0.136198
C43   C     C_1   0.531544 0.724969 0.508801 0.060879
C44   C     C_R   0.650279 0.066845 0.509990 0.461306
C45   C     C_3   0.211978 0.764263 0.612536 -0.362466
C46   C     C_R   0.545453 0.925421 0.498300 0.461495
C47   C     C_R   0.614431 0.192109 0.488125 -0.124630
C48   C     C_R   0.665009 0.264670 0.491578 0.036945
C49   C     C_R   0.904406 0.243712 0.545623 0.014258
C50   C     C_R   0.854908 0.170417 0.542660 -0.139900
C51   C     C_R   0.706857 0.144066 0.514606 -0.066689
C52   C     C_R   0.804985 0.290603 0.522650 -0.279370
C53   C     C_3   0.001161 0.315433 0.400947 0.306526
C54   C     C_3   0.986908 0.234406 0.384620 -0.374915
C55   C     C_3   0.684558 0.622326 0.650648 0.301267
C56   C     C_3   0.682489 0.639599 0.717404 -0.351596
H1    H     H_    0.648332 0.725467 0.384288 -0.006561
H2    H     H_    0.303096 0.779241 0.648208 0.123083
H3    H     H_    0.252195 0.789301 0.573104 0.077377
H4    H     H_    0.093497 0.785082 0.627165 0.137655
H5    H     H_    0.881183 0.334355 0.414267 0.002872
H6    H     H_    0.087741 0.328547 0.438188 0.073012
H7    H     H_    0.895361 0.219707 0.349053 0.134243
H8    H     H_    0.949222 0.207470 0.423328 0.065949
H9    H     H_    0.106067 0.215128 0.369109 0.130350
H10   H     H_    0.809306 0.611136 0.636347 0.006974
H11   H     H_    0.601512 0.574208 0.638139 0.075720
H12   H     H_    0.748657 0.820019 0.332803 0.074441
H13   H     H_    0.769177 0.685992 0.731508 0.135156
H14   H     H_    0.717807 0.592741 0.738283 0.071710
H15   H     H_    0.558547 0.652801 0.732455 0.133797
H16   H     H_    0.476045 0.703615 0.335328 -0.173114
H17   H     H_    0.537274 0.831439 0.339118 -0.056138
H18   H     H_    0.384029 0.374084 0.363063 0.020157
H19   H     H_    0.591658 0.410439 0.357498 0.058443
H20   H     H_    0.416356 0.295084 0.268990 0.139694
H21   H     H_    0.458217 0.388350 0.259773 0.071434
H22   H     H_    0.624010 0.330855 0.263613 0.130421
H23   H     H_    0.107556 0.723831 0.226834 0.119136
H24   H     H_    0.171221 0.365977 0.681003 0.090214
H25   H     H_    0.967682 0.323169 0.680029 -0.054718
H26   H     H_    0.240655 0.269552 0.750054 0.146457
H27   H     H_    0.131367 0.345327 0.778934 0.121913
H28   H     H_    0.023761 0.258665 0.759259 0.121579
H29   H     H_    0.689575 0.286355 0.658308 -0.064607
H30   H     H_    0.508330 0.272827 0.612752 0.076075
H31   H     H_    0.585722 0.161786 0.651937 0.077914
H32   H     H_    0.388941 0.187864 0.677848 0.152378
H33   H     H_    0.023972 0.654977 0.310795 0.087629
H34   H     H_    0.563316 0.205225 0.726347 0.121786
H35   H     H_    0.041298 0.326404 0.047795 0.124896
H36   H     H_    0.963127 0.320641 0.945237 0.123749
H37   H     H_    0.218964 0.683019 0.057598 0.110202
H38   H     H_    0.486068 0.566434 0.202520 0.104471
H39   H     H_    0.146178 0.676744 0.954131 0.122551
H40   H     H_    0.165577 0.542705 0.756698 0.123842
H41   H     H_    0.709622 0.431290 0.798812 0.116517
H42   H     H_    0.028517 0.457361 0.240573 0.120198
H43   H     H_    0.375305 0.523173 0.378596 0.079098
H44   H     H_    0.211440 0.709173 0.322881 -0.066369
H45   H     H_    0.848041 0.465527 0.617891 0.082028
H46   H     H_    0.295562 0.861390 0.432042 0.102911
H47   H     H_    0.687342 0.811530 0.543900 0.109589
H48   H     H_    0.504797 0.173320 0.463722 0.107641
H49   H     H_    0.932496 0.134404 0.560974 0.106396
H50   H     H_    0.383070 0.640701 0.464920 0.071462
H51   H     H_    0.843396 0.346904 0.524760 0.060611
H52   H     H_    0.915422 0.748363 0.256671 0.196827
H53   H     H_    0.094081 0.806816 0.275189 0.104194
H54   H     H_    0.313766 0.662982 0.585271 -0.001663
H55   H     H_    0.108658 0.669651 0.560339 0.086233
N1    N     N_R   0.982452 0.492475 0.850576 -0.423551
N2    N     N_R   0.201786 0.510277 0.151549 -0.422204
N3    N     N_R   0.509495 0.043460 0.481368 -0.242705
N4    N     N_R   0.458415 0.974459 0.475573 -0.243210
N5    N     N_R   0.685855 0.948696 0.527437 -0.238623
N6    N     N_R   0.737208 0.017950 0.533199 -0.240639
O1    O     O_2   0.898140 0.461210 0.359840 -0.456981
O2    O     O_3   0.635058 0.681613 0.625562 -0.632255
O3    O     O_3   0.009534 0.746990 0.370149 -0.589322
O4    O     O_2   0.291560 0.538810 0.640200 -0.459279
O5    O     O_3   0.051160 0.538120 0.569110 -0.496206
O6    O     O_3   0.535440 0.410410 0.602240 -0.476148
O7    O     O_3   0.136446 0.653280 0.647545 -0.624164
O8    O     O_3   0.632100 0.415050 0.468960 -0.477790
O9    O     O_3   0.124670 0.374100 0.572690 -0.493696
O10   O     O_2   0.239764 0.246742 0.534257 -0.478842
O11   O     O_3   0.148137 0.259712 0.643898 -0.600461
O12   O     O_3   0.138540 0.461940 0.430900 -0.492314
O13   O     O_3   0.557600 0.585010 0.531050 -0.492029
O14   O     O_2   0.379790 0.327560 0.468300 -0.457759
O15   O     O_3   0.562835 0.303903 0.372984 -0.637822
O16   O     O_2   0.441833 0.467859 0.709147 -0.497337
O17   O     O_3   0.478826 0.329155 0.695566 -0.594486
O18   O     O_2   0.045806 0.611764 0.857086 -0.593580
O19   O     O_2   0.919420 0.373891 0.853000 -0.619734
O20   O     O_2   0.148804 0.390152 0.143374 -0.596344
O21   O     O_2   0.252140 0.629774 0.151807 -0.636415
O22   O     O_3   0.654260 0.589640 0.397760 -0.480893
O23   O     O_2   0.782389 0.540381 0.293726 -0.490100
O24   O     O_3   0.055180 0.346875 0.351579 -0.627748
O25   O     O_3   0.697549 0.672083 0.302218 -0.589033
O26   O     O_2   0.809910 0.672460 0.531740 -0.456809
O27   O     O_3   0.065030 0.625960 0.427320 -0.483379
O28   O     O_2   0.008778 0.754538 0.485476 -0.478721
P1    P     P_3+3 0.069200 0.440380 0.368230 0.996832
P2    P     P_3+3 0.634560 0.662100 0.548650 0.986988
P3    P     P_3+3 0.100902 0.719057 0.431586 0.958753
P4    P     P_3+3 0.120500 0.559680 0.631780 0.992796
P5    P     P_3+3 0.104722 0.280617 0.573503 0.950294
P6    P     P_3+3 0.645567 0.586290 0.320825 0.968777
P7    P     P_3+3 0.562386 0.325571 0.449684 0.951652
P8    P     P_3+3 0.555990 0.412634 0.678405 0.943220
O29   O     O_3   0.625151 0.792045 0.255125 -0.631085
C57   C     C_3   0.463986 0.785215 0.233956 0.287730
H56   H     H_    0.393263 0.830469 0.254091 0.025021
H57   H     H_    0.403662 0.733269 0.242934 0.073809
C58   C     C_3   0.465653 0.786320 0.167569 -0.273880
H58   H     H_    0.532092 0.740690 0.145878 0.143477
H59   H     H_    0.339272 0.781589 0.150478 0.084684
H60   H     H_    0.525974 0.837463 0.156757 0.113291

loop_
_geom_bond_atom_site_label_1
_geom_bond_atom_site_label_2
_ccdc_geom_bond_type
C5    H25   S    
C53   C54   S    
C57   H56   S    
C12   O3    S    
C39   C40   S    
Ba1   O26   S    
C17   C18   A    
Ba1   O13   S    
O22   P6    S    
C45   H4    S    
C28   P4    S    
C5    C6    S    
O15   P7    S    
C42   H47   S    
C42   C43   D    
C48   C52   A    
O3    P3    S    
C26   C27   S    
C33   C35   A    
C22   C24   A    
Ba1   Ba2   S    
C7    H30   S    
C28   C29   D    
C54   H8    S    
C56   H13   S    
C12   H44   S    
C13   C14   A    
O16   P8    D    
N3    N4    A    
C44   C51   S    
C34   C45   S    
C6    H27   S    
C29   H40   S    
O25   P6    S    
N5    N6    A    
C5    O11   S    
C45   H2    S    
C24   N2    Am   
O9    P5    S    
O23   P6    D    
C50   H49   S    
C14   C15   A    
C53   H5    S    
C10   C15   A    
C34   H54   S    
Ba2   O13   S    
C21   C22   A    
Ba1   P2    S    
C16   H39   S    
C1    H17   S    
C7    C8    S    
C2    H16   S    
C11   N1    Am   
C38   H50   S    
C13   O19   D    
Ba2   O8    S    
C8    H34   S    
C57   H57   S    
O27   P3    S    
C23   H23   S    
O13   P2    S    
C20   H36   S    
Ba1   O27   S    
C38   C43   D    
C34   H55   S    
O8    P7    S    
Ba2   O12   S    
C55   C56   S    
C44   N6    A    
C3    O15   S    
O4    P4    D    
Ba2   O14   S    
C53   O24   S    
C49   C50   A    
C58   H60   S    
C26   C30   D    
C1    H12   S    
C8    H31   S    
O10   P5    D    
C24   O20   D    
O17   P8    S    
C16   C17   A    
C46   N5    A    
C39   P3    S    
Ba2   O4    S    
O24   P1    S    
C15   C19   A    
C21   H35   S    
C52   H51   S    
Ba1   O1    S    
C11   O18   D    
C41   C42   S    
C7    O17   S    
C45   H3    S    
C35   C36   A    
O7    P4    S    
Ba1   P1    S    
C4    H22   S    
C29   C30   S    
C53   H6    S    
C27   C37   S    
C31   C32   A    
C13   N1    Am   
O12   P1    S    
C9    H43   S    
Ba2   O9    S    
C10   C11   A    
C47   H48   S    
C23   H52   S    
C26   H41   S    
C38   C39   S    
O5    P4    S    
C49   P5    S    
O1    P1    D    
C57   C58   S    
O11   P5    S    
C40   C41   D    
C55   H10   S    
C3    H19   S    
C1    C2    S    
C31   H38   S    
O28   P3    D    
C17   H37   S    
C50   C51   A    
C41   C46   S    
C32   P6    S    
Ba2   P4    S    
O29   C57   S    
C14   C20   A    
C6    H26   S    
C9    C32   A    
C34   O7    S    
Ba1   O8    S    
Ba1   O12   S    
C40   H46   S    
C2    O25   S    
C37   H45   S    
C46   N4    A    
C18   C25   A    
Ba2   O5    S    
C54   H9    S    
C4    H20   S    
C25   O21   D    
C44   N3    A    
C49   C52   A    
C55   H11   S    
C58   H58   S    
C3    H18   S    
C9    C33   A    
Ba1   O5    S    
C7    H29   S    
C36   N2    S    
C6    H28   S    
C56   H14   S    
C4    H21   S    
C3    C4    S    
C48   P7    S    
C47   C51   A    
C2    H1    S    
C1    O29   S    
O2    P2    S    
C28   C37   D    
C43   P2    S    
C33   P1    S    
C12   C23   S    
C12   H33   S    
Ba1   O22   S    
C23   H53   S    
C55   O2    S    
Ba2   O6    S    
O6    P8    S    
C5    H24   S    
C18   C19   A    
C8    H32   S    
C27   P8    S    
C47   C48   A    
C19   C22   A    
C10   C16   A    
C20   C21   A    
C31   C36   A    
C30   N1    S    
O14   P7    D    
C35   H42   S    
O26   P2    D    
C54   H7    S    
C56   H15   S    
C58   H59   S    
C25   N2    Am   
