data_mof_unit_62079.cif
_audit_creation_date              2012-12-10T17:52:30-0500
_audit_creation_method            fapswitch 2.2
_symmetry_space_group_name_H-M    P1
_symmetry_Int_Tables_number       1
_space_group_crystal_system       triclinic
_cell_length_a                    38.967317
_cell_length_b                    38.958626
_cell_length_c                    18.378788
_cell_angle_alpha                 89.987177
_cell_angle_beta                  90.013258
_cell_angle_gamma                 90.000057
_cell_volume                      27901.0779163

loop_
_atom_site_label
_atom_site_type_symbol
_atom_type_description
_atom_site_fract_x
_atom_site_fract_y
_atom_site_fract_z
_atom_type_partial_charge
C1    C     C_R   0.566218 0.000001 0.500009 0.817319
C2    C     C_R   0.000000 0.566207 0.499995 0.815565
C3    C     C_R   0.433765 0.000000 0.499991 0.817219
C4    C     C_R   0.000000 0.433781 0.500005 0.817203
C5    C     C_R   0.066209 0.500000 0.000008 0.815558
C6    C     C_R   0.500000 0.066205 0.999993 0.815509
C7    C     C_R   0.933781 0.500000 0.999992 0.817170
C8    C     C_R   0.500001 0.933784 0.000007 0.817124
C9    C     C_R   0.713925 0.000058 0.500032 0.171641
C10   C     C_R   0.000035 0.713912 0.499989 0.182940
C11   C     C_R   0.285879 0.000050 0.499927 0.164653
C12   C     C_R   0.000033 0.286049 0.500006 0.170969
C13   C     C_R   0.213900 0.500059 0.000037 0.183650
C14   C     C_R   0.500057 0.213899 0.999970 0.183653
C15   C     C_R   0.786064 0.500055 0.999973 0.171313
C16   C     C_R   0.500052 0.786065 0.000018 0.171437
C17   C     C_R   0.785811 0.000088 0.499991 0.130160
C18   C     C_R   0.000053 0.785798 0.500013 0.130504
C19   C     C_R   0.213969 0.000076 0.499953 0.203010
C20   C     C_R   0.000050 0.214157 0.499980 0.130271
C21   C     C_R   0.285781 0.500089 0.000000 0.130132
C22   C     C_R   0.500087 0.285781 0.000004 0.130244
C23   C     C_R   0.714177 0.500083 0.000012 0.130092
C24   C     C_R   0.500080 0.714175 0.999983 0.130197
C25   C     C_R   0.657993 0.973097 0.465985 0.229000
C26   C     C_R   0.025166 0.657969 0.460338 0.229876
C27   C     C_R   0.341932 0.028249 0.471100 0.225153
C28   C     C_R   0.027090 0.342000 0.533567 0.228993
C29   C     C_R   0.341913 0.971799 0.528766 0.225167
C30   C     C_R   0.974866 0.657973 0.539621 0.229802
C31   C     C_R   0.657977 0.026956 0.534109 0.228994
C32   C     C_R   0.972940 0.341994 0.466471 0.228908
C33   C     C_R   0.157972 0.474903 0.960324 0.229797
C34   C     C_R   0.525120 0.157956 0.960161 0.229753
C35   C     C_R   0.842000 0.473029 0.033806 0.228964
C36   C     C_R   0.473043 0.842001 0.966147 0.228911
C37   C     C_R   0.842016 0.527021 0.966108 0.228959
C38   C     C_R   0.474933 0.157970 0.039760 0.229753
C39   C     C_R   0.157956 0.525152 0.039768 0.229786
C40   C     C_R   0.527006 0.842014 0.033920 0.228916
C41   C     C_R   0.622036 0.973285 0.466445 -0.258170
C42   C     C_R   0.025041 0.621991 0.460979 -0.257803
C43   C     C_R   0.377903 0.027890 0.470897 -0.245140
C44   C     C_R   0.026872 0.377962 0.533121 -0.258152
C45   C     C_R   0.377886 0.972133 0.529003 -0.245183
C46   C     C_R   0.974973 0.621995 0.538983 -0.257786
C47   C     C_R   0.622020 0.026739 0.533636 -0.258145
C48   C     C_R   0.973142 0.377957 0.466917 -0.258132
C49   C     C_R   0.121998 0.475000 0.960959 -0.257709
C50   C     C_R   0.524992 0.121979 0.960808 -0.257772
C51   C     C_R   0.877958 0.473221 0.033352 -0.258117
C52   C     C_R   0.473236 0.877963 0.966602 -0.258170
C53   C     C_R   0.877973 0.526802 0.966572 -0.258095
C54   C     C_R   0.475031 0.121992 0.039123 -0.257765
C55   C     C_R   0.121983 0.525024 0.039119 -0.257686
C56   C     C_R   0.526786 0.877976 0.033460 -0.258176
C57   C     C_R   0.603946 0.000006 0.500033 -0.091234
C58   C     C_R   0.000003 0.603922 0.499984 -0.088817
C59   C     C_R   0.396003 0.000006 0.499962 -0.103389
C60   C     C_R   0.000003 0.396045 0.500016 -0.091425
C61   C     C_R   0.103920 0.500006 0.000032 -0.088850
C62   C     C_R   0.500005 0.103916 0.999971 -0.088783
C63   C     C_R   0.896049 0.500006 0.999969 -0.091315
C64   C     C_R   0.500005 0.896052 0.000026 -0.091284
C65   C     C_R   0.676128 0.000036 0.500047 0.018616
C66   C     C_R   0.000022 0.676112 0.499981 0.013080
C67   C     C_R   0.323757 0.000031 0.499928 0.001588
C68   C     C_R   0.000020 0.323851 0.500017 0.018851
C69   C     C_R   0.176104 0.500036 0.000046 0.012830
C70   C     C_R   0.500035 0.176102 0.999961 0.012845
C71   C     C_R   0.823863 0.500034 0.999958 0.018717
C72   C     C_R   0.500032 0.823863 0.000032 0.018704
C73   C     C_R   0.000005 0.933740 0.500009 0.935386
C74   C     C_R   0.066247 0.000006 0.500012 0.939440
C75   C     C_R   0.000005 0.066242 0.499991 0.936679
C76   C     C_R   0.933749 0.000005 0.499988 0.935431
C77   C     C_R   0.500005 0.433735 0.000012 0.935020
C78   C     C_R   0.566248 0.500005 0.000012 0.936322
C79   C     C_R   0.500005 0.566247 0.999988 0.936321
C80   C     C_R   0.433734 0.500005 0.999988 0.935027
C81   C     C_R   0.499998 0.999997 0.639870 0.845335
C82   C     C_R   0.000003 0.500003 0.639865 0.844191
C83   C     C_R   0.500002 0.000003 0.360130 0.845334
C84   C     C_R   0.999997 0.499999 0.360135 0.844192
C85   C     C_R   0.999999 0.499997 0.139870 0.844278
C86   C     C_R   0.500003 0.000003 0.139865 0.844110
C87   C     C_R   0.000003 0.500003 0.860130 0.844277
C88   C     C_R   0.499997 0.999999 0.860135 0.844112
C89   C     C_1   0.499993 0.999992 0.717370 -0.179788
C90   C     C_1   0.000009 0.500008 0.717365 -0.179724
C91   C     C_1   0.500007 0.000009 0.282630 -0.179789
C92   C     C_1   0.999992 0.499994 0.282635 -0.179723
C93   C     C_1   0.999994 0.499992 0.217370 -0.179779
C94   C     C_1   0.500009 0.000008 0.217365 -0.179584
C95   C     C_1   0.000008 0.500008 0.782630 -0.179780
C96   C     C_1   0.499992 0.999994 0.782635 -0.179583
C97   C     C_R   0.877877 0.974752 0.460765 0.228640
C98   C     C_R   0.025762 0.877877 0.462190 0.223060
C99   C     C_R   0.122063 0.025938 0.462407 0.177618
C100  C     C_R   0.974366 0.122076 0.461866 0.226627
C101  C     C_R   0.122106 0.974180 0.537748 0.178260
C102  C     C_R   0.974312 0.877852 0.537921 0.222452
C103  C     C_R   0.877918 0.025366 0.539064 0.227925
C104  C     C_R   0.025702 0.122052 0.538027 0.227185
C105  C     C_R   0.377820 0.474568 0.961328 0.223913
C106  C     C_R   0.525558 0.377864 0.961531 0.223242
C107  C     C_R   0.622069 0.525505 0.961331 0.227451
C108  C     C_R   0.474598 0.622103 0.961196 0.228050
C109  C     C_R   0.622107 0.474605 0.038832 0.228116
C110  C     C_R   0.474559 0.377824 0.038637 0.223860
C111  C     C_R   0.377862 0.525552 0.038503 0.223293
C112  C     C_R   0.525509 0.622067 0.038641 0.227387
C113  C     C_R   0.841795 0.974666 0.460706 0.201948
C114  C     C_R   0.025712 0.841780 0.461499 0.204895
C115  C     C_R   0.158203 0.026058 0.462757 0.180876
C116  C     C_R   0.974270 0.158163 0.461787 0.202135
C117  C     C_R   0.158245 0.974086 0.537331 0.180944
C118  C     C_R   0.974384 0.841754 0.538603 0.205204
C119  C     C_R   0.841835 0.025485 0.539160 0.201892
C120  C     C_R   0.025817 0.158139 0.538115 0.201805
C121  C     C_R   0.341728 0.474657 0.960656 0.205210
C122  C     C_R   0.525506 0.341768 0.960830 0.205168
C123  C     C_R   0.658152 0.525624 0.961234 0.202066
C124  C     C_R   0.474510 0.658190 0.961130 0.202167
C125  C     C_R   0.658189 0.474517 0.038896 0.202132
C126  C     C_R   0.474647 0.341727 0.039309 0.205232
C127  C     C_R   0.341770 0.525500 0.039207 0.205156
C128  C     C_R   0.525627 0.658154 0.038735 0.202093
C129  C     C_R   0.823706 0.000079 0.499957 -0.144960
C130  C     C_R   0.000050 0.823662 0.500038 -0.148569
C131  C     C_R   0.176152 0.000072 0.500008 -0.073319
C132  C     C_R   0.000046 0.176261 0.499961 -0.144799
C133  C     C_R   0.323644 0.500082 0.999957 -0.148740
C134  C     C_R   0.500080 0.323644 0.000046 -0.148769
C135  C     C_R   0.676281 0.500074 0.000044 -0.144965
C136  C     C_R   0.500072 0.676281 0.999953 -0.145017
C137  C     C_R   0.895990 0.000036 0.499950 -0.246951
C138  C     C_R   0.000024 0.895959 0.500035 -0.241603
C139  C     C_R   0.103998 0.000037 0.500047 -0.193411
C140  C     C_R   0.000023 0.103985 0.499966 -0.245588
C141  C     C_R   0.395944 0.500037 0.999951 -0.243128
C142  C     C_R   0.500036 0.395946 0.000048 -0.243202
C143  C     C_R   0.604001 0.500034 0.000048 -0.247098
C144  C     C_R   0.500033 0.603999 0.999952 -0.247167
C145  C     C_R   0.767760 0.993108 0.564309 -0.178899
C146  C     C_R   0.013996 0.767742 0.558991 -0.184513
C147  C     C_R   0.231963 0.976168 0.457702 -0.162988
C148  C     C_R   0.993611 0.232211 0.564541 -0.179181
C149  C     C_R   0.231996 0.023975 0.542181 -0.163190
C150  C     C_R   0.986106 0.767770 0.441019 -0.183861
C151  C     C_R   0.767724 0.007062 0.435698 -0.179238
C152  C     C_R   0.006485 0.232238 0.435435 -0.179889
C153  C     C_R   0.267757 0.485787 0.058618 -0.183564
C154  C     C_R   0.514377 0.267722 0.058602 -0.183932
C155  C     C_R   0.732263 0.506834 0.064405 -0.179307
C156  C     C_R   0.493309 0.732226 0.064395 -0.179044
C157  C     C_R   0.732228 0.493325 0.935595 -0.178971
C158  C     C_R   0.485790 0.267759 0.941381 -0.183669
C159  C     C_R   0.267720 0.514384 0.941409 -0.183845
C160  C     C_R   0.506845 0.732259 0.935593 -0.179358
C161  C     C_R   0.731961 0.993525 0.564542 -0.168778
C162  C     C_R   0.013517 0.731921 0.559477 -0.165278
C163  C     C_R   0.267764 0.976393 0.457102 -0.148374
C164  C     C_R   0.994027 0.268014 0.564747 -0.168660
C165  C     C_R   0.267797 0.023723 0.542756 -0.148401
C166  C     C_R   0.986565 0.731949 0.440509 -0.165365
C167  C     C_R   0.731926 0.006614 0.435505 -0.168770
C168  C     C_R   0.006051 0.268041 0.435254 -0.168540
C169  C     C_R   0.231941 0.486240 0.059149 -0.165356
C170  C     C_R   0.513893 0.231902 0.059098 -0.165371
C171  C     C_R   0.768062 0.506390 0.064591 -0.168656
C172  C     C_R   0.493724 0.768030 0.064618 -0.168739
C173  C     C_R   0.768027 0.493741 0.935370 -0.168670
C174  C     C_R   0.486243 0.231938 0.940852 -0.165400
C175  C     C_R   0.231904 0.513900 0.940914 -0.165330
C176  C     C_R   0.506401 0.768062 0.935404 -0.168724
Cu1   Cu    Cu3+1 0.500000 0.034230 0.500000 0.949989
Cu2   Cu    Cu3+1 0.965770 0.500000 0.500000 0.951513
Cu3   Cu    Cu3+1 0.500000 0.965770 0.500000 0.950131
Cu4   Cu    Cu3+1 0.034230 0.500000 0.500000 0.951329
Cu5   Cu    Cu3+1 1.000000 0.534230 0.000000 0.951418
Cu6   Cu    Cu3+1 0.465770 0.000000 0.000000 0.951717
Cu7   Cu    Cu3+1 1.000000 0.465770 0.000000 0.951565
Cu8   Cu    Cu3+1 0.534230 0.000000 0.000000 0.951467
Cu9   Cu    Cu3+1 0.000000 1.000000 0.572520 1.104534
Cu10  Cu    Cu3+1 0.000000 1.000000 0.427480 1.104532
Cu11  Cu    Cu3+1 0.500000 0.500000 0.072520 1.101296
Cu12  Cu    Cu3+1 0.500000 0.500000 0.927480 1.101296
H1    H     H_    0.781424 0.987279 0.614105 0.149523
H2    H     H_    0.025208 0.781408 0.604451 0.141937
H3    H     H_    0.218237 0.957716 0.424588 0.141652
H4    H     H_    0.988205 0.218545 0.614547 0.149348
H5    H     H_    0.218297 0.042433 0.575317 0.141300
H6    H     H_    0.974899 0.781458 0.395570 0.142151
H7    H     H_    0.781359 0.012899 0.385885 0.149363
H8    H     H_    0.011895 0.218593 0.385418 0.149250
H9    H     H_    0.281445 0.474308 0.103760 0.142377
H10   H     H_    0.525859 0.281384 0.103762 0.142128
H11   H     H_    0.718628 0.512497 0.114302 0.149341
H12   H     H_    0.487646 0.718559 0.114270 0.149460
H13   H     H_    0.718565 0.487671 0.885714 0.149500
H14   H     H_    0.474317 0.281450 0.896236 0.142369
H15   H     H_    0.281377 0.525873 0.896251 0.142112
H16   H     H_    0.512516 0.718618 0.885703 0.149317
H17   H     H_    0.718274 0.988266 0.614605 0.135961
H18   H     H_    0.024092 0.718196 0.605578 0.131045
H19   H     H_    0.281324 0.958339 0.422862 0.133087
H20   H     H_    0.989183 0.281708 0.614990 0.136203
H21   H     H_    0.281383 0.041765 0.576991 0.133017
H22   H     H_    0.975983 0.718247 0.394400 0.131079
H23   H     H_    0.718210 0.011861 0.385456 0.135917
H24   H     H_    0.010888 0.281756 0.385020 0.136202
H25   H     H_    0.218247 0.475386 0.104981 0.130764
H26   H     H_    0.524731 0.218174 0.104918 0.130721
H27   H     H_    0.781776 0.511467 0.114715 0.136028
H28   H     H_    0.488625 0.781722 0.114749 0.136001
H29   H     H_    0.781715 0.488653 0.885232 0.136071
H30   H     H_    0.475392 0.218238 0.895020 0.130753
H31   H     H_    0.218180 0.524742 0.895094 0.130700
H32   H     H_    0.511489 0.781780 0.885287 0.135979
H33   H     H_    0.608221 0.952577 0.440138 0.156344
H34   H     H_    0.044378 0.608140 0.430421 0.154136
H35   H     H_    0.391701 0.049278 0.447145 0.161738
H36   H     H_    0.047683 0.391785 0.559037 0.156555
H37   H     H_    0.391669 0.950736 0.552766 0.161746
H38   H     H_    0.955631 0.608147 0.569544 0.154175
H39   H     H_    0.608193 0.047437 0.559936 0.156332
H40   H     H_    0.952325 0.391776 0.440999 0.156588
H41   H     H_    0.108159 0.455675 0.930326 0.154157
H42   H     H_    0.544283 0.108124 0.930126 0.154139
H43   H     H_    0.891772 0.452461 0.059499 0.156448
H44   H     H_    0.452489 0.891782 0.940427 0.156520
H45   H     H_    0.891797 0.547552 0.940432 0.156434
H46   H     H_    0.455731 0.108148 0.069812 0.154203
H47   H     H_    0.108133 0.544339 0.069743 0.154134
H48   H     H_    0.547524 0.891804 0.059630 0.156463
O1    O     O_R   0.549910 0.028910 0.500030 -0.587662
O2    O     O_R   0.971090 0.549910 0.500030 -0.586547
O3    O     O_R   0.450090 0.971090 0.500030 -0.588649
O4    O     O_R   0.028910 0.450090 0.500030 -0.587756
O5    O     O_R   0.450090 0.028910 0.499970 -0.588663
O6    O     O_R   0.028910 0.549910 0.499970 -0.586564
O7    O     O_R   0.549910 0.971090 0.499970 -0.587650
O8    O     O_R   0.971090 0.450090 0.499970 -0.587738
O9    O     O_R   0.049910 0.528910 0.000030 -0.586561
O10   O     O_R   0.471090 0.049910 0.000030 -0.586509
O11   O     O_R   0.950090 0.471090 0.000030 -0.587701
O12   O     O_R   0.528910 0.950090 0.000030 -0.587709
O13   O     O_R   0.950090 0.528910 0.999970 -0.587713
O14   O     O_R   0.528910 0.049910 0.999970 -0.586547
O15   O     O_R   0.049910 0.471090 0.999970 -0.586551
O16   O     O_R   0.471090 0.950090 0.999970 -0.587670
O17   O     O_R   0.499990 0.028910 0.605810 -0.583321
O18   O     O_R   0.971090 0.499990 0.605810 -0.583224
O19   O     O_R   0.500010 0.971090 0.605810 -0.583006
O20   O     O_R   0.028910 0.500010 0.605810 -0.583176
O21   O     O_R   0.500010 0.028910 0.394190 -0.583147
O22   O     O_R   0.028910 0.499990 0.394190 -0.583373
O23   O     O_R   0.499990 0.971090 0.394190 -0.583181
O24   O     O_R   0.971090 0.500010 0.394190 -0.583026
O25   O     O_R   0.999990 0.528910 0.105810 -0.583393
O26   O     O_R   0.471090 0.999990 0.105810 -0.583217
O27   O     O_R   0.000010 0.471090 0.105810 -0.583058
O28   O     O_R   0.528910 0.000010 0.105810 -0.583114
O29   O     O_R   0.000010 0.528910 0.894190 -0.583202
O30   O     O_R   0.528910 0.999990 0.894190 -0.583301
O31   O     O_R   0.999990 0.471090 0.894190 -0.583250
O32   O     O_R   0.471090 0.000010 0.894190 -0.583030
O33   O     O_R   0.000000 0.950040 0.561110 -0.554333
O34   O     O_R   0.049960 1.000000 0.561110 -0.552532
O35   O     O_R   0.000000 0.049960 0.561110 -0.555110
O36   O     O_R   0.950040 1.000000 0.561110 -0.555174
O37   O     O_R   0.000000 0.950040 0.438890 -0.555535
O38   O     O_R   0.950040 0.000000 0.438890 -0.554864
O39   O     O_R   0.000000 0.049960 0.438890 -0.553891
O40   O     O_R   0.049960 0.000000 0.438890 -0.552851
O41   O     O_R   0.500000 0.450040 0.061110 -0.555143
O42   O     O_R   0.549960 0.500000 0.061110 -0.554685
O43   O     O_R   0.500000 0.549960 0.061110 -0.555001
O44   O     O_R   0.450040 0.500000 0.061110 -0.555398
O45   O     O_R   0.500000 0.450040 0.938890 -0.555429
O46   O     O_R   0.450040 0.500000 0.938890 -0.555113
O47   O     O_R   0.500000 0.549960 0.938890 -0.554716
O48   O     O_R   0.549960 0.500000 0.938890 -0.554969
Br1   Br    Br    0.902070 0.938364 0.411102 -0.446997
Br2   Br    Br    0.062931 0.902187 0.415478 -0.454919
Br3   Br    Br    0.097606 0.061595 0.410825 -0.486843
Br4   Br    Br    0.937541 0.097816 0.413822 -0.449281
Br5   Br    Br    0.097718 0.938581 0.589631 -0.485834
Br6   Br    Br    0.937161 0.902125 0.584760 -0.447802
Br7   Br    Br    0.902172 0.061806 0.588444 -0.447993
Br8   Br    Br    0.062548 0.097758 0.585946 -0.456084
Br9   Br    Br    0.402044 0.437689 0.913396 -0.446391
Br10  Br    Br    0.562483 0.402156 0.913904 -0.447327
Br11  Br    Br    0.597797 0.562111 0.912518 -0.448856
Br12  Br    Br    0.438035 0.597881 0.912163 -0.447993
Br13  Br    Br    0.597893 0.438046 0.087907 -0.447932
Br14  Br    Br    0.437676 0.402056 0.086521 -0.446418
Br15  Br    Br    0.402148 0.562472 0.086175 -0.447351
Br16  Br    Br    0.562118 0.597789 0.087417 -0.448867
N1    N     N_2   0.823885 0.947781 0.424138 -0.386152
H49   H     H_    0.801650 0.939165 0.448474 0.262879
C177  C     C_3   0.821926 0.950340 0.345562 -0.592628
H50   H     H_    0.795133 0.955876 0.328601 0.195855
H51   H     H_    0.829823 0.925510 0.321211 0.254020
H52   H     H_    0.838908 0.970896 0.323900 0.235132
N2    N     N_2   0.052609 0.823980 0.424770 -0.382555
H53   H     H_    0.060573 0.801606 0.449540 0.261645
C178  C     C_3   0.047757 0.820060 0.347132 -0.592778
H54   H     H_    0.071411 0.809177 0.322628 0.225090
H55   H     H_    0.042513 0.845201 0.320957 0.258550
H56   H     H_    0.026107 0.802378 0.335803 0.201637
N3    N     N_2   0.176884 0.052367 0.426246 -0.412696
H57   H     H_    0.166784 0.076666 0.431997 0.294088
C179  C     C_3   0.185964 0.044336 0.351872 -0.611156
H58   H     H_    0.202199 0.065207 0.329357 0.223409
H59   H     H_    0.162485 0.041913 0.317943 0.249605
H60   H     H_    0.200761 0.020015 0.349291 0.224474
N4    N     N_2   0.947050 0.176066 0.426324 -0.386385
H61   H     H_    0.938672 0.198315 0.450982 0.262615
C180  C     C_3   0.948872 0.178008 0.347656 -0.592454
H62   H     H_    0.954312 0.204791 0.330451 0.195877
H63   H     H_    0.923804 0.170164 0.324345 0.253792
H64   H     H_    0.969174 0.160967 0.325160 0.235358
N5    N     N_2   0.176968 0.947801 0.573843 -0.412475
H65   H     H_    0.166874 0.923495 0.568164 0.294341
C181  C     C_3   0.186106 0.955867 0.648178 -0.611421
H66   H     H_    0.202371 0.935012 0.670684 0.223500
H67   H     H_    0.162656 0.958291 0.682169 0.249597
H68   H     H_    0.200894 0.980195 0.650675 0.224406
N6    N     N_2   0.947501 0.823928 0.575344 -0.381082
H69   H     H_    0.939540 0.801562 0.550561 0.262103
C182  C     C_3   0.952372 0.819977 0.652973 -0.592111
H70   H     H_    0.928724 0.809083 0.677492 0.225468
H71   H     H_    0.957621 0.845107 0.679166 0.258166
H72   H     H_    0.974025 0.802293 0.664267 0.201306
N7    N     N_2   0.823965 0.052395 0.575717 -0.386433
H73   H     H_    0.801714 0.061009 0.551423 0.262683
C183  C     C_3   0.822067 0.049871 0.654303 -0.592462
H74   H     H_    0.795292 0.044314 0.671338 0.195843
H75   H     H_    0.829957 0.074721 0.678581 0.253883
H76   H     H_    0.839088 0.029344 0.675969 0.235311
N8    N     N_2   0.053051 0.176019 0.573567 -0.387838
H77   H     H_    0.061429 0.198277 0.548924 0.262099
C184  C     C_3   0.051248 0.177926 0.652238 -0.593128
H78   H     H_    0.045801 0.204700 0.669474 0.196043
H79   H     H_    0.076325 0.170083 0.675513 0.253297
H80   H     H_    0.030959 0.160868 0.674740 0.235875
N9    N     N_2   0.323896 0.448008 0.923156 -0.380852
H81   H     H_    0.301537 0.439891 0.947720 0.262347
C185  C     C_3   0.319940 0.453371 0.845673 -0.592473
H82   H     H_    0.302253 0.475093 0.835001 0.201243
H83   H     H_    0.309053 0.429873 0.820485 0.225577
H84   H     H_    0.345061 0.458794 0.819624 0.258016
N10   N     N_2   0.552185 0.323971 0.923380 -0.381095
H85   H     H_    0.560297 0.301596 0.947925 0.262170
C186  C     C_3   0.546874 0.320060 0.845875 -0.592278
H86   H     H_    0.570381 0.309182 0.820738 0.225488
H87   H     H_    0.541474 0.345204 0.819854 0.258064
H88   H     H_    0.525160 0.302379 0.835112 0.201323
N11   N     N_2   0.676021 0.552666 0.925090 -0.386436
H89   H     H_    0.698275 0.561188 0.949509 0.262643
C187  C     C_3   0.677915 0.550427 0.846467 -0.592580
H90   H     H_    0.704686 0.544918 0.829343 0.195859
H91   H     H_    0.670037 0.575369 0.822574 0.253819
H92   H     H_    0.660882 0.529988 0.824488 0.235316
N12   N     N_2   0.447490 0.676102 0.925001 -0.386130
H93   H     H_    0.438972 0.698344 0.949471 0.262811
C188  C     C_3   0.449749 0.678060 0.846386 -0.592884
H94   H     H_    0.455252 0.704852 0.829339 0.195861
H95   H     H_    0.424822 0.670191 0.822441 0.253886
H96   H     H_    0.470195 0.661048 0.824389 0.235161
N13   N     N_2   0.676096 0.447498 0.075052 -0.386163
H97   H     H_    0.698336 0.438975 0.050595 0.262832
C189  C     C_3   0.678047 0.449770 0.153666 -0.592752
H98   H     H_    0.704836 0.455261 0.170723 0.195871
H99   H     H_    0.670164 0.424846 0.177625 0.253947
H100  H     H_    0.661050 0.470234 0.175642 0.235144
N14   N     N_2   0.447994 0.323891 0.076773 -0.380835
H101  H     H_    0.439884 0.301528 0.052194 0.262329
C190  C     C_3   0.453335 0.319930 0.154262 -0.592528
H102  H     H_    0.429835 0.309040 0.179419 0.225554
H103  H     H_    0.458750 0.345055 0.180322 0.258014
H104  H     H_    0.475049 0.302238 0.164955 0.201254
N15   N     N_2   0.323980 0.552174 0.076694 -0.381115
H105  H     H_    0.301607 0.560294 0.052166 0.262172
C191  C     C_3   0.320076 0.546842 0.154195 -0.592291
H106  H     H_    0.302399 0.525121 0.164938 0.201323
H107  H     H_    0.309202 0.570348 0.179363 0.225470
H108  H     H_    0.345216 0.541434 0.180200 0.258074
N16   N     N_2   0.552670 0.676030 0.074852 -0.386401
H109  H     H_    0.561186 0.698287 0.050417 0.262638
C192  C     C_3   0.550442 0.677933 0.153475 -0.592638
H110  H     H_    0.544921 0.704709 0.170586 0.195864
H111  H     H_    0.575387 0.670072 0.177355 0.253785
H112  H     H_    0.530022 0.660887 0.175478 0.235313
N17   N     N_2   0.675803 0.945901 0.430659 -0.431508
H113  H     H_    0.663226 0.936563 0.385392 0.249754
C193  C     C_3   0.686597 0.918586 0.478810 -0.672482
H114  H     H_    0.701618 0.899369 0.447585 0.229250
H115  H     H_    0.663853 0.905685 0.502990 0.222091
H116  H     H_    0.703159 0.928714 0.522997 0.237228
N18   N     N_2   0.050324 0.675806 0.418876 -0.428684
H117  H     H_    0.056393 0.663726 0.370611 0.250140
C194  C     C_3   0.080717 0.685057 0.459559 -0.674758
H118  H     H_    0.098138 0.700322 0.424370 0.229360
H119  H     H_    0.094459 0.661586 0.477859 0.221812
H120  H     H_    0.073916 0.700887 0.507618 0.235498
N19   N     N_2   0.323984 0.056084 0.438537 -0.424731
H121  H     H_    0.329631 0.058811 0.384020 0.252204
C195  C     C_3   0.326739 0.088308 0.477232 -0.679268
H122  H     H_    0.309078 0.107348 0.452366 0.233764
H123  H     H_    0.353354 0.098426 0.473934 0.217382
H124  H     H_    0.319520 0.085013 0.535242 0.229591
N20   N     N_2   0.054462 0.324200 0.568338 -0.431561
H125  H     H_    0.064033 0.336793 0.613363 0.249729
C196  C     C_3   0.081519 0.313374 0.519614 -0.673255
H126  H     H_    0.100893 0.298367 0.550459 0.228927
H127  H     H_    0.094291 0.336109 0.495067 0.222254
H128  H     H_    0.071164 0.296783 0.475715 0.237166
N21   N     N_2   0.323946 0.943976 0.561311 -0.424726
H129  H     H_    0.329600 0.941238 0.615827 0.252197
C197  C     C_3   0.326669 0.911755 0.522600 -0.679167
H130  H     H_    0.308997 0.892726 0.547454 0.233804
H131  H     H_    0.353276 0.901615 0.525896 0.217341
H132  H     H_    0.319441 0.915062 0.464590 0.229620
N22   N     N_2   0.949718 0.675815 0.581084 -0.428763
H133  H     H_    0.943639 0.663725 0.629344 0.250147
C198  C     C_3   0.919333 0.685098 0.540398 -0.674131
H134  H     H_    0.901921 0.700365 0.575589 0.229558
H135  H     H_    0.905577 0.661641 0.522087 0.221742
H136  H     H_    0.926147 0.700937 0.492347 0.235569
N23   N     N_2   0.675769 0.054169 0.569438 -0.431474
H137  H     H_    0.663197 0.063488 0.614715 0.249761
C199  C     C_3   0.686516 0.081501 0.521293 -0.672665
H138  H     H_    0.701527 0.100731 0.552517 0.229212
H139  H     H_    0.663749 0.094380 0.497134 0.222123
H140  H     H_    0.703072 0.071395 0.477091 0.237176
N24   N     N_2   0.945577 0.324189 0.431699 -0.431632
H141  H     H_    0.935996 0.336790 0.386682 0.249745
C200  C     C_3   0.918530 0.313330 0.480426 -0.672587
H142  H     H_    0.899163 0.298322 0.449579 0.229163
H143  H     H_    0.905746 0.336050 0.504989 0.222169
H144  H     H_    0.928898 0.296732 0.524313 0.237223
N25   N     N_2   0.175816 0.449797 0.918749 -0.428675
H145  H     H_    0.163785 0.443851 0.870351 0.250156
C201  C     C_3   0.184947 0.419293 0.959207 -0.674142
H146  H     H_    0.200237 0.401920 0.923974 0.229630
H147  H     H_    0.161428 0.405548 0.977176 0.221690
H148  H     H_    0.200704 0.425964 0.007464 0.235509
N26   N     N_2   0.550210 0.175791 0.918514 -0.428672
H149  H     H_    0.556118 0.163758 0.870106 0.250135
C202  C     C_3   0.580738 0.184896 0.958889 -0.674240
H150  H     H_    0.598098 0.200180 0.923603 0.229606
H151  H     H_    0.594471 0.161360 0.976838 0.221707
H152  H     H_    0.574107 0.200659 0.007154 0.235473
N27   N     N_2   0.824193 0.445758 0.068906 -0.431576
H153  H     H_    0.836779 0.436312 0.114070 0.249754
C203  C     C_3   0.813371 0.418557 0.020517 -0.672427
H154  H     H_    0.798356 0.399273 0.051587 0.229226
H155  H     H_    0.836103 0.405704 0.996179 0.222126
H156  H     H_    0.796797 0.428791 0.976453 0.237241
N28   N     N_2   0.445789 0.824189 0.931010 -0.431584
H157  H     H_    0.436360 0.836776 0.885831 0.249756
C204  C     C_3   0.418578 0.813366 0.979360 -0.672519
H158  H     H_    0.399308 0.798347 0.948264 0.229216
H159  H     H_    0.405721 0.836104 0.003677 0.222137
H160  H     H_    0.428796 0.796789 0.023440 0.237211
N29   N     N_2   0.824224 0.554308 0.931006 -0.431544
H161  H     H_    0.836804 0.563735 0.885831 0.249761
C205  C     C_3   0.813449 0.581525 0.979390 -0.672606
H162  H     H_    0.798442 0.600821 0.948321 0.229190
H163  H     H_    0.836203 0.594357 0.003706 0.222159
H164  H     H_    0.796880 0.571312 0.023470 0.237190
N30   N     N_2   0.449860 0.175820 0.081407 -0.428702
H165  H     H_    0.443936 0.163779 0.129809 0.250155
C206  C     C_3   0.419345 0.184971 0.041026 -0.674127
H166  H     H_    0.401998 0.200262 0.076314 0.229626
H167  H     H_    0.405587 0.161455 0.023062 0.221719
H168  H     H_    0.425996 0.200741 0.992771 0.235488
N31   N     N_2   0.175785 0.550274 0.081345 -0.428646
H169  H     H_    0.163760 0.556203 0.129748 0.250162
C207  C     C_3   0.184869 0.580792 0.040894 -0.674274
H170  H     H_    0.200150 0.598180 0.076129 0.229603
H171  H     H_    0.161329 0.594512 0.022938 0.221715
H172  H     H_    0.200619 0.574142 0.992629 0.235460
N32   N     N_2   0.554275 0.824217 0.069054 -0.431556
H173  H     H_    0.563689 0.836798 0.114243 0.249727
C208  C     C_3   0.581500 0.813439 0.020704 -0.672640
H174  H     H_    0.600782 0.798427 0.051796 0.229179
H175  H     H_    0.594336 0.836198 0.996407 0.222151
H176  H     H_    0.571301 0.796868 0.976609 0.237188

loop_
_geom_bond_atom_site_label_1
_geom_bond_atom_site_label_2
_ccdc_geom_bond_type
C104  Br8   S    
C203  H154  S    
C186  H86   S    
C23   C155  A    
C195  H123  S    
C160  C176  A    
N27   H153  S    
C14   C170  A    
C191  H108  S    
C42   C58   A    
C38   C70   A    
N7    H73   S    
C90   C95   T    
C177  H51   S    
N29   H161  S    
C98   C138  A    
N18   C194  S    
C75   C140  S    
N17   C193  S    
Cu10  O40   S    
C98   C114  A    
C172  H28   S    
C79   O47   A    
Cu6   O26   S    
C204  H160  S    
Cu7   O31   S    
C154  C170  A    
C193  H115  S    
C3    O5    A    
C150  H6    S    
C1    O7    A    
C38   N30   S    
C158  C174  A    
C25   N17   S    
C16   C72   S    
C125  N13   S    
C33   C69   A    
C188  H96   S    
C125  C135  A    
Cu11  O41   S    
C35   C71   A    
C10   C162  A    
C21   C159  A    
C161  H17   S    
C17   C151  A    
C85   O27   A    
C21   C133  S    
C116  N4    S    
C106  C142  A    
C197  H132  S    
Cu5   Cu7   S    
C26   N18   S    
Cu12  O46   S    
C179  H59   S    
C15   C173  A    
N28   H157  S    
C78   O42   A    
C25   C41   A    
C88   O32   A    
C200  H144  S    
C182  H70   S    
C17   C129  S    
C28   C44   A    
C104  C140  A    
C29   C45   A    
N22   H133  S    
C26   C66   A    
C27   N19   S    
C202  H152  S    
C201  H147  S    
C204  H159  S    
N30   C206  S    
C146  C162  A    
C32   N24   S    
C103  Br7   S    
C177  H50   S    
C185  H83   S    
N32   C208  S    
C45   H37   S    
C184  H80   S    
Cu9   O34   S    
C186  H88   S    
Cu4   O6    S    
C37   C71   A    
C35   C51   A    
C190  H102  S    
C18   C130  S    
C107  C143  A    
C191  H106  S    
C108  C144  A    
C169  H25   S    
Cu1   O1    S    
C182  H72   S    
C29   N21   S    
C31   C65   A    
C45   C59   A    
C75   O39   A    
N20   C196  S    
C6    O10   A    
C52   H44   S    
C189  H98   S    
Cu10  O38   S    
Cu11  O43   S    
C83   C91   S    
C192  H110  S    
C114  C130  A    
C89   C96   T    
C103  C137  A    
C206  H167  S    
C194  H118  S    
C166  H22   S    
C91   C94   T    
C145  C161  A    
C151  C167  A    
C110  Br14  S    
C37   N29   S    
Cu8   O28   S    
Cu5   O9    S    
N25   H145  S    
C9    C65   S    
C200  H143  S    
Cu11  Cu12  S    
C207  H172  S    
C126  C134  A    
C180  H62   S    
C11   C165  A    
C21   C153  A    
C81   O17   A    
N19   H121  S    
C18   C150  A    
C5    O15   A    
C86   O26   A    
C28   N20   S    
Cu3   O7    S    
C24   C156  A    
C199  H139  S    
C36   N28   S    
Cu1   O5    S    
N4    C180  S    
N21   H129  S    
C185  H82   S    
C104  C120  A    
C101  C139  A    
C185  H84   S    
C76   C137  S    
C40   N32   S    
C203  H155  S    
C28   C68   A    
N24   C200  S    
C48   H40   S    
N3    C179  S    
C193  H114  S    
C150  C166  A    
C7    O11   A    
N5    C181  S    
Cu6   O16   S    
C122  C134  A    
Cu9   O36   S    
C149  H5    S    
C85   C93   S    
N20   H125  S    
C147  H3    S    
Cu1   Cu3   S    
C87   C95   S    
C190  H104  S    
C20   C148  A    
C83   O21   A    
C174  H30   S    
C118  N6    S    
C36   C52   A    
C43   C59   A    
C37   C53   A    
C24   C136  S    
C13   C169  A    
C46   C58   A    
C99   C139  A    
C97   C137  A    
C196  H127  S    
C10   C66   S    
C192  H112  S    
C39   N31   S    
C152  H8    S    
C51   H43   S    
C148  C164  A    
C149  C165  A    
C164  H20   S    
C194  H120  S    
C181  H67   S    
Cu3   O23   S    
C1    O1    A    
C156  C172  A    
C123  C135  A    
C20   C132  S    
C43   H35   S    
C1    C57   S    
C47   C57   A    
C2    O6    A    
C207  H170  S    
C116  C132  A    
C10   C166  A    
C180  H64   S    
C4    C60   S    
C11   C163  A    
N31   H169  S    
C39   C69   A    
C5    C61   S    
C81   O19   A    
C9    C161  A    
C208  H175  S    
C7    C63   S    
C8    C64   S    
C113  N1    S    
N10   C186  S    
C31   N23   S    
N8    C184  S    
C187  H92   S    
C157  H13   S    
C54   H46   S    
C155  H11   S    
C26   C42   A    
C33   N25   S    
C189  H100  S    
N16   C192  S    
C8    O16   A    
C179  H60   S    
C40   C72   A    
C30   C46   A    
C191  H107  S    
Cu2   O18   S    
Cu8   O12   S    
Cu4   O20   S    
Cu4   O22   S    
C123  N11   S    
N17   H113  S    
C53   C63   A    
C13   C69   S    
C158  H14   S    
C23   C157  A    
C119  C129  A    
C50   H42   S    
C117  C131  A    
Cu6   Cu8   S    
C27   C67   A    
C111  C141  A    
N26   H149  S    
C183  H76   S    
C117  N5    S    
C128  N16   S    
C157  C173  A    
N32   H173  S    
C13   C175  A    
C56   H48   S    
C84   C92   S    
N15   C191  S    
C42   H34   S    
C4    O8    A    
C36   C72   A    
C87   O31   A    
C188  H95   S    
C148  H4    S    
C88   C96   S    
C80   O46   A    
C14   C70   S    
C100  C116  A    
C107  C123  A    
Cu12  O48   S    
N14   H101  S    
C197  H131  S    
N11   C187  S    
C112  Br16  S    
C35   N27   S    
C7    O13   A    
C105  Br9   S    
N13   C189  S    
C99   C115  A    
C107  Br11  S    
C198  H136  S    
Cu4   O4    S    
C33   C49   A    
C114  N2    S    
C151  H7    S    
C202  H151  S    
C124  N12   S    
C121  N9    S    
Cu3   O3    S    
N7    C183  S    
C29   C67   A    
C39   C55   A    
N12   H93   S    
C40   C56   A    
C187  H90   S    
C83   O23   A    
C44   H36   S    
C184  H79   S    
C34   C70   A    
C73   O33   A    
Cu9   O33   S    
C171  H27   S    
C16   C176  A    
C182  H71   S    
C179  H58   S    
C186  H87   S    
N24   H141  S    
C31   C47   A    
C162  H18   S    
C195  H124  S    
N27   C203  S    
C82   O20   A    
C152  C168  A    
C177  H52   S    
Cu2   O8    S    
N1    C177  S    
N9    H81   S    
C74   O34   A    
C30   N22   S    
C49   C61   A    
C124  C136  A    
C201  H146  S    
C51   C63   A    
C52   C64   A    
C6    O14   A    
Cu10  O39   S    
C22   C158  A    
C198  H134  S    
C19   C147  A    
N2    H53   S    
Cu8   O14   S    
C17   C145  A    
C205  H162  S    
C206  H166  S    
C118  C130  A    
C12   C164  A    
C12   C68   S    
C183  H74   S    
C38   C54   A    
C4    O4    A    
C15   C171  A    
C109  C143  A    
Cu7   O11   S    
C78   O48   A    
C15   C71   S    
C87   O29   A    
Cu5   O29   S    
C207  H171  S    
C128  C136  A    
C111  Br15  S    
C53   H45   S    
Cu2   O2    S    
Cu1   O17   S    
N22   C198  S    
N15   H105  S    
N11   H89   S    
C27   C43   A    
C100  Br4   S    
Cu12  O45   S    
C145  H1    S    
N1    H49   S    
C127  C133  A    
C55   H47   S    
C126  N14   S    
C97   Br1   S    
C160  H16   S    
Cu2   Cu4   S    
C2    C58   S    
C170  H26   S    
C99   Br3   S    
C54   C62   A    
C106  C122  A    
Cu9   Cu10  S    
C82   C90   S    
C23   C135  S    
C101  C117  A    
C6    C62   S    
C205  H163  S    
C201  H148  S    
C41   C57   A    
C181  H66   S    
C14   C174  A    
C120  N8    S    
C165  H21   S    
N3    H57   S    
C32   C48   A    
C75   O35   A    
C44   C60   A    
C154  H10   S    
C76   O36   A    
C163  H19   S    
C92   C93   T    
C108  C124  A    
C81   C89   S    
C49   H41   S    
N5    H65   S    
Cu7   O15   S    
C112  C128  A    
N14   C190  S    
Cu9   O35   S    
C167  H23   S    
N4    H61   S    
C20   C152  A    
Cu5   O25   S    
C8    O12   A    
C79   O43   A    
C80   C141  S    
C176  H32   S    
C153  C169  A    
C195  H122  S    
C190  H103  S    
C82   O18   A    
C147  C163  A    
N13   H97   S    
Cu1   O21   S    
C41   H33   S    
C3    O3    A    
N26   C202  S    
C193  H116  S    
N8    H77   S    
C127  N15   S    
Cu8   O30   S    
C168  H24   S    
N18   H117  S    
N6    H69   S    
C196  H126  S    
C108  Br12  S    
Cu10  O37   S    
N16   H109  S    
C115  C131  A    
C178  H54   S    
C192  H111  S    
C113  C129  A    
C22   C134  S    
C122  N10   S    
C84   O22   A    
C178  H56   S    
C110  C126  A    
C206  H168  S    
C194  H119  S    
C105  C141  A    
C101  Br5   S    
C80   O44   A    
C119  N7    S    
C153  H9    S    
C73   C138  S    
Cu11  O44   S    
C55   C61   A    
C5    O9    A    
N25   C201  S    
C102  C138  A    
C77   O41   A    
C110  C142  A    
C77   C142  S    
C86   C94   S    
C19   C149  A    
Cu6   O32   S    
N10   H85   S    
C73   O37   A    
C180  H63   S    
N19   C195  S    
C100  C140  A    
C208  H174  S    
C102  C118  A    
C102  Br6   S    
C199  H140  S    
Cu12  O47   S    
N9    C185  S    
C159  C175  A    
C187  H91   S    
C156  H12   S    
C106  Br10  S    
C11   C67   S    
C48   C60   A    
C189  H99   S    
C19   C131  S    
C203  H156  S    
C34   C50   A    
C198  H135  S    
C76   O38   A    
C9    C167  A    
C25   C65   A    
N12   C188  S    
C205  H164  S    
C197  H130  S    
C2    O2    A    
N2    C178  S    
C34   N26   S    
N30   H165  S    
C47   H39   S    
C16   C172  A    
C159  H15   S    
C79   C144  S    
C56   C64   A    
C204  H158  S    
C46   H38   S    
C105  C121  A    
N6    C182  S    
C30   C66   A    
Cu2   O24   S    
C109  C125  A    
C183  H75   S    
Cu6   O10   S    
C109  Br13  S    
C111  C127  A    
C50   C62   A    
C97   C113  A    
C196  H128  S    
C173  H29   S    
C188  H94   S    
C22   C154  A    
Cu11  O42   S    
C120  C132  A    
C175  H31   S    
C84   O24   A    
C103  C119  A    
C85   O25   A    
C18   C146  A    
C12   C168  A    
C181  H68   S    
C24   C160  A    
N23   C199  S    
C74   C139  S    
C32   C68   A    
C77   O45   A    
N29   C205  S    
C112  C144  A    
Cu3   O19   S    
Cu5   O13   S    
C78   C143  S    
C88   O30   A    
C200  H142  S    
C178  H55   S    
Cu7   O27   S    
C74   O40   A    
N31   C207  S    
C202  H150  S    
C115  N3    S    
C208  H176  S    
C199  H138  S    
C155  C171  A    
N21   C197  S    
N23   H137  S    
N28   C204  S    
C146  H2    S    
C121  C133  A    
C184  H78   S    
C86   O28   A    
C98   Br2   S    
C3    C59   S    
