data_mof_unit_66737.cif
_audit_creation_date              2012-12-11T14:19:14-0500
_audit_creation_method            fapswitch 2.2
_symmetry_space_group_name_H-M    P1
_symmetry_Int_Tables_number       1
_space_group_crystal_system       triclinic
_cell_length_a                    8.377515
_cell_length_b                    12.823995
_cell_length_c                    15.181129
_cell_angle_alpha                 95.950189
_cell_angle_beta                  99.251637
_cell_angle_gamma                 98.680541
_cell_volume                      1577.56461255

loop_
_atom_site_label
_atom_site_type_symbol
_atom_type_description
_atom_site_fract_x
_atom_site_fract_y
_atom_site_fract_z
_atom_type_partial_charge
Ba1   Ba    Ba6+2 0.153570 0.551840 0.456200 1.649309
Ba2   Ba    Ba6+2 0.656590 0.448150 0.543720 1.632325
C1    C     C_3   0.458738 0.865392 0.137067 -0.360866
C2    C     C_3   0.411802 0.799069 0.210080 0.548023
C3    C     C_3   0.526752 0.788242 0.693518 0.343415
C4    C     C_3   0.498925 0.896663 0.730120 -0.055431
C5    C     C_3   0.952581 0.188722 0.837798 0.437301
C6    C     C_3   0.943004 0.135019 0.923950 -0.231939
C7    C     C_3   0.482072 0.199444 0.782969 0.397759
C8    C     C_3   0.545439 0.155364 0.869741 -0.340701
C9    C     C_R   0.078175 0.183008 0.530817 -0.247793
C10   C     C_R   0.712175 0.818785 0.485864 -0.083108
C11   C     C_R   0.690863 0.992311 0.435988 -0.131998
C12   C     C_3   0.843573 0.799272 0.153324 0.346854
C13   C     C_R   0.621306 0.886575 0.439087 -0.008844
C14   C     C_R   0.881510 0.851610 0.520189 0.047219
C15   C     C_R   0.949845 0.962986 0.521489 -0.059120
C16   C     C_R   0.851436 0.034962 0.480372 -0.034903
C17   C     C_R   0.917303 0.147339 0.485528 0.062906
C18   C     C_R   0.177395 0.113096 0.564938 0.006361
C19   C     C_R   0.113076 0.005231 0.562888 -0.080289
C20   C     C_R   0.236868 0.465058 0.768452 -0.303670
C21   C     C_R   0.137963 0.429876 0.828193 0.007122
C22   C     C_R   0.202235 0.440025 0.920409 -0.162834
C23   C     C_3   0.909542 0.883559 0.098010 -0.083103
C24   C     C_R   0.365881 0.491127 0.955280 0.003211
C25   C     C_R   0.454219 0.542316 0.893371 0.094082
C26   C     C_R   0.394224 0.520740 0.800337 0.075944
C27   C     C_R   0.604762 0.536045 0.087716 -0.140290
C28   C     C_R   0.662740 0.569420 0.178991 0.002917
C29   C     C_R   0.408957 0.480326 0.211782 0.061549
C30   C     C_R   0.343157 0.459747 0.119091 -0.133988
C31   C     C_R   0.437207 0.496231 0.054696 0.000228
C32   C     C_R   0.560849 0.546356 0.240995 -0.246428
C33   C     C_3   0.818389 0.285075 0.262599 0.425731
C34   C     C_3   0.774196 0.239341 0.163080 -0.158548
C35   C     C_3   0.071400 0.683241 0.728124 0.337378
C36   C     C_3   0.059764 0.703186 0.827345 -0.359867
C37   C     C_3   0.262004 0.222867 0.342785 0.309158
C38   C     C_3   0.266071 0.106091 0.313592 -0.184050
H1    H     H_    0.639192 0.228741 0.140239 0.093323
H2    H     H_    0.833282 0.296038 0.122408 0.096625
H3    H     H_    0.195365 0.667553 0.721658 -0.014719
H4    H     H_    0.978966 0.611956 0.698218 0.071153
H5    H     H_    0.145717 0.775824 0.861076 0.128518
H6    H     H_    0.090219 0.635124 0.862086 0.067398
H7    H     H_    0.932769 0.713589 0.833747 0.137770
H8    H     H_    0.155271 0.229422 0.375968 -0.090872
H9    H     H_    0.375416 0.255679 0.391413 0.093153
H10   H     H_    0.352459 0.899484 0.106166 0.126440
H11   H     H_    0.139192 0.064141 0.285378 0.082476
H12   H     H_    0.311060 0.069033 0.373602 0.106156
H13   H     H_    0.523573 0.769103 0.240493 -0.118866
H14   H     H_    0.496482 0.815546 0.082632 0.054983
H15   H     H_    0.642108 0.802744 0.667092 -0.089572
H16   H     H_    0.419094 0.752698 0.641482 0.042111
H17   H     H_    0.612985 0.940119 0.774538 0.071286
H18   H     H_    0.470159 0.938687 0.670882 0.097571
H19   H     H_    0.562655 0.930289 0.165992 0.063359
H20   H     H_    0.073918 0.234754 0.850901 0.025930
H21   H     H_    0.856636 0.058251 0.909505 0.107799
H22   H     H_    0.901235 0.189601 0.973665 0.121529
H23   H     H_    0.563962 0.273188 0.775831 0.134002
H24   H     H_    0.446266 0.107004 0.895940 0.076225
H25   H     H_    0.607528 0.221207 0.923347 0.098502
H26   H     H_    0.803896 0.839133 0.212657 -0.045867
H27   H     H_    0.629779 0.101357 0.855407 0.132183
H28   H     H_    0.616163 0.041713 0.401149 0.105217
H29   H     H_    0.192360 0.955517 0.594121 0.101704
H30   H     H_    0.130883 0.266178 0.534876 0.058008
H31   H     H_    0.693600 0.540656 0.044133 0.079345
H32   H     H_    0.121484 0.407366 0.962857 0.071382
H33   H     H_    0.220840 0.414638 0.099729 0.083030
H34   H     H_    0.608615 0.567155 0.312309 0.084077
H35   H     H_    0.737038 0.747344 0.109670 -0.060990
H36   H     H_    0.187095 0.455427 0.697160 0.062046
H37   H     H_    0.807880 0.924711 0.072619 0.061648
H38   H     H_    0.009320 0.942535 0.141349 0.105289
H39   H     H_    0.952063 0.293407 0.283312 0.085889
O1    O     O_2   0.168170 0.764170 0.543850 -0.478766
O2    O     O_3   0.247541 0.274808 0.266035 -0.652148
O3    O     O_3   0.967473 0.742387 0.182589 -0.551655
O4    O     O_2   0.642110 0.235770 0.456130 -0.451313
O5    O     O_3   0.911620 0.370210 0.454030 -0.510201
O6    O     O_3   0.444310 0.304480 0.619110 -0.488839
O7    O     O_3   0.740786 0.215039 0.313225 -0.662327
O8    O     O_3   0.400800 0.556680 0.607590 -0.502347
O9    O     O_3   0.875770 0.359510 0.664420 -0.461158
O10   O     O_2   0.821591 0.454988 0.819111 -0.489367
O11   O     O_3   0.839159 0.258476 0.825685 -0.613394
O12   O     O_3   0.898670 0.629780 0.545890 -0.490828
O13   O     O_3   0.409490 0.443300 0.392340 -0.495060
O14   O     O_2   0.674250 0.555830 0.719690 -0.447051
O15   O     O_3   0.549379 0.726202 0.762823 -0.615592
O16   O     O_2   0.499286 0.117327 0.543099 -0.481451
O17   O     O_3   0.470563 0.120984 0.709338 -0.619069
O18   O     O_3   0.365980 0.695510 0.380810 -0.471616
O19   O     O_2   0.284202 0.879311 0.435390 -0.478084
O20   O     O_3   0.044351 0.774823 0.688739 -0.627657
O21   O     O_3   0.349638 0.863428 0.272997 -0.585745
O22   O     O_2   0.136040 0.444100 0.280280 -0.468452
O23   O     O_3   0.934510 0.640480 0.335500 -0.467625
O24   O     O_2   0.980110 0.543517 0.181346 -0.474605
P1    P     P_3+3 0.998660 0.747790 0.570900 0.986747
P2    P     P_3+3 0.306970 0.411860 0.294270 0.954636
P3    P     P_3+3 0.881474 0.624900 0.218451 0.969696
P4    P     P_3+3 0.811620 0.252200 0.429030 0.955167
P5    P     P_3+3 0.921534 0.373765 0.783366 0.951938
P6    P     P_3+3 0.406697 0.833557 0.382645 0.974494
P7    P     P_3+3 0.501598 0.590257 0.721189 0.959323
P8    P     P_3+3 0.396917 0.164926 0.607523 0.943455
N1    N     N_3   0.283282 0.710086 0.168250 -0.423617
H40   H     H_    0.322028 0.668818 0.114960 0.124257
H41   H     H_    0.267162 0.657829 0.215482 0.217824
C39   C     C_3   0.830554 0.133024 0.145746 -0.473695
H42   H     H_    0.966547 0.144610 0.155567 0.144757
H43   H     H_    0.787104 0.077278 0.191473 0.141783
H44   H     H_    0.778045 0.097458 0.075502 0.121295
C40   C     C_3   0.376106 0.093236 0.242693 -0.276975
H45   H     H_    0.300069 0.055249 0.177422 0.103262
H46   H     H_    0.444799 0.169807 0.231027 0.142296
H47   H     H_    0.469827 0.045210 0.264675 0.129105
N2    N     N_3   0.362525 0.887651 0.779200 -0.473047
H48   H     H_    0.315367 0.958558 0.779948 0.190615
H49   H     H_    0.408608 0.880338 0.846117 0.184786
N3    N     N_3   0.970919 0.837221 0.020710 -0.503622
H50   H     H_    0.067626 0.798219 0.043194 0.224302
H51   H     H_    0.876925 0.780655 0.981273 0.184922
N4    N     N_3   0.927401 0.110627 0.756882 -0.507664
H52   H     H_    0.984694 0.045759 0.771092 0.142723
H53   H     H_    0.802036 0.080990 0.737416 0.198206
C41   C     C_3   0.109238 0.111088 0.967541 -0.470398
H54   H     H_    0.200454 0.185651 0.987438 0.124668
H55   H     H_    0.095638 0.073067 0.028899 0.153588
H56   H     H_    0.155210 0.055608 0.920422 0.137109
C42   C     C_3   0.317766 0.225816 0.791760 -0.419138
H57   H     H_    0.236957 0.149100 0.790510 0.110041
H58   H     H_    0.331752 0.277841 0.856453 0.073140
H59   H     H_    0.265140 0.266454 0.736227 0.080271
N5    N     N_3   0.628166 0.716939 0.500360 -0.436706
H60   H     H_    0.677212 0.695839 0.561487 0.167381
H61   H     H_    0.517641 0.729076 0.518606 0.173420
N6    N     N_3   0.583267 0.632160 0.921835 -0.488403
H62   H     H_    0.567100 0.677172 0.979920 0.162988
H63   H     H_    0.698330 0.609417 0.924760 0.185478
N7    N     N_3   0.762204 0.386843 0.272470 -0.509118
H64   H     H_    0.654572 0.377221 0.299408 0.143545
H65   H     H_    0.849262 0.441171 0.318124 0.223246

loop_
_geom_bond_atom_site_label_1
_geom_bond_atom_site_label_2
_ccdc_geom_bond_type
Ba1   O8    S    
N3    H50   S    
C2    H13   S    
C4    H18   S    
C3    H16   S    
Ba2   O5    S    
O7    P4    S    
C20   H36   S    
O12   P1    S    
N1    H41   S    
C3    O15   S    
Ba2   O4    S    
C9    H30   S    
N2    H48   S    
O8    P7    S    
C8    H27   S    
Ba1   O5    S    
C9    C17   A    
C24   C25   A    
C35   C36   S    
C11   C16   A    
O1    P1    D    
C23   H37   S    
N5    H61   S    
C16   C17   A    
C3    C4    S    
O9    P5    S    
C33   O7    S    
N2    H49   S    
C39   H42   S    
C27   C31   A    
Ba2   P4    S    
O5    P4    S    
Ba2   O6    S    
Ba1   Ba2   S    
C13   P6    S    
C36   H5    S    
C34   H2    S    
C14   P1    S    
C10   C14   A    
C41   H54   S    
C39   H43   S    
C6    C41   S    
C25   N6    S    
C21   C22   A    
C10   N5    S    
Ba2   O9    S    
C7    C8    S    
C6    H21   S    
O20   P1    S    
C2    N1    S    
O21   P6    S    
Ba1   O12   S    
O19   P6    D    
C20   C26   A    
C28   P3    S    
C29   P2    S    
C4    H17   S    
C34   H1    S    
C4    N2    S    
C42   H59   S    
N1    H40   S    
C1    H10   S    
N7    H65   S    
C40   H46   S    
O22   P2    D    
O17   P8    S    
O2    P2    S    
C9    C18   A    
C36   H6    S    
C28   C32   A    
C23   H38   S    
C5    C6    S    
N5    H60   S    
C37   O2    S    
C42   H58   S    
Ba1   O18   S    
C37   C38   S    
C14   C15   A    
C26   P7    S    
C38   H12   S    
C5    O11   S    
O15   P7    S    
C15   C19   A    
C19   H29   S    
C33   N7    S    
C35   H3    S    
C23   N3    S    
C27   C28   A    
C18   P8    S    
O18   P6    S    
C24   C31   S    
C29   C30   A    
Ba1   P1    S    
C10   C13   A    
C39   H44   S    
C15   C16   A    
C12   H26   S    
C29   C32   A    
Ba2   O8    S    
Ba2   O13   S    
C7    O17   S    
C36   H7    S    
C1    H14   S    
C32   H34   S    
C37   H9    S    
Ba1   O13   S    
C11   C13   A    
C12   O3    S    
C1    C2    S    
Ba1   O22   S    
C5    H20   S    
C35   O20   S    
C22   H32   S    
N7    H64   S    
C8    H25   S    
N6    H63   S    
C1    H19   S    
N3    H51   S    
C7    H23   S    
C3    H15   S    
Ba2   O14   S    
C8    H24   S    
C22   C24   A    
C42   H57   S    
O6    P8    S    
C40   H45   S    
C38   H11   S    
O14   P7    D    
C12   H35   S    
C35   H4    S    
C2    O21   S    
N4    H52   S    
O11   P5    S    
O16   P8    D    
C30   C31   A    
C41   H56   S    
C21   P5    S    
O10   P5    D    
C33   H39   S    
C40   H47   S    
O4    P4    D    
O23   P3    S    
O24   P3    D    
O3    P3    S    
C12   C23   S    
Ba2   O12   S    
C5    N4    S    
C7    C42   S    
O13   P2    S    
C38   C40   S    
C18   C19   A    
C41   H55   S    
C6    H22   S    
C25   C26   A    
Ba1   O1    S    
C20   C21   A    
C33   C34   S    
N4    H53   S    
C34   C39   S    
Ba1   O23   S    
C30   H33   S    
N6    H62   S    
Ba1   P2    S    
C37   H8    S    
C27   H31   S    
C11   H28   S    
C17   P4    S    
