data_mof_unit_34107.cif
_audit_creation_date              2012-12-10T17:07:42-0500
_audit_creation_method            fapswitch 2.2
_symmetry_space_group_name_H-M    P1
_symmetry_Int_Tables_number       1
_space_group_crystal_system       triclinic
_cell_length_a                    19.290818
_cell_length_b                    10.96096
_cell_length_c                    9.988368
_cell_angle_alpha                 110.653909
_cell_angle_beta                  98.483236
_cell_angle_gamma                 94.523459
_cell_volume                      1934.98482886

loop_
_atom_site_label
_atom_site_type_symbol
_atom_type_description
_atom_site_fract_x
_atom_site_fract_y
_atom_site_fract_z
_atom_type_partial_charge
C1    C     C_R   0.496428 0.254252 0.440399 0.859255
C2    C     C_R   0.507300 0.746287 0.558942 0.840942
C3    C     C_2   0.495183 0.113524 0.405471 -0.363323
C4    C     C_2   0.518805 0.887308 0.588980 -0.367699
C5    C     C_2   0.526243 0.069054 0.503927 -0.148764
C6    C     C_2   0.514373 0.929488 0.477922 -0.159202
C7    C     C_2   0.510188 0.507608 0.079408 0.153128
C8    C     C_2   0.494591 0.482878 0.918654 0.160031
C9    C     C_R   0.367483 0.503174 0.500181 0.779477
C10   C     C_R   0.632342 0.502611 0.500774 0.781132
C11   C     C_R   0.264724 0.508595 0.624292 -0.247570
C12   C     C_R   0.729747 0.405631 0.387456 -0.239270
C13   C     C_R   0.192985 0.513217 0.632131 0.113248
C14   C     C_R   0.801329 0.401894 0.378834 0.111513
C15   C     C_R   0.145900 0.514526 0.510549 0.021159
C16   C     C_R   0.852382 0.499053 0.487935 0.019430
C17   C     C_R   0.171511 0.521175 0.389515 -0.221444
C18   C     C_R   0.831400 0.598140 0.600748 -0.212574
C19   C     C_R   0.243411 0.521432 0.382439 0.096149
C20   C     C_R   0.759886 0.602577 0.609601 0.079915
C21   C     C_R   0.290939 0.510546 0.500507 -0.087257
C22   C     C_R   0.708442 0.504355 0.500991 -0.067167
C23   C     C_R   0.928161 0.500236 0.488767 0.400288
C24   C     C_R   0.069586 0.510479 0.505964 0.400393
Cu1   Cu    Cu3+1 0.512140 0.521810 0.644910 0.909173
Cu2   Cu    Cu3+1 0.487860 0.478190 0.355090 0.903292
H1    H     H_    0.300530 0.505022 0.716794 0.151645
H2    H     H_    0.690055 0.331115 0.304621 0.139481
H3    H     H_    0.134529 0.526677 0.299474 0.145097
H4    H     H_    0.871501 0.672561 0.682708 0.144289
H5    H     H_    0.498625 0.860978 0.365655 0.180641
H6    H     H_    0.558010 0.136171 0.606231 0.169657
H7    H     H_    0.532294 0.956536 0.701095 0.156070
H8    H     H_    0.466289 0.045578 0.300019 0.144916
H9    H     H_    0.567745 0.633034 0.927229 0.188801
H10   H     H_    0.421284 0.393700 0.079751 0.185842
N1    N     N_R   0.036127 0.607472 0.482736 -0.247194
N2    N     N_R   0.961497 0.402841 0.511170 -0.244117
N3    N     N_R   0.966567 0.603095 0.475746 -0.244922
N4    N     N_R   0.031155 0.407675 0.519152 -0.243042
N5    N     N_2   0.469620 0.445420 0.137370 -0.318144
N6    N     N_2   0.530380 0.554580 0.862630 -0.315465
O1    O     O_R   0.506480 0.332340 0.577400 -0.579095
O2    O     O_R   0.493520 0.667660 0.422600 -0.596686
O3    O     O_R   0.485980 0.295500 0.332650 -0.568408
O4    O     O_R   0.514020 0.704500 0.667350 -0.566665
O5    O     O_R   0.410390 0.518410 0.622410 -0.596693
O6    O     O_R   0.589610 0.481590 0.377590 -0.587393
O7    O     O_R   0.389900 0.481570 0.377660 -0.572317
O8    O     O_R   0.610100 0.518430 0.622340 -0.573819
C25   C     C_3   0.168809 0.523838 0.773134 -0.421630
C26   C     C_3   0.151420 0.662908 0.851371 -0.335825
C27   C     C_3   0.119142 0.671701 0.984398 -0.840343
H11   H     H_    0.070431 0.598988 0.952489 0.260652
H12   H     H_    0.157639 0.653313 0.066478 0.250122
H13   H     H_    0.104991 0.771973 0.034601 0.245941
H14   H     H_    0.200607 0.735009 0.886324 0.216652
H15   H     H_    0.113217 0.691486 0.777066 0.234207
H16   H     H_    0.122188 0.448674 0.750601 0.220918
H17   H     H_    0.210785 0.502473 0.847453 0.182935
C28   C     C_3   0.821300 0.297087 0.250129 -0.416562
C29   C     C_3   0.840082 0.354618 0.138394 -0.345276
C30   C     C_3   0.864521 0.251951 0.012691 -0.830237
H18   H     H_    0.912293 0.215976 0.053901 0.258825
H19   H     H_    0.821796 0.167564 0.954746 0.250406
H20   H     H_    0.877953 0.296771 0.934282 0.246607
H21   H     H_    0.792765 0.389837 0.094013 0.218371
H22   H     H_    0.883016 0.439560 0.190784 0.233115
H23   H     H_    0.866170 0.252425 0.287880 0.218388
H24   H     H_    0.776501 0.215577 0.195506 0.188902
C31   C     C_3   0.265836 0.538376 0.249533 -0.390177
C32   C     C_3   0.305473 0.677291 0.288704 -0.297392
C33   C     C_3   0.334837 0.690927 0.160163 -0.849765
H25   H     H_    0.372807 0.620124 0.126520 0.257695
H26   H     H_    0.291303 0.672491 0.066448 0.248297
H27   H     H_    0.362957 0.792265 0.192298 0.235658
H28   H     H_    0.268499 0.750640 0.321579 0.207706
H29   H     H_    0.349957 0.701233 0.382107 0.231602
H30   H     H_    0.296396 0.459843 0.195376 0.215524
H31   H     H_    0.218734 0.524078 0.164194 0.170204
C34   C     C_3   0.741141 0.714883 0.733384 -0.406479
C35   C     C_3   0.709596 0.817146 0.679533 -0.327418
C36   C     C_3   0.688408 0.926876 0.803833 -0.856693
H32   H     H_    0.645207 0.886636 0.845349 0.258161
H33   H     H_    0.734382 0.973574 0.894422 0.246226
H34   H     H_    0.669463 0.003253 0.764014 0.240358
H35   H     H_    0.749474 0.860816 0.633339 0.218973
H36   H     H_    0.662196 0.770320 0.592561 0.204901
H37   H     H_    0.704837 0.676969 0.790541 0.220703
H38   H     H_    0.789344 0.765707 0.817451 0.188778
C37   C     C_3   0.435355 0.370578 0.825229 -0.333625
C38   C     C_3   0.452861 0.234645 0.821042 -0.380942
C39   C     C_3   0.395019 0.124617 0.717725 -0.840186
H39   H     H_    0.343419 0.139461 0.753424 0.246493
H40   H     H_    0.390049 0.122783 0.604839 0.262835
H41   H     H_    0.408214 0.028068 0.718325 0.248726
H42   H     H_    0.504175 0.219159 0.786274 0.226565
H43   H     H_    0.458910 0.226520 0.929303 0.215700
H44   H     H_    0.385165 0.390490 0.865447 0.130316
H45   H     H_    0.421778 0.362963 0.713325 0.264432
C40   C     C_3   0.575407 0.606532 0.170069 -0.320621
C41   C     C_3   0.644793 0.553137 0.135137 -0.375778
C42   C     C_3   0.709151 0.654715 0.224525 -0.847019
H46   H     H_    0.708400 0.744219 0.196666 0.247767
H47   H     H_    0.709421 0.682698 0.342769 0.255605
H48   H     H_    0.758445 0.612851 0.200394 0.245853
H49   H     H_    0.648096 0.462035 0.158756 0.240782
H50   H     H_    0.646977 0.526454 0.018082 0.208876
H51   H     H_    0.572552 0.700891 0.153210 0.131658
H52   H     H_    0.577840 0.639462 0.286820 0.252802

loop_
_geom_bond_atom_site_label_1
_geom_bond_atom_site_label_2
_ccdc_geom_bond_type
C28   H24   S    
C30   H19   S    
C39   H39   S    
C17   H3    S    
C33   H25   S    
C19   C31   S    
C1    O3    A    
Cu1   O1    S    
C31   H30   S    
C34   C35   S    
C38   H43   S    
C7    C8    S    
C27   H11   S    
C10   C22   S    
C29   C30   S    
C29   H21   S    
C12   H2    S    
C19   C21   A    
C8    N6    D    
C5    C6    S    
C35   H36   S    
C40   H51   S    
C35   H35   S    
C12   C22   A    
H9    N6    S    
Cu1   O8    S    
C32   H29   S    
Cu2   O3    S    
C24   N4    A    
C13   C25   S    
C1    O1    A    
C2    O2    A    
C41   H50   S    
C18   H4    S    
C37   H45   S    
Cu1   O5    S    
Cu2   O6    S    
C5    H6    S    
C34   H37   S    
C6    H5    S    
C30   H20   S    
C39   H40   S    
C20   C34   S    
C33   H26   S    
H10   N5    S    
C41   C42   S    
C31   H31   S    
C38   H42   S    
C27   H12   S    
Cu2   O2    S    
C25   C26   S    
C40   C41   S    
C9    O7    A    
C4    C6    D    
Cu2   O7    S    
C37   C38   S    
C3    H8    S    
C40   H52   S    
C14   C28   S    
C11   C21   A    
C2    O4    A    
C1    C3    S    
C2    C4    S    
C32   H28   S    
C36   H32   S    
C11   H1    S    
C24   N1    A    
C41   H49   S    
C42   H47   S    
C8    C37   S    
C26   H15   S    
C34   H38   S    
C15   C24   S    
C36   H33   S    
C12   C14   A    
C9    O5    A    
C39   H41   S    
C13   C15   A    
C10   O6    A    
C33   H27   S    
C14   C16   A    
C25   H16   S    
C10   O8    A    
C26   C27   S    
C27   H13   S    
C28   H23   S    
C15   C17   A    
C4    H7    S    
C20   C22   A    
C32   C33   S    
C3    C5    D    
Cu1   N6    S    
C16   C23   S    
C23   N2    A    
C29   H22   S    
Cu1   Cu2   S    
C31   C32   S    
N1    N3    A    
N2    N4    A    
C11   C13   A    
C9    C21   S    
C23   N3    A    
C38   C39   S    
C17   C19   A    
C42   H48   S    
C18   C20   A    
C7    N5    D    
C28   C29   S    
C26   H14   S    
C30   H18   S    
C36   H34   S    
C16   C18   A    
C35   C36   S    
C7    C40   S    
C42   H46   S    
C25   H17   S    
C37   H44   S    
Cu1   O4    S    
Cu2   N5    S    
