data_mof_unit_14697.cif
_audit_creation_date              2012-12-11T17:14:56-0500
_audit_creation_method            fapswitch 2.2
_symmetry_space_group_name_H-M    P1
_symmetry_Int_Tables_number       1
_space_group_crystal_system       triclinic
_cell_length_a                    7.220265
_cell_length_b                    12.140699
_cell_length_c                    21.387866
_cell_angle_alpha                 90.000188
_cell_angle_beta                  90.163261
_cell_angle_gamma                 90.00008
_cell_volume                      1874.83270469

loop_
_atom_site_label
_atom_site_type_symbol
_atom_type_description
_atom_site_fract_x
_atom_site_fract_y
_atom_site_fract_z
_atom_type_partial_charge
O1    O     O_R   0.354460 0.152320 0.595720 -0.537071
O2    O     O_R   0.645540 0.847680 0.404280 -0.537071
O3    O     O_R   0.145540 0.652320 0.404280 -0.537067
O4    O     O_R   0.854460 0.347680 0.595720 -0.537067
O5    O     O_R   0.683670 0.140090 0.727290 -0.520241
O6    O     O_R   0.316330 0.859910 0.272710 -0.520242
O7    O     O_R   0.816330 0.640090 0.272710 -0.520236
O8    O     O_R   0.183670 0.359910 0.727290 -0.520236
O9    O     O_R   0.854010 0.349340 0.727750 -0.517875
O10   O     O_R   0.145990 0.650660 0.272250 -0.517874
O11   O     O_R   0.645990 0.849340 0.272250 -0.517881
O12   O     O_R   0.354010 0.150660 0.727750 -0.517881
C1    C     C_R   0.515908 0.112812 0.747250 0.833846
C2    C     C_R   0.484092 0.887188 0.252750 0.833848
C3    C     C_R   0.984092 0.612812 0.252750 0.833835
C4    C     C_R   0.015907 0.387189 0.747250 0.833834
O13   O     O_R   0.684170 0.139420 0.596190 -0.542598
O14   O     O_R   0.315830 0.860580 0.403810 -0.542599
O15   O     O_R   0.815830 0.639420 0.403810 -0.542598
O16   O     O_R   0.184170 0.360580 0.596190 -0.542598
C5    C     C_R   0.515379 0.113079 0.574433 0.717989
C6    C     C_R   0.484621 0.886921 0.425567 0.717988
C7    C     C_R   0.984620 0.613079 0.425567 0.717986
C8    C     C_R   0.015380 0.386921 0.574433 0.717983
O17   O     O_3   0.520730 0.319480 0.661730 -0.375306
O18   O     O_3   0.479270 0.680520 0.338270 -0.375306
O19   O     O_3   0.979270 0.819480 0.338270 -0.375317
O20   O     O_3   0.020730 0.180520 0.661730 -0.375316
V1    V     V_3+5 0.795560 0.238090 0.661730 1.595771
V2    V     V_3+5 0.204440 0.761910 0.338270 1.595768
V3    V     V_3+5 0.704440 0.738090 0.338270 1.595773
V4    V     V_3+5 0.295560 0.261910 0.661730 1.595773
C9    C     C_R   0.006523 0.465786 0.798988 -0.141777
C10   C     C_R   0.993475 0.534214 0.201012 -0.141776
C11   C     C_R   0.493468 0.965781 0.201010 -0.141791
C12   C     C_R   0.506532 0.034216 0.798988 -0.141787
C13   C     C_R   0.921566 0.645078 0.838603 -0.165767
C14   C     C_R   0.078431 0.354920 0.161399 -0.165763
C15   C     C_R   0.578330 0.145091 0.161399 -0.165778
C16   C     C_R   0.421656 0.854907 0.838598 -0.165774
C17   C     C_R   0.934825 0.571817 0.788844 0.225258
C18   C     C_R   0.065167 0.428181 0.211157 0.225261
C19   C     C_R   0.565105 0.071828 0.211157 0.225249
C20   C     C_R   0.434892 0.928171 0.788840 0.225249
C21   C     C_R   0.057652 0.432048 0.859618 0.188438
C22   C     C_R   0.942352 0.567951 0.140382 0.188440
C23   C     C_R   0.442362 0.932034 0.140380 0.188448
C24   C     C_R   0.557634 0.067959 0.859619 0.188442
C25   C     C_R   0.008575 0.498645 0.911737 0.040504
C26   C     C_R   0.991433 0.501354 0.088264 0.040504
C27   C     C_R   0.491413 0.998640 0.088262 0.040492
C28   C     C_R   0.508575 0.001353 0.911736 0.040493
C29   C     C_R   0.958775 0.609725 0.899619 0.028254
C30   C     C_R   0.041232 0.390272 0.100381 0.028257
C31   C     C_R   0.541155 0.109730 0.100381 0.028243
C32   C     C_R   0.458826 0.890264 0.899616 0.028246
C33   C     C_R   0.009355 0.461168 0.975154 0.078505
C34   C     C_R   0.990659 0.538830 0.024846 0.078504
C35   C     C_R   0.490657 0.961163 0.024844 0.078502
C36   C     C_R   0.509327 0.038829 0.975153 0.078500
C37   C     C_R   0.982811 0.651511 0.009392 -0.114274
C38   C     C_R   0.017207 0.348485 0.990609 -0.114273
C39   C     C_R   0.517127 0.151511 0.990608 -0.114287
C40   C     C_R   0.482853 0.848479 0.009389 -0.114288
C41   C     C_R   0.953833 0.685680 0.948332 -0.175234
C42   C     C_R   0.046182 0.314317 0.051669 -0.175236
C43   C     C_R   0.546073 0.185685 0.051669 -0.175237
C44   C     C_R   0.453899 0.814308 0.948328 -0.175239
H1    H     H_    0.933319 0.772633 0.938992 0.151680
H2    H     H_    0.066696 0.227364 0.061009 0.151678
H3    H     H_    0.566543 0.272642 0.061010 0.151687
H4    H     H_    0.433422 0.727351 0.938987 0.151686
H5    H     H_    0.878158 0.729160 0.829738 0.170306
H6    H     H_    0.121834 0.270836 0.170264 0.170306
H7    H     H_    0.621686 0.229183 0.170265 0.170318
H8    H     H_    0.378295 0.770817 0.829731 0.170317
H9    H     H_    0.000406 0.715142 0.043819 0.213359
H10   H     H_    0.999613 0.284854 0.956183 0.213360
H11   H     H_    0.499517 0.215139 0.956181 0.213374
H12   H     H_    0.500464 0.784850 0.043814 0.213376
C45   C     C_1   0.995021 0.533091 0.478093 -0.107895
C46   C     C_1   0.004978 0.466909 0.521907 -0.107895
C47   C     C_1   0.504978 0.033091 0.521907 -0.107894
C48   C     C_1   0.495022 0.966909 0.478093 -0.107895
Br1   Br    Br    0.766264 0.687992 0.133856 -0.556827
Br2   Br    Br    0.233734 0.312004 0.866140 -0.556832
Br3   Br    Br    0.733687 0.188018 0.866148 -0.556815
Br4   Br    Br    0.266326 0.811966 0.133855 -0.556821
Br5   Br    Br    0.132080 0.377137 0.293133 -0.489018
Br6   Br    Br    0.867896 0.622860 0.706870 -0.489018
Br7   Br    Br    0.368019 0.877120 0.706862 -0.489030
Br8   Br    Br    0.631987 0.122882 0.293134 -0.489029

loop_
_geom_bond_atom_site_label_1
_geom_bond_atom_site_label_2
_ccdc_geom_bond_type
O1    C5    A    
C9    C21   A    
O3    C7    A    
C10   C18   A    
C11   C23   A    
C45   C46   T    
C25   C33   A    
C33   C38   A    
C39   H11   S    
C35   C40   A    
C26   C30   A    
C36   C39   A    
C40   C44   A    
O20   V1    S    
O9    C4    A    
C14   C18   A    
O10   C3    A    
C14   H6    S    
O4    C8    A    
O11   C2    A    
C25   C29   A    
C43   H3    S    
O13   V1    S    
C8    C46   S    
C28   C36   A    
C15   C31   A    
O16   C8    A    
C37   H9    S    
C16   C32   A    
O2    C6    A    
C10   C22   A    
C15   H7    S    
C11   C19   A    
C3    C10   S    
O5    C1    A    
O4    V1    S    
O9    V1    S    
C22   Br1   S    
C13   C29   A    
C34   C37   A    
O7    C3    A    
C17   Br6   S    
O15   V3    S    
C35   C36   A    
O8    C4    A    
O12   V4    S    
O19   V2    S    
C40   H12   S    
O5    V1    S    
C39   C43   A    
O7    V3    S    
C38   C42   A    
C26   C34   A    
C5    C47   S    
C1    C12   S    
C2    C11   S    
C23   C27   A    
C32   C44   A    
O1    V4    S    
O13   C5    A    
C16   H8    S    
O2    V3    S    
C6    C48   S    
O3    V2    S    
O15   C7    A    
C4    C9    S    
O6    C2    A    
O10   V2    S    
C31   C43   A    
C47   C48   T    
C14   C30   A    
C21   C25   A    
C44   H4    S    
C24   Br3   S    
C20   Br7   S    
O14   V2    S    
O6    V2    S    
C16   C20   A    
C12   C20   A    
C27   C35   A    
C29   C41   A    
O16   V4    S    
C13   H5    S    
C7    C45   S    
O14   C6    A    
O18   V3    S    
C38   H10   S    
C15   C19   A    
C30   C42   A    
C22   C26   A    
C19   Br8   S    
C18   Br5   S    
C9    C17   A    
C23   Br4   S    
C21   Br2   S    
C33   C34   A    
C42   H2    S    
O8    V4    S    
O17   V4    S    
C41   H1    S    
C12   C24   A    
C27   C31   A    
C13   C17   A    
O11   V3    S    
C37   C41   A    
C24   C28   A    
O12   C1    A    
C28   C32   A    
