data_mof_unit_36105.cif
_audit_creation_date              2012-12-10T16:54:32-0500
_audit_creation_method            fapswitch 2.2
_symmetry_space_group_name_H-M    P1
_symmetry_Int_Tables_number       1
_space_group_crystal_system       triclinic
_cell_length_a                    15.067364
_cell_length_b                    10.891332
_cell_length_c                    9.762909
_cell_angle_alpha                 91.058106
_cell_angle_beta                  89.69521
_cell_angle_gamma                 89.719575
_cell_volume                      1601.81330753

loop_
_atom_site_label
_atom_site_type_symbol
_atom_type_description
_atom_site_fract_x
_atom_site_fract_y
_atom_site_fract_z
_atom_type_partial_charge
C1    C     C_R   0.501641 0.265361 0.498228 0.930911
C2    C     C_R   0.905898 0.556939 0.401593 0.109076
C3    C     C_R   0.957771 0.375581 0.710323 -0.139427
C4    C     C_R   0.050321 0.375752 0.709259 -0.048585
C5    C     C_R   0.095817 0.439166 0.605148 0.037639
C6    C     C_R   0.047284 0.503237 0.505145 0.026474
C7    C     C_R   0.091817 0.576820 0.407993 -0.012252
C8    C     C_R   0.042342 0.632844 0.304340 -0.067606
C9    C     C_R   0.950469 0.623462 0.301688 -0.165594
C10   C     C_R   0.188340 0.442473 0.599516 -0.265909
C11   C     C_R   0.232502 0.513984 0.503887 -0.183377
C12   C     C_R   0.329184 0.506191 0.500715 0.890449
C13   C     C_R   0.184505 0.592038 0.417052 0.401969
C14   C     C_2   0.528197 0.929865 0.392315 -0.168504
C15   C     C_2   0.514394 0.866415 0.506419 -0.319341
C16   C     C_2   0.541310 0.063092 0.395648 0.446248
C17   C     C_2   0.500399 0.132523 0.493738 -0.350600
C18   C     C_2   0.431858 0.521560 0.926334 -0.061967
C19   C     C_2   0.432519 0.475707 0.070242 0.431349
C20   C     C_R   0.503978 0.734414 0.501351 0.921034
C21   C     C_R   0.671029 0.493848 0.499767 0.864318
C22   C     C_R   0.813770 0.553068 0.401988 -0.247798
C23   C     C_R   0.768034 0.485203 0.499542 -0.154098
C24   C     C_R   0.815300 0.414406 0.596075 0.383550
C25   C     C_R   0.908579 0.427570 0.603887 -0.029680
C26   C     C_R   0.953876 0.495635 0.503500 0.039445
Cu1   Cu    Cu3+1 0.500020 0.500020 0.638630 1.080504
Cu2   Cu    Cu3+1 0.499980 0.499980 0.361370 1.140291
H1    H     H_    0.777160 0.605098 0.327004 0.184720
H2    H     H_    0.515824 0.910397 0.607022 0.178170
H3    H     H_    0.460007 0.090961 0.572406 0.143677
H4    H     H_    0.546931 0.441303 0.885892 0.246810
H5    H     H_    0.924858 0.333861 0.796155 0.231279
H6    H     H_    0.227746 0.390780 0.670600 0.222202
H7    H     H_    0.074147 0.682009 0.222538 0.215447
H8    H     H_    0.914122 0.668836 0.221373 0.161070
H9    H     H_    0.533449 0.882638 0.293603 0.242035
N1    N     N_2   0.499020 0.498660 0.846910 -0.324011
N2    N     N_2   0.499000 0.498630 0.153040 -0.290457
O1    O     O_R   0.500020 0.321960 0.617040 -0.551383
O2    O     O_R   0.499980 0.321920 0.382900 -0.503426
O3    O     O_R   0.370270 0.499990 0.617090 -0.599180
O4    O     O_R   0.370240 0.499950 0.382940 -0.513911
O5    O     O_R   0.500020 0.678080 0.617100 -0.543106
O6    O     O_R   0.499980 0.678040 0.382960 -0.576038
O7    O     O_R   0.629760 0.500050 0.617060 -0.551473
O8    O     O_R   0.629730 0.500010 0.382910 -0.566728
S1    S     S_3+6 0.612121 0.122670 0.266946 0.077195
O9    O     O_2   0.556967 0.175392 0.154310 -0.219190
O10   O     O_2   0.670908 0.220985 0.326264 -0.249235
O11   O     O_3   0.675951 0.008773 0.201064 -0.524784
H10   H     H_    0.711392 0.047516 0.128013 0.386630
C27   C     C_2   0.356931 0.599199 0.881543 0.984525
O12   O     O_2   0.371018 0.688666 0.811141 -0.530851
O13   O     O_R   0.270294 0.572505 0.922585 -0.688283
H11   H     H_    0.225055 0.632202 0.885165 0.342253
S2    S     S_3+6 0.348653 0.366637 0.107868 0.091847
O14   O     O_2   0.323542 0.301094 0.976954 -0.249822
O15   O     O_2   0.379755 0.273036 0.207612 -0.253345
O16   O     O_3   0.257604 0.437420 0.170977 -0.479654
H12   H     H_    0.217595 0.370346 0.198834 0.355112
C28   C     C_2   0.565525 0.582329 0.108929 0.954604
O17   O     O_2   0.546144 0.689259 0.086153 -0.587709
O18   O     O_R   0.653358 0.542005 0.095701 -0.710753
H13   H     H_    0.694780 0.609395 0.065148 0.328684
S3    S     S_3+6 0.760663 0.299692 0.694342 0.026125
O19   O     O_2   0.737261 0.353134 0.832996 -0.273152
O20   O     O_2   0.677948 0.256076 0.624724 -0.277993
O21   O     O_3   0.826895 0.176316 0.713270 -0.525278
H14   H     H_    0.794926 0.123387 0.778384 0.384443
C29   C     C_2   0.095835 0.309776 0.820686 0.905607
O22   O     O_2   0.153661 0.233805 0.793840 -0.536587
O23   O     O_R   0.068904 0.330265 0.956489 -0.733874
H15   H     H_    0.103558 0.278717 0.023318 0.355724
S4    S     S_3+6 0.236918 0.722215 0.343359 0.030423
O24   O     O_2   0.314536 0.761621 0.428915 -0.301912
O25   O     O_2   0.268456 0.690875 0.200766 -0.237370
O26   O     O_3   0.165451 0.841199 0.337497 -0.529945
H16   H     H_    0.198642 0.907175 0.291486 0.392344

loop_
_geom_bond_atom_site_label_1
_geom_bond_atom_site_label_2
_ccdc_geom_bond_type
S3    O20   D    
O13   H11   S    
Cu2   O8    S    
C22   H1    S    
O23   H15   S    
C16   S1    S    
C7    C8    A    
C27   O12   D    
C19   S2    S    
C12   O4    A    
C5    C6    A    
S2    O15   D    
S3    O21   S    
C3    H5    S    
Cu1   N1    S    
Cu2   O2    S    
C18   C19   S    
C12   O3    A    
C18   C27   S    
Cu1   O5    S    
S1    O11   S    
C13   S4    S    
C8    C9    A    
C2    C22   A    
C9    H8    S    
C28   O18   S    
C23   C24   A    
H4    N1    S    
C20   O6    A    
C1    O1    A    
C24   S3    S    
S1    O10   D    
S3    O19   D    
C5    C10   A    
C20   O5    A    
C27   O13   S    
C15   C20   S    
Cu2   O6    S    
O11   H10   S    
C3    C25   A    
C24   C25   A    
C2    C26   A    
C29   O23   S    
O26   H16   S    
C16   C17   D    
S2    O16   S    
Cu2   N2    S    
C25   C26   A    
O16   H12   S    
C8    H7    S    
S4    O24   D    
C28   O17   D    
Cu1   O1    S    
C10   H6    S    
S4    O25   D    
C19   N2    D    
Cu1   O7    S    
C1    O2    A    
S1    O9    D    
C21   C23   S    
C17   H3    S    
C14   C16   S    
C3    C4    A    
C15   H2    S    
C21   O7    A    
N2    C28   S    
C14   C15   D    
C4    C5    A    
C11   C12   S    
C6    C7    A    
Cu2   O4    S    
C1    C17   S    
O18   H13   S    
C18   N1    D    
C29   O22   D    
C14   H9    S    
C11   C13   A    
Cu1   O3    S    
S2    O14   D    
C6    C26   A    
O21   H14   S    
S4    O26   S    
C10   C11   A    
C7    C13   A    
Cu1   Cu2   S    
C22   C23   A    
C2    C9    A    
C4    C29   S    
C21   O8    A    
