data_mof_unit_16380.cif
_audit_creation_date              2012-12-10T18:45:04-0500
_audit_creation_method            fapswitch 2.2
_symmetry_space_group_name_H-M    P1
_symmetry_Int_Tables_number       1
_space_group_crystal_system       triclinic
_cell_length_a                    10.716642
_cell_length_b                    9.909969
_cell_length_c                    10.711584
_cell_angle_alpha                 92.738751
_cell_angle_beta                  92.006516
_cell_angle_gamma                 90.733918
_cell_volume                      1135.47166504

loop_
_atom_site_label
_atom_site_type_symbol
_atom_type_description
_atom_site_fract_x
_atom_site_fract_y
_atom_site_fract_z
_atom_type_partial_charge
C1    C     C_R   0.260182 0.499099 0.499767 0.880367
C2    C     C_R   0.492843 0.504086 0.740274 0.982483
C3    C     C_R   0.650431 0.697354 0.136569 -0.131877
C4    C     C_R   0.540242 0.760100 0.909228 -0.074637
C5    C     C_R   0.671353 0.825861 0.092303 -0.070153
C6    C     C_R   0.605167 0.862057 0.982615 -0.088074
C7    C     C_R   0.531932 0.625935 0.948403 0.004336
C8    C     C_R   0.568880 0.603605 0.071257 0.014012
C9    C     C_R   0.517240 0.491589 0.127966 -0.342962
C10   C     C_R   0.481938 0.513715 0.874282 -0.370509
C11   C     C_R   0.451246 0.389869 0.057852 0.592748
C12   C     C_R   0.739898 0.500181 0.498043 0.856738
C13   C     C_R   0.437430 0.398802 0.930798 0.524570
C14   C     C_R   0.061636 0.378086 0.466097 -0.134577
C15   C     C_R   0.933399 0.378852 0.464590 -0.152832
C16   C     C_R   0.872522 0.499519 0.494967 -0.054400
C17   C     C_R   0.127740 0.497700 0.499028 -0.046899
C18   C     C_2   0.761393 0.918477 0.162992 0.959599
C19   C     C_2   0.593906 0.004947 0.947109 1.006158
C20   C     C_2   0.708704 0.878238 0.617771 0.947701
C21   C     C_2   0.293448 0.857242 0.381274 0.952042
C22   C     C_R   0.939202 0.618638 0.525441 -0.152251
C23   C     C_R   0.066701 0.617452 0.529872 -0.139245
C24   C     C_R   0.598346 0.077732 0.549846 -0.038971
C25   C     C_R   0.402359 0.069214 0.447969 -0.033969
C26   C     C_R   0.598890 0.934957 0.552726 0.074839
C27   C     C_R   0.402121 0.926087 0.445486 0.001035
C28   C     C_R   0.507130 0.496964 0.260634 0.959640
F1    F     F_    0.396940 0.283936 0.112316 -0.596493
F2    F     F_    0.374874 0.297963 0.863509 -0.608300
H1    H     H_    0.696737 0.670814 0.223420 0.162731
H2    H     H_    0.553735 0.134091 0.812296 0.376333
H3    H     H_    0.777057 0.749515 0.742362 0.329069
H4    H     H_    0.227439 0.726154 0.244341 0.339371
H5    H     H_    0.487885 0.789787 0.827455 0.215653
H6    H     H_    0.108579 0.284913 0.441237 0.178601
H7    H     H_    0.882365 0.285843 0.439394 0.184557
H8    H     H_    0.893552 0.711885 0.547839 0.212006
H9    H     H_    0.117091 0.709736 0.558515 0.204553
H10   H     H_    0.675365 0.137824 0.591657 0.165350
H11   H     H_    0.325048 0.121974 0.405628 0.163159
H12   H     H_    0.895103 0.063090 0.157613 0.360350
N1    N     N_R   0.500000 0.857200 0.500000 -0.157398
N2    N     N_R   0.500000 0.142810 0.500000 -0.106470
O1    O     O_R   0.316770 0.614620 0.499990 -0.633371
O2    O     O_R   0.836988 0.006137 0.099178 -0.760664
O3    O     O_2   0.611427 0.097889 0.025256 -0.566603
O4    O     O_R   0.556595 0.033554 0.825205 -0.819666
O5    O     O_2   0.811257 0.932066 0.608947 -0.632088
O6    O     O_R   0.695589 0.773279 0.698231 -0.777883
O7    O     O_2   0.188137 0.890569 0.409127 -0.641138
O8    O     O_R   0.309573 0.763872 0.281815 -0.754603
O9    O     O_R   0.683230 0.614620 0.500010 -0.613320
O10   O     O_R   0.316800 0.385290 0.500000 -0.615159
O11   O     O_R   0.683200 0.385290 0.500000 -0.639276
O12   O     O_R   0.500010 0.614690 0.316770 -0.579429
O13   O     O_R   0.499990 0.614690 0.683230 -0.601146
O14   O     O_R   0.500040 0.385360 0.316770 -0.558737
O15   O     O_R   0.499960 0.385360 0.683230 -0.573434
O16   O     O_2   0.772601 0.914992 0.276856 -0.622279
Zn1   Zn    Zn3+2 0.500000 0.653120 0.500000 1.010273
Zn2   Zn    Zn3+2 0.500000 0.346880 0.500000 1.030539

loop_
_geom_bond_atom_site_label_1
_geom_bond_atom_site_label_2
_ccdc_geom_bond_type
O14   Zn2   S    
C7    C10   A    
C20   O6    S    
C1    O10   A    
O13   Zn1   S    
C20   O5    D    
C28   O14   A    
C25   C27   A    
C11   C13   A    
H4    O8    S    
C12   O9    A    
C14   C15   A    
C3    C5    A    
O1    Zn1   S    
C21   C27   S    
C2    O13   A    
C7    C8    A    
C3    H1    S    
C6    C19   S    
C9    C11   A    
C14   C17   A    
C1    O1    A    
C17   C23   A    
C20   C26   S    
C4    C7    A    
C23   H9    S    
C18   O2    S    
C25   N2    A    
C18   O16   D    
C24   H10   S    
C24   C26   A    
C26   N1    A    
C22   C23   A    
C28   O12   A    
C5    C6    A    
C24   N2    A    
C19   O3    D    
C4    H5    S    
C12   O11   A    
O9    Zn1   S    
C15   C16   A    
C2    C10   S    
O11   Zn2   S    
C27   N1    A    
C13   F2    S    
C21   O7    D    
C21   O8    S    
C11   F1    S    
C4    C6    A    
C3    C8    A    
H12   O2    S    
C25   H11   S    
H2    O4    S    
O12   Zn1   S    
C15   H7    S    
C14   H6    S    
C16   C22   A    
C5    C18   S    
O10   Zn2   S    
N2    Zn2   S    
H3    O6    S    
C2    O15   A    
C1    C17   S    
N1    Zn1   S    
C12   C16   S    
C9    C28   S    
C19   O4    S    
C8    C9    A    
O15   Zn2   S    
C10   C13   A    
C22   H8    S    
