data_mof_unit_44639.cif
_audit_creation_date              2012-12-11T17:14:05-0500
_audit_creation_method            fapswitch 2.2
_symmetry_space_group_name_H-M    P1
_symmetry_Int_Tables_number       1
_space_group_crystal_system       triclinic
_cell_length_a                    18.19584
_cell_length_b                    7.097945
_cell_length_c                    13.02577
_cell_angle_alpha                 89.999921
_cell_angle_beta                  71.992354
_cell_angle_gamma                 89.999959
_cell_volume                      1599.91030203

loop_
_atom_site_label
_atom_site_type_symbol
_atom_type_description
_atom_site_fract_x
_atom_site_fract_y
_atom_site_fract_z
_atom_type_partial_charge
O1    O     O_R   0.453880 0.506200 0.150010 -0.538574
O2    O     O_R   0.546120 0.006200 0.849990 -0.538574
O3    O     O_R   0.604080 0.177770 0.007280 -0.538613
O4    O     O_R   0.395920 0.677770 0.992720 -0.538613
C1    C     C_R   0.635895 0.344508 0.002044 0.732242
C2    C     C_R   0.364105 0.844508 0.997956 0.732244
O5    O     O_R   0.458010 0.176640 0.159130 -0.541090
O6    O     O_R   0.541990 0.676640 0.840870 -0.541090
O7    O     O_R   0.399010 0.004010 0.002930 -0.536616
O8    O     O_R   0.600990 0.504010 0.997070 -0.536616
C3    C     C_R   0.442378 0.344624 0.201621 0.691301
C4    C     C_R   0.557622 0.844624 0.798379 0.691302
O9    O     O_3   0.480810 0.338440 0.948570 -0.374425
O10   O     O_3   0.519190 0.838440 0.051430 -0.374425
V1    V     V_3+5 0.503560 0.064490 0.009540 1.416792
V2    V     V_3+5 0.496440 0.564490 0.990460 1.416791
C5    C     C_R   0.585779 0.795568 0.502645 -0.164506
C6    C     C_R   0.414222 0.295597 0.497356 -0.164506
H1    H     H_    0.665870 0.758463 0.296277 0.123291
H2    H     H_    0.334131 0.258498 0.703724 0.123293
H3    H     H_    0.550321 0.770141 0.450752 0.121924
H4    H     H_    0.449680 0.270184 0.549250 0.121925
C7    C     C_R   0.594208 0.847847 0.681663 -0.027740
C8    C     C_R   0.405792 0.347849 0.318337 -0.027739
C9    C     C_R   0.956003 0.907956 0.383579 0.383525
C10   C     C_R   0.043997 0.407955 0.616420 0.383524
C11   C     C_R   0.923798 0.913967 0.495612 -0.182842
C12   C     C_R   0.076202 0.413965 0.504388 -0.182843
C13   C     C_R   0.845050 0.884371 0.544127 -0.255818
C14   C     C_R   0.154950 0.384369 0.455873 -0.255817
C15   C     C_R   0.795041 0.850508 0.481733 0.078480
C16   C     C_R   0.204959 0.350509 0.518267 0.078481
C17   C     C_R   0.828385 0.834277 0.367710 0.013582
C18   C     C_R   0.171615 0.334282 0.632290 0.013583
C19   C     C_R   0.712923 0.838206 0.528157 0.088972
C20   C     C_R   0.287077 0.338209 0.471843 0.088973
C21   C     C_R   0.666549 0.805973 0.459676 0.138570
C22   C     C_R   0.333451 0.305991 0.540325 0.138569
C23   C     C_R   0.700877 0.784274 0.348752 -0.206894
C24   C     C_R   0.299124 0.284298 0.651249 -0.206896
C25   C     C_R   0.780330 0.798533 0.303344 -0.177969
C26   C     C_R   0.219670 0.298549 0.696656 -0.177968
C27   C     C_R   0.674778 0.858910 0.640059 -0.222029
C28   C     C_R   0.325221 0.358901 0.359941 -0.222024
C29   C     C_R   0.549911 0.815445 0.613062 -0.178148
C30   C     C_R   0.450089 0.315467 0.386938 -0.178152
C31   C     C_R   0.908814 0.863396 0.319525 -0.161509
C32   C     C_R   0.091186 0.363397 0.680475 -0.161508
H5    H     H_    0.705748 0.879279 0.697556 0.099801
H6    H     H_    0.294252 0.379254 0.302443 0.099797
H7    H     H_    0.825010 0.894156 0.630768 0.132967
H8    H     H_    0.174990 0.394155 0.369232 0.132965
H9    H     H_    0.959525 0.950232 0.545510 0.129941
H10   H     H_    0.040475 0.450229 0.454490 0.129942
H11   H     H_    0.803526 0.784149 0.216581 0.123324
H12   H     H_    0.196475 0.284168 0.783420 0.123322
C33   C     C_1   0.216486 0.858653 0.999406 -0.193973
C34   C     C_1   0.783514 0.358653 0.000594 -0.193971
C35   C     C_1   0.283788 0.852519 0.998338 -0.184767
C36   C     C_1   0.716212 0.352519 0.001662 -0.184766
O11   O     O_R   0.899030 0.205490 0.002790 -0.538068
O12   O     O_R   0.100970 0.705490 0.997210 -0.538068
O13   O     O_R   0.042000 0.536370 0.840840 -0.526345
O14   O     O_R   0.958000 0.036370 0.159160 -0.526345
C37   C     C_R   0.056956 0.368611 0.798224 0.736167
C38   C     C_R   0.943043 0.868611 0.201776 0.736169
O15   O     O_R   0.895930 0.535070 0.992690 -0.539287
O16   O     O_R   0.104070 0.035070 0.007310 -0.539286
O17   O     O_R   0.953870 0.707520 0.150040 -0.550604
O18   O     O_R   0.046130 0.207520 0.849960 -0.550603
C39   C     C_R   0.864080 0.366754 0.999058 0.735544
C40   C     C_R   0.135920 0.866754 0.000941 0.735545
O19   O     O_3   0.019200 0.374340 0.051340 -0.376580
O20   O     O_3   0.980800 0.874340 0.948660 -0.376580
V3    V     V_3+5 0.996440 0.648350 0.990470 1.445407
V4    V     V_3+5 0.003560 0.148350 0.009530 1.445407
H13   H     H_    0.487648 0.802504 0.645340 0.108476
H14   H     H_    0.512352 0.302536 0.354661 0.108475
O21   O     O_3   0.030063 0.975680 0.335619 -0.576636
C41   C     C_3   0.084875 0.841591 0.344824 0.050001
H15   H     H_    0.080557 0.712023 0.298705 0.117022
H16   H     H_    0.076566 0.804722 0.430783 0.134652
C42   C     C_3   0.165447 0.927171 0.297656 -0.280423
H17   H     H_    0.172634 0.979730 0.214886 0.199786
H18   H     H_    0.171398 0.048583 0.347945 0.202593
C43   C     C_3   0.229323 0.785873 0.293697 -0.827790
H19   H     H_    0.225056 0.738013 0.376471 0.244343
H20   H     H_    0.286510 0.853938 0.257956 0.230997
H21   H     H_    0.225317 0.663051 0.242890 0.221545
O22   O     O_3   0.969937 0.475682 0.664380 -0.576635
C44   C     C_3   0.915125 0.341593 0.655179 0.049993
H22   H     H_    0.919442 0.212029 0.701300 0.117025
H23   H     H_    0.923433 0.304718 0.569222 0.134653
C45   C     C_3   0.834553 0.427175 0.702345 -0.280425
H24   H     H_    0.827367 0.479744 0.785111 0.199789
H25   H     H_    0.828602 0.548578 0.652051 0.202594
C46   C     C_3   0.770676 0.285873 0.706313 -0.827795
H26   H     H_    0.774941 0.238007 0.623541 0.244342
H27   H     H_    0.713489 0.353938 0.742056 0.230997
H28   H     H_    0.774685 0.163056 0.757121 0.221547

loop_
_geom_bond_atom_site_label_1
_geom_bond_atom_site_label_2
_ccdc_geom_bond_type
C22   C24   A    
O13   C37   A    
C7    C29   A    
C11   C13   A    
C18   C26   A    
O2    C4    A    
C2    O7    A    
C46   H26   S    
O15   V3    S    
C23   C25   A    
O5    C3    A    
C4    C7    S    
O20   V4    S    
C16   C20   A    
C19   C21   A    
C5    C29   A    
H2    C24   S    
C43   H20   S    
C34   C39   S    
C33   C35   T    
C38   O17   A    
C34   C36   T    
C37   O18   A    
C3    C8    S    
C7    C27   A    
C25   H11   S    
C26   H12   S    
O1    C3    A    
C15   C17   A    
C32   C37   S    
C19   C27   A    
C9    C31   A    
C31   C38   S    
C10   C32   A    
O11   C39   A    
C24   C26   A    
O6    V2    S    
C6    H4    S    
O19   V3    S    
C41   C42   S    
C6    C30   A    
C46   H27   S    
O11   V4    S    
O20   V3    S    
C41   H16   S    
C44   H22   S    
C30   H14   S    
C12   H10   S    
C43   H19   S    
C27   H5    S    
O5    V1    S    
C45   C46   S    
C5    H3    S    
C16   C18   A    
O4    V2    S    
C44   H23   S    
C42   H17   S    
O16   C40   A    
O14   V4    S    
O12   C40   A    
O1    V2    S    
C5    C21   A    
C45   H25   S    
O2    V1    S    
H1    C23   S    
O4    C2    A    
C42   H18   S    
O18   V4    S    
C9    C11   A    
C17   C31   A    
O19   V4    S    
C15   C19   A    
O12   V3    S    
C20   C28   A    
O16   V4    S    
C46   H28   S    
O3    V1    S    
C13   H7    S    
C28   H6    S    
C14   H8    S    
C1    C36   S    
C9    O21   S    
C2    C35   S    
C41   H15   S    
O3    C1    A    
C43   H21   S    
C11   H9    S    
C10   O22   S    
C10   C12   A    
C8    C30   A    
C20   C22   A    
C6    C22   A    
C17   C25   A    
C1    O8    A    
C21   C23   A    
O8    V2    S    
C44   C45   S    
C14   C16   A    
O22   C44   S    
O13   V3    S    
C8    C28   A    
C12   C14   A    
O17   V3    S    
O15   C39   A    
C33   C40   S    
O7    V1    S    
C45   H24   S    
O21   C41   S    
C42   C43   S    
C18   C32   A    
C13   C15   A    
O9    V2    S    
O10   V1    S    
C29   H13   S    
O6    C4    A    
O14   C38   A    
