data_mof_unit_20687.cif
_audit_creation_date              2012-12-10T20:55:48-0500
_audit_creation_method            fapswitch 2.2
_symmetry_space_group_name_H-M    P1
_symmetry_Int_Tables_number       1
_space_group_crystal_system       triclinic
_cell_length_a                    15.82898
_cell_length_b                    15.030018
_cell_length_c                    10.809611
_cell_angle_alpha                 89.980092
_cell_angle_beta                  89.987848
_cell_angle_gamma                 89.994186
_cell_volume                      2571.71275198

loop_
_atom_site_label
_atom_site_type_symbol
_atom_type_description
_atom_site_fract_x
_atom_site_fract_y
_atom_site_fract_z
_atom_type_partial_charge
C1    C     C_1   0.250637 0.500638 0.506481 -0.194266
C2    C     C_R   0.423766 0.047096 0.498420 -0.220322
C3    C     C_R   0.955544 0.584308 0.511980 0.389249
C4    C     C_R   0.044437 0.423402 0.543226 0.372158
C5    C     C_R   0.043647 0.585076 0.512483 0.395671
C6    C     C_R   0.956388 0.423695 0.549763 0.373109
C7    C     C_R   0.338834 0.500083 0.500130 0.893413
C8    C     C_R   0.661207 0.499976 0.500339 0.888362
C9    C     C_R   0.499859 0.500008 0.259492 0.901399
C10   C     C_R   0.499707 0.499960 0.741002 0.897578
C11   C     C_R   0.912885 0.503201 0.527389 -0.265044
C12   C     C_1   0.749450 0.500112 0.507736 -0.184615
C13   C     C_R   0.087264 0.504024 0.525342 -0.258343
C14   C     C_1   0.499706 0.807252 0.499423 -0.017857
C15   C     C_1   0.500237 0.192746 0.499443 -0.015567
C16   C     C_1   0.824086 0.501085 0.516390 0.142257
C17   C     C_1   0.176009 0.502261 0.514491 0.125689
C18   C     C_R   0.584853 0.642470 0.104076 0.012731
C19   C     C_R   0.517642 0.331029 0.897186 0.011279
C20   C     C_R   0.479472 0.668428 0.896873 0.016215
C21   C     C_R   0.413089 0.358069 0.105035 0.023740
C22   C     C_R   0.579122 0.727543 0.048616 0.401997
C23   C     C_R   0.499251 0.499855 0.873981 -0.103938
C24   C     C_R   0.472837 0.258801 0.949312 0.372949
C25   C     C_R   0.523532 0.741192 0.948870 0.375948
C26   C     C_R   0.417768 0.272997 0.049474 0.408229
C27   C     C_R   0.499872 0.581631 0.940931 -0.034245
C28   C     C_R   0.469247 0.425071 0.061560 -0.042627
C29   C     C_R   0.529122 0.574990 0.061113 -0.041332
C30   C     C_R   0.498245 0.418097 0.941199 -0.031846
C31   C     C_3   0.123918 0.696287 0.596572 -0.273273
C32   C     C_3   0.906936 0.328277 0.694656 -0.254680
C33   C     C_3   0.886044 0.701957 0.595822 -0.259005
C34   C     C_R   0.499446 0.500013 0.127535 -0.099990
C35   C     C_3   0.096209 0.302771 0.442506 -0.233328
C36   C     C_3   0.407701 0.164633 0.194539 -0.257196
C37   C     C_3   0.570324 0.845442 0.814004 -0.244623
C38   C     C_3   0.425170 0.155660 0.813632 -0.234746
C39   C     C_3   0.588914 0.835677 0.193927 -0.245194
C40   C     C_3   0.660844 0.620867 0.185210 -0.339135
C41   C     C_3   0.712522 0.543454 0.133517 -0.892600
C42   C     C_3   0.597560 0.309619 0.823359 -0.272114
C43   C     C_3   0.669676 0.376221 0.841431 -0.886919
C44   C     C_3   0.399241 0.688591 0.823052 -0.283862
C45   C     C_R   0.499765 0.905056 0.498740 0.084787
C46   C     C_3   0.327791 0.621355 0.842736 -0.882824
C47   C     C_3   0.337838 0.380113 0.187408 -0.360315
C48   C     C_3   0.286536 0.458347 0.137338 -0.893368
C49   C     C_R   0.500150 0.094941 0.498782 0.085079
C50   C     C_R   0.423571 0.953215 0.498528 -0.144737
C51   C     C_R   0.576339 0.046776 0.498964 -0.144175
C52   C     C_R   0.576146 0.952900 0.498817 -0.221241
H1    H     H_    0.364113 0.082410 0.498360 0.134867
H2    H     H_    0.970211 0.314406 0.735074 0.193118
H3    H     H_    0.941319 0.722980 0.652008 0.157093
H4    H     H_    0.844295 0.657611 0.651145 0.139308
H5    H     H_    0.849231 0.762613 0.573172 0.186192
H6    H     H_    0.131444 0.345043 0.375443 0.142444
H7    H     H_    0.033236 0.284721 0.404254 0.187176
H8    H     H_    0.132555 0.240267 0.454583 0.179062
H9    H     H_    0.369838 0.106454 0.224747 0.190781
H10   H     H_    0.410161 0.212177 0.273187 0.150816
H11   H     H_    0.472307 0.140231 0.171836 0.190260
H12   H     H_    0.635799 0.917586 0.499080 0.135634
H13   H     H_    0.555300 0.911054 0.772476 0.199175
H14   H     H_    0.569349 0.795081 0.738577 0.141705
H15   H     H_    0.634793 0.849884 0.854379 0.194973
H16   H     H_    0.439010 0.089594 0.772670 0.196762
H17   H     H_    0.427807 0.205782 0.737934 0.143921
H18   H     H_    0.360346 0.152924 0.853154 0.197524
H19   H     H_    0.587621 0.787970 0.272479 0.151706
H20   H     H_    0.523846 0.859193 0.172277 0.187317
H21   H     H_    0.626235 0.894342 0.223678 0.191840
H22   H     H_    0.676085 0.480490 0.138638 0.255888
H23   H     H_    0.636136 0.081794 0.499340 0.140463
H24   H     H_    0.730401 0.556688 0.035826 0.264959
H25   H     H_    0.771020 0.535098 0.189043 0.261470
H26   H     H_    0.704140 0.678739 0.192184 0.248971
H27   H     H_    0.642288 0.605781 0.280595 0.233451
H28   H     H_    0.655916 0.440719 0.796242 0.252153
H29   H     H_    0.681679 0.386995 0.941499 0.259547
H30   H     H_    0.728005 0.349210 0.798755 0.240429
H31   H     H_    0.623024 0.244564 0.855151 0.221205
H32   H     H_    0.583707 0.300212 0.723846 0.234556
H33   H     H_    0.341701 0.557122 0.796893 0.253653
H34   H     H_    0.363775 0.918193 0.498573 0.137063
H35   H     H_    0.317147 0.610182 0.943057 0.264774
H36   H     H_    0.268529 0.647794 0.802026 0.233213
H37   H     H_    0.373317 0.753668 0.853868 0.223424
H38   H     H_    0.412755 0.697228 0.723278 0.233111
H39   H     H_    0.323525 0.520931 0.142749 0.260001
H40   H     H_    0.267960 0.445917 0.039751 0.271148
H41   H     H_    0.228440 0.466865 0.193754 0.251406
H42   H     H_    0.293989 0.322709 0.194605 0.237468
H43   H     H_    0.357294 0.394401 0.282530 0.234027
H44   H     H_    0.188762 0.669144 0.605664 0.170684
H45   H     H_    0.087070 0.681882 0.682214 0.121271
H46   H     H_    0.129664 0.769642 0.589126 0.189721
H47   H     H_    0.867259 0.268333 0.709078 0.181686
H48   H     H_    0.876287 0.384558 0.744456 0.133975
N1    N     N_1   0.500000 0.270550 0.500000 -0.107757
N2    N     N_1   0.500000 0.729450 0.500000 -0.108153
O1    O     O_R   0.378020 0.573650 0.500040 -0.604099
O2    O     O_3   0.912640 0.344963 0.566594 -0.573843
O3    O     O_3   0.911751 0.661505 0.484288 -0.549673
O4    O     O_3   0.088730 0.344769 0.558658 -0.580849
O5    O     O_3   0.368206 0.203243 0.090717 -0.606691
O6    O     O_3   0.509675 0.826597 0.905818 -0.598181
O7    O     O_3   0.485603 0.173250 0.906168 -0.600450
O8    O     O_3   0.628184 0.797779 0.089443 -0.607019
O9    O     O_R   0.621980 0.426350 0.499960 -0.595822
O10   O     O_R   0.621980 0.573650 0.499960 -0.629337
O11   O     O_R   0.378020 0.426350 0.500040 -0.625336
O12   O     O_R   0.499990 0.573670 0.316780 -0.625991
O13   O     O_R   0.500010 0.426330 0.683220 -0.619474
O14   O     O_R   0.500010 0.573670 0.683220 -0.622094
O15   O     O_R   0.499990 0.426330 0.316780 -0.627247
O16   O     O_3   0.085433 0.664067 0.487487 -0.547875
Zn1   Zn    Zn3+2 0.500000 0.598370 0.500000 0.942105
Zn2   Zn    Zn3+2 0.500000 0.401630 0.500000 0.947879

loop_
_geom_bond_atom_site_label_1
_geom_bond_atom_site_label_2
_ccdc_geom_bond_type
C33   H3    S    
C21   C26   A    
C38   H18   S    
C27   C29   A    
C9    O15   A    
C10   O14   A    
N2    Zn1   S    
C3    O3    S    
C15   C49   S    
C35   H6    S    
C9    O12   A    
C51   H23   S    
C8    O10   A    
C41   H25   S    
C14   N2    T    
C20   C25   A    
C31   H44   S    
C35   H7    S    
C31   H46   S    
C4    C13   A    
C18   C40   S    
C2    C50   A    
C41   H22   S    
C39   O8    S    
C12   C16   T    
C49   C51   A    
C48   H39   S    
C37   H13   S    
C39   H20   S    
C32   O2    S    
C23   C27   A    
C36   H11   S    
C5    C13   A    
O12   Zn1   S    
C19   C42   S    
C46   H33   S    
C33   H4    S    
C39   H21   S    
C38   H17   S    
C28   C34   A    
C7    O1    A    
C36   O5    S    
C44   H37   S    
C36   H10   S    
C32   H2    S    
C20   C44   S    
C44   C46   S    
C14   C45   S    
C46   H36   S    
C48   H41   S    
C42   H31   S    
C51   C52   A    
C23   C30   A    
C33   O3    S    
C37   O6    S    
C4    C6    A    
C52   H12   S    
C8    O9    A    
C6    C11   A    
C45   C52   A    
C22   O8    S    
C43   H28   S    
C4    O4    S    
C29   C34   A    
C22   C25   A    
C32   H48   S    
C35   H8    S    
C31   O16   S    
C2    C49   A    
O11   Zn2   S    
C11   C16   S    
C47   C48   S    
C8    C12   S    
C37   H14   S    
C40   H27   S    
C42   H32   S    
C18   C29   A    
C15   N1    T    
C38   O7    S    
C40   C41   S    
C21   C28   A    
C38   H16   S    
C6    O2    S    
C9    C34   S    
C43   H29   S    
C40   H26   S    
O15   Zn2   S    
C42   C43   S    
C36   H9    S    
C44   H38   S    
C46   H35   S    
C33   H5    S    
C1    C7    S    
N1    Zn2   S    
O1    Zn1   S    
C24   O7    S    
C24   C26   A    
C3    C5    A    
C2    H1    S    
C26   O5    S    
O10   Zn1   S    
C32   H47   S    
C20   C27   A    
C10   C23   S    
C1    C17   T    
O14   Zn1   S    
C13   C17   S    
C5    O16   S    
C7    O11   A    
C18   C22   A    
C19   C24   A    
C35   O4    S    
C41   H24   S    
C45   C50   A    
C37   H15   S    
C28   C30   A    
C47   H42   S    
C31   H45   S    
C3    C11   A    
C50   H34   S    
O13   Zn2   S    
C48   H40   S    
C43   H30   S    
C47   H43   S    
O9    Zn2   S    
C19   C30   A    
C10   O13   A    
C25   O6    S    
C21   C47   S    
C39   H19   S    
