data_mof_unit_55166.cif
_audit_creation_date              2012-12-10T17:04:29-0500
_audit_creation_method            fapswitch 2.2
_symmetry_space_group_name_H-M    P1
_symmetry_Int_Tables_number       1
_space_group_crystal_system       triclinic
_cell_length_a                    14.922335
_cell_length_b                    10.663316
_cell_length_c                    10.087739
_cell_angle_alpha                 91.701946
_cell_angle_beta                  91.093553
_cell_angle_gamma                 90.506571
_cell_volume                      1604.10547026

loop_
_atom_site_label
_atom_site_type_symbol
_atom_type_description
_atom_site_fract_x
_atom_site_fract_y
_atom_site_fract_z
_atom_type_partial_charge
C1    C     C_R   0.497718 0.262648 0.497709 0.982366
C2    C     C_R   0.186375 0.383823 0.498156 -0.101556
C3    C     C_R   0.231707 0.499557 0.494274 -0.164243
C4    C     C_R   0.327459 0.500388 0.498722 0.812914
C5    C     C_R   0.186799 0.613668 0.480452 -0.063965
C6    C     C_2   0.543848 0.933129 0.394442 0.528463
C7    C     C_2   0.537880 0.867809 0.507503 -0.304874
C8    C     C_2   0.546529 0.069807 0.403065 -0.180749
C9    C     C_2   0.494897 0.129937 0.490165 -0.317352
C10   C     C_2   0.546824 0.578906 0.930371 0.051361
C11   C     C_2   0.556855 0.562038 0.077020 -0.154071
C12   C     C_R   0.906327 0.607881 0.500696 0.109100
C13   C     C_R   0.508831 0.737544 0.501908 0.860903
C14   C     C_R   0.672603 0.499337 0.501104 0.946848
C15   C     C_R   0.814240 0.606518 0.510928 -0.237538
C16   C     C_R   0.767877 0.493333 0.502816 -0.068853
C17   C     C_R   0.811249 0.377989 0.483265 -0.072021
C18   C     C_R   0.905016 0.378397 0.471886 0.011709
C19   C     C_R   0.952581 0.493843 0.482700 0.077197
C20   C     C_2   0.565071 0.921571 0.640979 0.414710
C21   C     C_2   0.594655 0.689156 0.880828 0.439385
C22   C     C_2   0.410528 0.482656 0.102297 0.578759
C23   C     C_R   0.952189 0.267024 0.448460 -0.196883
C24   C     C_2   0.758425 0.258926 0.476210 0.385667
C25   C     C_2   0.089298 0.152342 0.387971 0.521439
C26   C     C_2   0.236002 0.271608 0.543706 0.395547
C27   C     C_2   0.239367 0.732127 0.465526 0.427345
C28   C     C_3   0.485243 0.922314 0.180759 -0.252348
C29   C     C_R   0.045394 0.267292 0.442005 -0.001685
C30   C     C_R   0.093434 0.380529 0.472011 0.014552
C31   C     C_R   0.046439 0.495541 0.478855 0.030073
C32   C     C_R   0.093026 0.612455 0.485256 0.083246
C33   C     C_R   0.044822 0.724590 0.501198 -0.110597
C34   C     C_R   0.952449 0.722052 0.509220 -0.185287
H1    H     H_    0.777956 0.693823 0.523544 0.166071
H2    H     H_    0.594728 0.776367 0.939052 0.043472
H3    H     H_    0.375007 0.398002 0.128370 0.029407
H4    H     H_    0.769880 0.188833 0.398447 0.061178
H5    H     H_    0.154704 0.158367 0.343421 0.049064
H6    H     H_    0.304530 0.255757 0.514195 0.030500
H7    H     H_    0.302632 0.746513 0.518868 0.046474
H8    H     H_    0.510873 0.012150 0.142416 0.151787
H9    H     H_    0.418149 0.935467 0.225542 0.178698
H10   H     H_    0.476254 0.855622 0.094978 0.194008
H11   H     H_    0.587090 0.120248 0.333374 0.166193
H12   H     H_    0.451342 0.081632 0.557418 0.120543
H13   H     H_    0.480866 0.418158 0.891816 0.157383
H14   H     H_    0.615194 0.604160 0.127239 0.173629
H15   H     H_    0.916920 0.178930 0.431450 0.176847
H16   H     H_    0.077771 0.814936 0.513283 0.225991
H17   H     H_    0.917060 0.809654 0.523540 0.181910
H18   H     H_    0.530381 0.892787 0.728693 0.074497
N1    N     N_2   0.500970 0.501330 0.852150 -0.171618
N2    N     N_2   0.500990 0.501360 0.147810 -0.175975
O1    O     O_R   0.499990 0.319060 0.613040 -0.587845
O2    O     O_2   0.640535 0.682293 0.782555 -0.537157
O3    O     O_2   0.370042 0.564359 0.044039 -0.579347
O4    O     O_2   0.702401 0.237701 0.559343 -0.510583
O5    O     O_2   0.052168 0.049893 0.390060 -0.557052
O6    O     O_2   0.201649 0.198767 0.619351 -0.538597
O7    O     O_2   0.214753 0.811560 0.388427 -0.540788
O8    O     O_3   0.547476 0.871258 0.270995 -0.593728
O9    O     O_R   0.500010 0.319100 0.386900 -0.655657
O10   O     O_R   0.367830 0.499950 0.613080 -0.602143
O11   O     O_R   0.367860 0.499990 0.386940 -0.630242
O12   O     O_R   0.499990 0.680900 0.613100 -0.616454
O13   O     O_R   0.500010 0.680940 0.386960 -0.539580
O14   O     O_R   0.632140 0.500010 0.613060 -0.524940
O15   O     O_R   0.632170 0.500050 0.386920 -0.643176
O16   O     O_2   0.628083 0.995022 0.654061 -0.491562
Zn1   Zn    Zn3+2 0.499980 0.499970 0.650990 1.033876
Zn2   Zn    Zn3+2 0.500020 0.500030 0.349010 0.975353

loop_
_geom_bond_atom_site_label_1
_geom_bond_atom_site_label_2
_ccdc_geom_bond_type
C8    C9    D    
O15   Zn2   S    
C24   H4    S    
C6    C7    D    
C21   O2    D    
O11   Zn2   S    
C27   O7    D    
C27   H7    S    
C28   H9    S    
O12   Zn1   S    
C12   C15   A    
H13   N1    S    
C30   C31   A    
C2    C30   A    
C5    C32   A    
C19   C31   A    
C32   C33   A    
C6    O8    S    
C22   O3    D    
C33   C34   A    
C11   H14   S    
C1    C9    S    
C9    H12   S    
C2    C26   S    
C21   H2    S    
C25   H5    S    
C22   N2    S    
C26   H6    S    
C34   H17   S    
C29   C30   A    
C11   N2    D    
O14   Zn1   S    
C1    O9    A    
C12   C19   A    
C15   H1    S    
C7    C20   S    
C17   C18   A    
C2    C3    A    
C13   O12   A    
C10   C21   S    
C25   C29   S    
C4    O11   A    
C14   O15   A    
C14   C16   S    
C1    O1    A    
C23   H15   S    
C17   C24   S    
C10   C11   S    
C12   C34   A    
C18   C23   A    
N1    Zn1   S    
C24   O4    D    
C23   C29   A    
C7    C13   S    
N2    Zn2   S    
O9    Zn2   S    
C20   O16   D    
C4    O10   A    
C20   H18   S    
O13   Zn2   S    
C13   O13   A    
O10   Zn1   S    
C28   H8    S    
C10   N1    D    
C14   O14   A    
C8    H11   S    
C18   C19   A    
C6    C8    S    
C25   O5    D    
C33   H16   S    
C5    C27   S    
C22   H3    S    
C26   O6    D    
C28   H10   S    
C31   C32   A    
O1    Zn1   S    
C3    C4    S    
C15   C16   A    
C16   C17   A    
C3    C5    A    
C28   O8    S    
