data_mof_unit_22432.cif
_audit_creation_date              2012-12-10T19:45:40-0500
_audit_creation_method            fapswitch 2.2
_symmetry_space_group_name_H-M    P1
_symmetry_Int_Tables_number       1
_space_group_crystal_system       triclinic
_cell_length_a                    10.841781
_cell_length_b                    14.662101
_cell_length_c                    14.816336
_cell_angle_alpha                 64.926864
_cell_angle_beta                  103.725041
_cell_angle_gamma                 102.910075
_cell_volume                      2052.09009163

loop_
_atom_site_label
_atom_site_type_symbol
_atom_type_description
_atom_site_fract_x
_atom_site_fract_y
_atom_site_fract_z
_atom_type_partial_charge
C1    C     C_R   0.478045 0.119856 0.312614 0.825211
C2    C     C_R   0.524294 0.880274 0.687567 0.825182
C3    C     C_R   0.870270 0.002086 0.493971 -0.086005
C4    C     C_R   0.129499 0.999496 0.504040 -0.084861
C5    C     C_R   0.906541 0.953168 0.441835 0.033514
C6    C     C_R   0.093208 0.049425 0.555125 0.032185
C7    C     C_R   0.459339 0.188215 0.205927 -0.133884
C8    C     C_R   0.553647 0.813769 0.794483 -0.128126
C9    C     C_R   0.354217 0.225524 0.033591 0.414193
C10   C     C_R   0.669217 0.786168 0.963337 0.406362
C11   C     C_R   0.373365 0.157732 0.134133 -0.141915
C12   C     C_R   0.635495 0.851337 0.863236 -0.139721
C13   C     C_R   0.522215 0.287798 0.177583 -0.168923
C14   C     C_R   0.508602 0.710188 0.825968 -0.183523
C15   C     C_R   0.489909 0.362088 0.081030 0.048941
C16   C     C_R   0.553414 0.641107 0.922751 0.076293
C17   C     C_R   0.415065 0.327382 0.005877 0.030415
C18   C     C_R   0.625503 0.680704 0.994313 0.028855
C19   C     C_R   0.534437 0.468496 0.055272 0.012609
C20   C     C_R   0.521912 0.534008 0.950840 0.028651
C21   C     C_R   0.479069 0.490346 0.877403 -0.049702
C22   C     C_R   0.590455 0.513379 0.127731 -0.015722
C23   C     C_R   0.262890 0.999144 0.502494 0.795272
C24   C     C_R   0.736996 0.001318 0.496834 0.791002
C25   C     C_R   0.412910 0.391993 0.904459 -0.202587
C26   C     C_R   0.645271 0.615465 0.095685 -0.204074
C27   C     C_R   0.739035 0.298552 0.643748 -0.227638
C28   C     C_R   0.259120 0.703179 0.354991 -0.234371
C29   C     C_R   0.693287 0.209974 0.626748 0.100420
C30   C     C_R   0.302856 0.788906 0.377351 0.099435
C31   C     C_R   0.512249 0.281736 0.515085 0.047573
C32   C     C_R   0.490900 0.720477 0.478324 0.065094
C33   C     C_R   0.552090 0.374039 0.530314 -0.047819
C34   C     C_R   0.453474 0.631463 0.456723 0.004456
C35   C     C_R   0.672954 0.383648 0.591681 0.054215
C36   C     C_R   0.333256 0.623015 0.394312 0.056974
C37   C     C_R   0.478892 0.457415 0.484093 0.065799
C38   C     C_R   0.528935 0.549845 0.498129 0.097660
C39   C     C_R   0.654065 0.558925 0.551531 -0.264790
C40   C     C_R   0.357612 0.451344 0.423939 -0.228752
C41   C     C_R   0.725647 0.478052 0.598521 0.006866
C42   C     C_R   0.287413 0.533174 0.376344 -0.017910
C43   C     C_R   0.356042 0.093675 0.759081 0.458722
C44   C     C_R   0.643884 0.914901 0.234617 0.460132
C45   C     C_R   0.268646 0.044721 0.701924 -0.141150
C46   C     C_R   0.728963 0.961132 0.295277 -0.143941
C47   C     C_R   0.185723 0.100190 0.616950 0.053978
C48   C     C_R   0.814334 0.904798 0.377573 0.064025
C49   C     C_R   0.188796 0.204378 0.592129 -0.168432
C50   C     C_R   0.816088 0.802802 0.395758 -0.179339
C51   C     C_R   0.275329 0.252697 0.650025 -0.187222
C52   C     C_R   0.731748 0.757276 0.334443 -0.203049
C53   C     C_R   0.359765 0.197707 0.732736 -0.094462
C54   C     C_R   0.644777 0.812859 0.254709 -0.090446
C55   C     C_R   0.963746 0.050195 0.548835 -0.198553
C56   C     C_R   0.036124 0.951998 0.448627 -0.207405
Cu1   Cu    Cu3+1 0.466270 0.918260 0.475690 0.961815
Cu2   Cu    Cu3+1 0.533730 0.081740 0.524310 0.966703
H1    H     H_    0.427501 0.235863 0.776571 0.180730
H2    H     H_    0.579090 0.776863 0.208001 0.184066
H3    H     H_    0.577147 0.730948 0.528516 0.121798
H4    H     H_    0.426963 0.269976 0.464638 0.159150
H5    H     H_    0.244836 0.849719 0.347028 0.136929
H6    H     H_    0.746796 0.146127 0.664102 0.137188
H7    H     H_    0.826402 0.299594 0.696917 0.193534
H8    H     H_    0.165547 0.699696 0.309620 0.191580
H9    H     H_    0.701681 0.630756 0.553928 0.134878
H10   H     H_    0.314894 0.383619 0.410586 0.170799
H11   H     H_    0.266066 0.964059 0.722917 0.142192
H12   H     H_    0.728392 0.040481 0.278646 0.137361
H13   H     H_    0.124921 0.248269 0.527477 0.185084
H14   H     H_    0.882375 0.758401 0.457786 0.159063
H15   H     H_    0.277631 0.333014 0.630332 0.191758
H16   H     H_    0.733390 0.678669 0.349006 0.183812
H17   H     H_    0.935956 0.086507 0.589882 0.166488
H18   H     H_    0.064256 0.916179 0.407284 0.161538
H19   H     H_    0.372194 0.362686 0.846226 0.207133
H20   H     H_    0.692345 0.646098 0.152107 0.207854
H21   H     H_    0.437892 0.684164 0.773825 0.160464
H22   H     H_    0.599398 0.304573 0.231625 0.170710
H23   H     H_    0.673284 0.931432 0.839342 0.205876
H24   H     H_    0.322760 0.080895 0.155799 0.205326
N1    N     N_R   0.584450 0.204570 0.560790 -0.195769
N2    N     N_R   0.415550 0.795430 0.439210 -0.193030
O1    O     O_R   0.455540 0.022090 0.338120 -0.576289
O2    O     O_R   0.544460 0.977910 0.661880 -0.579715
O3    O     O_R   0.512510 0.160150 0.379180 -0.566707
O4    O     O_R   0.487490 0.839850 0.620820 -0.575866
O5    O     O_R   0.291160 0.930970 0.479480 -0.595750
O6    O     O_R   0.708840 0.069030 0.520520 -0.591315
O7    O     O_R   0.348130 0.069020 0.520540 -0.585359
O8    O     O_R   0.651870 0.930980 0.479460 -0.587813
Cl1   Cl    Cl    0.250718 0.179774 0.945829 -0.566353
Cl2   Cl    Cl    0.768585 0.840346 0.046070 -0.569122
C57   C     C_2   0.522654 0.538170 0.777743 0.833249
O9    O     O_2   0.456174 0.523332 0.704771 -0.620495
O10   O     O_R   0.642203 0.598864 0.768749 -0.719148
H25   H     H_    0.659808 0.632604 0.697068 0.335038
C58   C     C_2   0.584891 0.463124 0.236969 0.806832
O11   O     O_2   0.483334 0.418747 0.266539 -0.601557
O12   O     O_R   0.696303 0.469511 0.305846 -0.751212
H26   H     H_    0.683022 0.430306 0.378443 0.340304
C59   C     C_2   0.859079 0.498055 0.648349 0.830671
O13   O     O_2   0.881988 0.548254 0.700051 -0.563886
O14   O     O_R   0.959374 0.463828 0.632387 -0.758293
H27   H     H_    0.045719 0.483564 0.669206 0.349360
C60   C     C_2   0.165687 0.520979 0.308175 0.864922
O15   O     O_2   0.090484 0.442333 0.334595 -0.582305
O16   O     O_R   0.139540 0.597283 0.212224 -0.734474
H28   H     H_    0.054304 0.579492 0.172829 0.357620
Cl3   Cl    Cl    0.460534 0.024633 0.864109 -0.519636
Cl4   Cl    Cl    0.537284 0.985072 0.132379 -0.517443

loop_
_geom_bond_atom_site_label_1
_geom_bond_atom_site_label_2
_ccdc_geom_bond_type
C1    O3    A    
O12   H26   S    
C56   H18   S    
Cu1   O8    S    
C27   C29   A    
C5    C56   A    
C36   C42   A    
C19   C20   A    
C18   C26   A    
C6    C55   A    
Cu2   O3    S    
O10   H25   S    
C53   H1    S    
C39   C41   A    
C54   H2    S    
C15   C19   A    
C26   H20   S    
Cu1   O5    S    
C25   H19   S    
C32   H3    S    
C29   N1    A    
C37   C40   A    
C52   H16   S    
C38   C39   A    
C10   Cl2   S    
Cu2   O2    S    
C31   N1    A    
C50   H14   S    
C3    C55   A    
C43   C53   A    
C57   O9    D    
C44   C46   A    
C49   C51   A    
C50   C52   A    
C60   O15   D    
C23   O5    A    
C2    O4    A    
C23   O7    A    
C42   C60   S    
C8    C12   A    
C55   H17   S    
C40   C42   A    
C29   H6    S    
C1    C7    S    
C30   H5    S    
C4    C56   A    
C60   O16   S    
C31   H4    S    
C3    C24   S    
C43   Cl3   S    
C24   O8    A    
C52   C54   A    
C7    C11   A    
C45   C47   A    
C11   H24   S    
C1    O1    A    
C32   N2    A    
C5    C48   S    
C46   C48   A    
C6    C47   S    
C45   H11   S    
C19   C22   A    
C4    C6    A    
C4    C23   S    
C13   H22   S    
C21   C57   S    
C27   C35   A    
C33   C37   A    
C41   C59   S    
C51   C53   A    
C32   C34   A    
C28   H8    S    
C37   C38   A    
C27   H7    S    
C9    C11   A    
C58   O11   D    
C16   C20   A    
C31   C33   A    
Cu1   N2    S    
C59   O14   S    
C14   H21   S    
C43   C45   A    
C10   C12   A    
Cu2   O6    S    
C44   Cl4   S    
C9    C17   A    
C58   O12   S    
C13   C15   A    
C22   C26   A    
C14   C16   A    
C9    Cl1   S    
Cu2   O7    S    
C15   C17   A    
C21   C25   A    
C8    C14   A    
C22   C58   S    
C34   C38   A    
C39   H9    S    
C2    C8    S    
C51   H15   S    
C3    C5    A    
C24   O6    A    
C57   O10   S    
C47   C49   A    
O14   H27   S    
Cu1   O4    S    
C17   C25   A    
C28   C30   A    
O16   H28   S    
Cu1   Cu2   S    
C49   H13   S    
C10   C18   A    
C48   C50   A    
C33   C35   A    
Cu1   O1    S    
C12   H23   S    
C2    O2    A    
C34   C36   A    
C30   N2    A    
C35   C41   A    
C46   H12   S    
C44   C54   A    
C7    C13   A    
C20   C21   A    
C28   C36   A    
C16   C18   A    
C40   H10   S    
C59   O13   D    
Cu2   N1    S    
