data_mof_unit_16942.cif
_audit_creation_date              2012-12-11T14:52:42-0500
_audit_creation_method            fapswitch 2.2
_symmetry_space_group_name_H-M    P1
_symmetry_Int_Tables_number       1
_space_group_crystal_system       triclinic
_cell_length_a                    20.638701
_cell_length_b                    7.258871
_cell_length_c                    20.367665
_cell_angle_alpha                 90.005926
_cell_angle_beta                  101.496201
_cell_angle_gamma                 90.001821
_cell_volume                      2990.13806995

loop_
_atom_site_label
_atom_site_type_symbol
_atom_type_description
_atom_site_fract_x
_atom_site_fract_y
_atom_site_fract_z
_atom_type_partial_charge
O1    O     O_R   0.673670 0.377510 0.185950 -0.534934
O2    O     O_R   0.326330 0.622490 0.814050 -0.533605
O3    O     O_R   0.826330 0.877510 0.314050 -0.534889
O4    O     O_R   0.173670 0.122490 0.685950 -0.533535
O5    O     O_R   0.806260 0.705340 0.185590 -0.518770
O6    O     O_R   0.193740 0.294660 0.814410 -0.517111
O7    O     O_R   0.693740 0.205340 0.314410 -0.518801
O8    O     O_R   0.306260 0.794660 0.685590 -0.517163
C1    C     C_R   0.825745 0.538942 0.171083 0.757208
C2    C     C_R   0.174259 0.461056 0.828921 0.755438
C3    C     C_R   0.674254 0.038948 0.328916 0.757229
C4    C     C_R   0.325742 0.961050 0.671079 0.755423
O9    O     O_R   0.672940 0.707120 0.178050 -0.541490
O10   O     O_R   0.327060 0.292880 0.821950 -0.543102
O11   O     O_R   0.827060 0.207120 0.321950 -0.541499
O12   O     O_R   0.172940 0.792880 0.678050 -0.543124
O13   O     O_R   0.692060 0.879040 0.306460 -0.535054
O14   O     O_R   0.307940 0.120960 0.693540 -0.535677
O15   O     O_R   0.807940 0.379040 0.193540 -0.535053
O16   O     O_R   0.192060 0.620960 0.806460 -0.535678
C5    C     C_R   0.649157 0.538302 0.161167 0.828480
C6    C     C_R   0.350836 0.461702 0.838843 0.828536
C7    C     C_R   0.850842 0.038317 0.338836 0.828598
C8    C     C_R   0.149164 0.961686 0.661156 0.828689
O17   O     O_3   0.756430 0.544390 0.292140 -0.383725
O18   O     O_3   0.243570 0.455610 0.707860 -0.382119
O19   O     O_3   0.743570 0.044390 0.207860 -0.383733
O20   O     O_3   0.256430 0.955610 0.792140 -0.382123
V1    V     V_3+5 0.748810 0.818610 0.242180 1.564270
V2    V     V_3+5 0.251190 0.181390 0.757820 1.573156
V3    V     V_3+5 0.751190 0.318610 0.257820 1.564218
V4    V     V_3+5 0.248810 0.681390 0.742180 1.573056
C9    C     C_R   0.087282 0.975255 0.609281 -0.104525
C10   C     C_R   0.912729 0.024765 0.390703 -0.104668
C11   C     C_R   0.412716 0.475316 0.890719 -0.104545
C12   C     C_R   0.587271 0.524707 0.109299 -0.104689
C13   C     C_R   0.027484 0.924841 0.422892 -0.242370
C14   C     C_R   0.972532 0.075216 0.577084 -0.247297
C15   C     C_R   0.472556 0.424460 0.077075 -0.242401
C16   C     C_R   0.527421 0.575639 0.922952 -0.247296
C17   C     C_R   0.971083 0.955005 0.373034 -0.070742
C18   C     C_R   0.028933 0.045063 0.626942 -0.054324
C19   C     C_R   0.528948 0.454681 0.126941 -0.070700
C20   C     C_R   0.471030 0.545438 0.873087 -0.054319
C21   C     C_R   0.913163 0.069927 0.458759 -0.077958
C22   C     C_R   0.086849 0.930093 0.541224 -0.087062
C23   C     C_R   0.586812 0.570095 0.041265 -0.077996
C24   C     C_R   0.413176 0.429908 0.958753 -0.087097
C25   C     C_R   0.971297 0.037970 0.508935 0.091226
C26   C     C_R   0.028717 0.962064 0.491045 0.091850
C27   C     C_R   0.528684 0.538118 0.991082 0.091215
C28   C     C_R   0.471299 0.461921 0.008941 0.091828
H1    H     H_    0.071207 0.874154 0.407097 0.108710
H2    H     H_    0.928812 0.125920 0.592877 0.106287
H3    H     H_    0.428858 0.373550 0.092851 0.108742
H4    H     H_    0.571114 0.626598 0.907177 0.106321
C29   C     C_3   0.553179 0.091257 0.529672 0.100575
C30   C     C_3   0.446697 0.908442 0.470227 0.164892
C31   C     C_3   0.946819 0.591227 0.970330 0.100565
C32   C     C_3   0.053305 0.408474 0.029770 0.164887
C33   C     C_3   0.529600 0.908115 0.555319 -0.103342
C34   C     C_3   0.470303 0.091630 0.444529 -0.081880
C35   C     C_3   0.970401 0.408086 0.944680 -0.103297
C36   C     C_3   0.029696 0.591662 0.055473 -0.081848
C37   C     C_1   0.371417 0.967820 0.625596 -0.068395
C38   C     C_1   0.628565 0.032154 0.374382 -0.074410
C39   C     C_1   0.128584 0.467835 0.874403 -0.068422
C40   C     C_1   0.871434 0.532139 0.125619 -0.074449
C41   C     C_3   0.481969 0.167948 0.517147 -0.098161
C42   C     C_3   0.517908 0.831836 0.482706 -0.104716
C43   C     C_3   0.018028 0.667949 0.982857 -0.098165
C44   C     C_3   0.982096 0.331836 0.017291 -0.104715
C45   C     C_3   0.457768 0.983787 0.542424 0.056604
C46   C     C_3   0.542148 0.015983 0.457481 0.059006
C47   C     C_3   0.042232 0.483789 0.957575 0.056585
C48   C     C_3   0.957852 0.515982 0.042520 0.058995
C49   C     C_1   0.410135 0.973147 0.587961 0.108126
C50   C     C_1   0.589828 0.026753 0.411995 0.100526
C51   C     C_1   0.089865 0.473159 0.912038 0.108112
C52   C     C_1   0.910172 0.526742 0.088006 0.100515
C53   C     C_2   0.147095 0.849943 0.522505 0.342469
H5    H     H_    0.142871 0.734258 0.488205 0.065236
O21   O     O_2   0.201805 0.914270 0.544302 -0.540001
C54   C     C_2   0.852916 0.150071 0.477480 0.325456
H6    H     H_    0.857138 0.265774 0.511772 0.061665
O22   O     O_2   0.798207 0.085720 0.455692 -0.548766
C55   C     C_2   0.352963 0.349495 0.977443 0.342615
H7    H     H_    0.357228 0.233706 0.011685 0.065185
O23   O     O_2   0.298234 0.413725 0.955689 -0.539973
C56   C     C_2   0.647031 0.650457 0.022573 0.325614
H8    H     H_    0.642778 0.766283 0.988347 0.061617
O24   O     O_2   0.701751 0.586146 0.044307 -0.548736
C57   C     C_2   0.023265 0.086430 0.697245 0.362636
H9    H     H_    0.982116 0.168674 0.706584 0.098908
O25   O     O_2   0.062382 0.025576 0.745302 -0.522057
C58   C     C_2   0.976753 0.913714 0.302723 0.398945
H10   H     H_    0.017915 0.831520 0.293371 0.099558
O26   O     O_2   0.937623 0.974571 0.254673 -0.504731
C59   C     C_2   0.476664 0.587121 0.802803 0.362771
H11   H     H_    0.517701 0.669913 0.793498 0.098787
O27   O     O_2   0.437649 0.525930 0.754724 -0.522020
C60   C     C_2   0.523301 0.413157 0.197235 0.399009
H12   H     H_    0.482214 0.330600 0.206557 0.099434
O28   O     O_2   0.562362 0.474221 0.245303 -0.504697
C61   C     C_2   0.565021 0.807160 0.616047 0.349521
H13   H     H_    0.615657 0.762758 0.618804 0.045680
O29   O     O_2   0.537339 0.774146 0.662338 -0.522862
C62   C     C_2   0.434785 0.191599 0.383610 0.479233
H14   H     H_    0.384431 0.238083 0.381161 0.065950
O30   O     O_2   0.462003 0.220934 0.336705 -0.508133
C63   C     C_2   0.934981 0.307096 0.883949 0.349472
H15   H     H_    0.884345 0.262684 0.881190 0.045675
O31   O     O_2   0.962666 0.274063 0.837660 -0.522905
C64   C     C_2   0.065212 0.691664 0.116394 0.479222
H16   H     H_    0.115567 0.738159 0.118844 0.065944
O32   O     O_2   0.037993 0.721015 0.163298 -0.508178
N1    N     N_3   0.611479 0.193963 0.561999 -0.666646
H17   H     H_    0.606512 0.220818 0.611158 0.230952
H18   H     H_    0.652215 0.106683 0.564917 0.238969
N2    N     N_3   0.388378 0.805771 0.437930 -0.577468
H19   H     H_    0.393070 0.779999 0.388621 0.254899
H20   H     H_    0.347603 0.892687 0.435448 0.226441
N3    N     N_3   0.888517 0.693900 0.938006 -0.666626
H21   H     H_    0.893482 0.720738 0.888848 0.230933
H22   H     H_    0.847783 0.606604 0.935088 0.238977
N4    N     N_3   0.111627 0.305837 0.062064 -0.577422
H23   H     H_    0.106941 0.280111 0.111377 0.254881
H24   H     H_    0.152401 0.392759 0.064537 0.226448
C65   C     C_2   0.538318 0.646270 0.461978 0.442250
H25   H     H_    0.571278 0.560859 0.497524 0.038147
O33   O     O_2   0.519863 0.593277 0.404456 -0.480689
C66   C     C_2   0.462429 0.353654 0.538618 0.426287
H26   H     H_    0.497049 0.433761 0.574524 0.073822
O34   O     O_2   0.406761 0.412461 0.517795 -0.505200
C67   C     C_2   0.961688 0.146274 0.038016 0.442265
H27   H     H_    0.928714 0.060857 0.002473 0.038134
O35   O     O_2   0.980158 0.093296 0.095536 -0.480697
C68   C     C_2   0.037564 0.853651 0.961387 0.426315
H28   H     H_    0.002946 0.933721 0.925475 0.073789
O36   O     O_2   0.093229 0.912493 0.982216 -0.505194

loop_
_geom_bond_atom_site_label_1
_geom_bond_atom_site_label_2
_ccdc_geom_bond_type
C33   C42   S    
C40   C52   T    
C55   H7    S    
O1    C5    A    
N4    H23   S    
O19   V1    S    
C18   C57   S    
O13   V1    S    
C61   H13   S    
O3    C7    A    
C63   H15   S    
C44   C48   S    
O15   V3    S    
C64   H16   S    
N3    H21   S    
C5    C12   S    
C2    C39   S    
O18   V4    S    
C6    C11   S    
C61   O29   D    
O5    C1    A    
C57   H9    S    
C9    C18   A    
O9    V1    S    
C54   O22   D    
C14   C18   A    
N1    H18   S    
O4    C8    A    
C20   C59   S    
N3    H22   S    
C17   C58   S    
C34   C62   S    
C32   C44   S    
O1    V3    S    
C62   H14   S    
C12   C23   A    
O2    V4    S    
C36   C43   S    
O3    V1    S    
C1    O15   A    
C15   H3    S    
C2    O16   A    
C66   H26   S    
C16   H4    S    
C58   O26   D    
O2    C6    A    
C41   C45   S    
O14   V2    S    
C33   C61   S    
C16   C20   A    
C3    C38   S    
C13   H1    S    
O11   C7    A    
C15   C28   A    
O12   C8    A    
C35   C63   S    
C9    C22   A    
C10   C17   A    
O10   V2    S    
C11   C24   A    
C53   O21   D    
N2    H20   S    
C53   H5    S    
C43   C68   S    
O5    V1    S    
C31   N3    S    
C38   C50   T    
C36   C64   S    
C27   C28   A    
O8    V4    S    
C67   H27   S    
O7    V3    S    
C54   H6    S    
C14   C25   A    
C30   C42   S    
C44   C67   S    
C15   C19   A    
C33   C45   S    
O11   V3    S    
C42   C65   S    
C34   C41   S    
C64   O32   D    
C29   C46   S    
O7    C3    A    
C42   C46   S    
C22   C53   S    
C56   O24   D    
C59   H11   S    
C14   H2    S    
C21   C25   A    
O8    C4    A    
C7    C10   S    
C58   H10   S    
C30   N2    S    
C36   C48   S    
C24   C55   S    
O9    C5    A    
C63   O31   D    
C10   C21   A    
C60   O28   D    
C11   C20   A    
C68   O36   D    
C30   C34   S    
C59   O27   D    
C55   O23   D    
C23   C56   S    
C21   C54   S    
N2    H19   S    
C29   N1    S    
C65   H25   S    
O16   V4    S    
C67   O35   D    
C3    O13   A    
N4    H24   S    
C37   C49   T    
O6    V2    S    
O17   V3    S    
C48   C52   S    
O6    C2    A    
C23   C27   A    
C29   C33   S    
O12   V4    S    
C16   C27   A    
C4    C37   S    
C22   C26   A    
C32   C47   S    
C31   C35   S    
C8    C9    S    
C32   C36   S    
O10   C6    A    
O20   V2    S    
C19   C60   S    
N1    H17   S    
C43   C47   S    
C13   C26   A    
C56   H8    S    
C57   O25   D    
C35   C47   S    
C41   C66   S    
C32   N4    S    
C62   O30   D    
C13   C17   A    
C60   H12   S    
C1    C40   S    
C68   H28   S    
C24   C28   A    
C35   C44   S    
C66   O34   D    
C25   C26   A    
C46   C50   S    
C4    O14   A    
C45   C49   S    
C34   C46   S    
C12   C19   A    
C29   C41   S    
C47   C51   S    
C31   C48   S    
C39   C51   T    
O4    V2    S    
C30   C45   S    
C31   C43   S    
C65   O33   D    
