data_mof_unit_29963.cif
_audit_creation_date              2012-12-11T16:36:08-0500
_audit_creation_method            fapswitch 2.2
_symmetry_space_group_name_H-M    P1
_symmetry_Int_Tables_number       1
_space_group_crystal_system       triclinic
_cell_length_a                    21.596836
_cell_length_b                    21.743472
_cell_length_c                    22.417031
_cell_angle_alpha                 90.180639
_cell_angle_beta                  89.635883
_cell_angle_gamma                 89.589832
_cell_volume                      10526.281901

loop_
_atom_site_label
_atom_site_type_symbol
_atom_type_description
_atom_site_fract_x
_atom_site_fract_y
_atom_site_fract_z
_atom_type_partial_charge
C1    C     C_R   0.415901 0.656202 0.582339 -0.142158
C2    C     C_R   0.580963 0.655412 0.584258 -0.138640
C3    C     C_R   0.875315 0.191904 0.710898 0.593770
C4    C     C_R   0.762564 0.829004 0.249663 0.495310
C5    C     C_R   0.292622 0.204170 0.837004 0.549524
C6    C     C_R   0.840610 0.236909 0.255554 0.502914
C7    C     C_R   0.129609 0.820386 0.703762 0.612520
C8    C     C_R   0.232270 0.854329 0.735669 0.515006
C9    C     C_R   0.821850 0.132818 0.293061 0.610900
C10   C     C_R   0.230776 0.290871 0.874580 0.554875
C11   C     C_R   0.868121 0.811268 0.286483 0.585584
C12   C     C_R   0.769687 0.167941 0.745288 0.532519
C13   C     C_R   0.656596 0.415727 0.417869 -0.142677
C14   C     C_R   0.182899 0.867823 0.289326 0.589116
C15   C     C_R   0.825289 0.759111 0.756546 0.494315
C16   C     C_R   0.128382 0.202103 0.279963 0.581708
C17   C     C_R   0.746518 0.688536 0.601220 -0.317480
C18   C     C_R   0.267369 0.343796 0.334250 -0.369555
C19   C     C_R   0.693724 0.252165 0.596784 -0.345498
C20   C     C_R   0.336217 0.742673 0.352771 -0.357129
C21   C     C_R   0.296861 0.360623 0.702254 -0.369402
C22   C     C_R   0.741456 0.661192 0.347991 -0.369546
C23   C     C_R   0.310822 0.750290 0.592834 -0.353478
C24   C     C_R   0.343391 0.583683 0.582301 -0.158577
C25   C     C_R   0.669333 0.256790 0.355248 -0.375020
C26   C     C_R   0.751586 0.311949 0.404783 -0.343945
C27   C     C_R   0.259022 0.671137 0.649895 -0.370560
C28   C     C_R   0.691083 0.744815 0.401558 -0.311078
C29   C     C_R   0.399400 0.343395 0.742724 -0.357087
C30   C     C_R   0.251129 0.689781 0.400837 -0.339333
C31   C     C_R   0.749228 0.338059 0.639122 -0.374721
C32   C     C_R   0.304050 0.261299 0.397918 -0.300463
C33   C     C_R   0.661128 0.739721 0.652177 -0.365060
C34   C     C_R   0.211156 0.145157 0.198236 -0.407630
C35   C     C_R   0.584085 0.655204 0.416601 -0.158813
C36   C     C_R   0.834073 0.886925 0.770655 -0.402779
C37   C     C_R   0.149919 0.787434 0.195635 -0.414872
C38   C     C_R   0.897926 0.164860 0.763669 -0.432164
C39   C     C_R   0.786428 0.853256 0.197196 -0.410400
C40   C     C_R   0.250433 0.164053 0.863347 -0.403599
C41   C     C_R   0.859444 0.212690 0.200957 -0.393703
C42   C     C_R   0.105184 0.841161 0.759010 -0.417545
C43   C     C_R   0.206889 0.876175 0.788746 -0.378521
C44   C     C_R   0.839809 0.109363 0.236665 -0.419888
C45   C     C_R   0.186922 0.249887 0.896828 -0.355869
C46   C     C_R   0.435580 0.363043 0.609986 -0.147842
C47   C     C_R   0.891007 0.834574 0.232181 -0.406631
C48   C     C_R   0.793667 0.141192 0.796229 -0.391402
C49   C     C_R   0.161606 0.891081 0.234430 -0.408064
C50   C     C_R   0.847953 0.783525 0.809302 -0.411899
C51   C     C_R   0.106624 0.175366 0.227097 -0.403115
C52   C     C_3   0.872160 0.777318 0.581570 0.173651
C53   C     C_3   0.916028 0.756745 0.531516 -0.295998
C54   C     C_3   0.949080 0.811168 0.503153 -1.007868
C55   C     C_3   0.218363 0.333296 0.211145 0.146265
C56   C     C_3   0.180781 0.372642 0.167889 -0.218712
C57   C     C_R   0.344046 0.584262 0.417153 -0.144046
C58   C     C_3   0.215222 0.381458 0.108889 -1.080596
C59   C     C_3   0.776440 0.125491 0.571959 0.208104
C60   C     C_3   0.756193 0.128480 0.506512 -0.368318
C61   C     C_3   0.696142 0.093667 0.495777 -0.777855
C62   C     C_3   0.337872 0.805724 0.235581 0.142211
C63   C     C_3   0.386236 0.848551 0.208511 -0.242677
C64   C     C_3   0.411206 0.823477 0.149361 -1.043138
C65   C     C_3   0.201708 0.256603 0.715893 0.194479
C66   C     C_3   0.188927 0.266729 0.649359 -0.320788
C67   C     C_3   0.164666 0.208365 0.619874 -1.016673
C68   C     C_R   0.656870 0.418424 0.581603 -0.143814
C69   C     C_3   0.797413 0.665247 0.226930 0.144546
C70   C     C_3   0.840421 0.622994 0.190819 -0.244533
C71   C     C_3   0.810485 0.602980 0.132482 -1.037604
C72   C     C_3   0.230678 0.873665 0.558089 0.229957
C73   C     C_3   0.238017 0.942076 0.544528 -0.286957
C74   C     C_3   0.229467 0.981587 0.600529 -0.832013
C75   C     C_3   0.670416 0.199838 0.237440 0.178066
C76   C     C_3   0.665602 0.151387 0.188218 -0.274877
C77   C     C_3   0.639562 0.178910 0.131013 -1.021511
C78   C     C_3   0.879454 0.235670 0.436352 0.198233
C79   C     C_R   0.927532 0.145774 0.102084 -0.142586
C80   C     C_3   0.868990 0.257754 0.500815 -0.384547
C81   C     C_3   0.900727 0.318903 0.513276 -0.756375
C82   C     C_3   0.206446 0.682745 0.770874 0.173693
C83   C     C_3   0.158516 0.676775 0.820906 -0.264921
C84   C     C_3   0.188726 0.657958 0.879475 -1.024859
C85   C     C_3   0.782099 0.867057 0.426077 0.170992
C86   C     C_3   0.762879 0.917344 0.470405 -0.286205
C87   C     C_3   0.818963 0.947663 0.498864 -1.021549
C88   C     C_3   0.414091 0.330855 0.886525 0.183486
C89   C     C_3   0.464236 0.379799 0.878758 -0.328021
C90   C     C_R   0.070237 0.859913 0.892013 -0.145675
C91   C     C_3   0.475185 0.414965 0.936700 -0.997670
C92   C     C_3   0.128202 0.773258 0.433090 0.189890
C93   C     C_3   0.135190 0.750679 0.497527 -0.372129
C94   C     C_3   0.099449 0.691544 0.508980 -0.761328
C95   C     C_3   0.818081 0.330510 0.761081 0.175930
C96   C     C_3   0.779012 0.389001 0.770585 -0.331941
C97   C     C_3   0.770294 0.403279 0.836805 -1.000436
C98   C     C_3   0.193826 0.149491 0.419273 0.198389
C99   C     C_3   0.197679 0.105050 0.471780 -0.295198
C100  C     C_3   0.133209 0.085965 0.492706 -1.024199
C101  C     C_R   0.146343 0.073325 0.101064 -0.146838
C102  C     C_3   0.660240 0.797457 0.772342 0.145770
C103  C     C_3   0.619771 0.843316 0.807002 -0.242535
C104  C     C_3   0.594256 0.814952 0.864193 -1.036631
C105  C     C_3   0.331663 0.204828 0.225008 0.247708
C106  C     C_3   0.400589 0.191288 0.233761 -0.281850
C107  C     C_3   0.422223 0.209106 0.296146 -0.840803
C108  C     C_3   0.776635 0.959102 0.678395 0.213356
C109  C     C_3   0.712286 0.958649 0.707742 -0.349026
C110  C     C_3   0.688253 0.023427 0.719609 -0.912504
C111  C     C_3   0.219318 0.672601 0.221503 0.194921
C112  C     C_R   0.583144 0.343925 0.417404 -0.145455
C113  C     C_R   0.852889 0.925631 0.899891 -0.153870
C114  C     C_3   0.228547 0.606131 0.241740 -0.230080
C115  C     C_3   0.277858 0.573118 0.204298 -1.046688
C116  C     C_3   0.973993 0.231910 0.683114 0.234932
C117  C     C_3   0.976616 0.285298 0.728328 -0.334064
C118  C     C_3   0.042281 0.296460 0.749772 -0.968236
C119  C     C_3   0.670377 0.784652 0.223849 0.245964
C120  C     C_3   0.600003 0.792132 0.228353 -0.279448
C121  C     C_3   0.575776 0.778212 0.290965 -0.839719
C122  C     C_3   0.330991 0.137485 0.763325 0.190294
C123  C     C_3   0.362298 0.076508 0.779664 -0.296867
C124  C     C_R   0.073118 0.854137 0.101612 -0.146215
C125  C     C_3   0.344350 0.025283 0.736531 -0.970618
C126  C     C_3   0.799233 0.332644 0.238222 0.187635
C127  C     C_3   0.808841 0.401122 0.250269 -0.229229
C128  C     C_3   0.757431 0.440176 0.222905 -1.052746
C129  C     C_3   0.034618 0.776556 0.671099 0.199937
C130  C     C_3   0.035614 0.715939 0.705862 -0.339241
C131  C     C_3   0.970587 0.693387 0.719179 -0.922218
C132  C     C_3   0.331737 0.822498 0.753325 0.190643
C133  C     C_3   0.398792 0.830129 0.732566 -0.213750
C134  C     C_3   0.441508 0.782794 0.761519 -1.063598
C135  C     C_R   0.932395 0.140983 0.893207 -0.154318
C136  C     C_3   0.787085 0.036764 0.330952 0.195413
C137  C     C_3   0.722090 0.036596 0.303795 -0.349001
C138  C     C_3   0.699049 0.971715 0.293185 -0.920740
C139  C     C_3   0.224673 0.375440 0.934915 0.215064
C140  C     C_3   0.224686 0.445772 0.934614 -0.273775
C141  C     C_3   0.280998 0.471191 0.901595 -0.851963
C142  C     C_3   0.965083 0.771809 0.319364 0.221103
C143  C     C_3   0.963579 0.710279 0.285706 -0.339269
C144  C     C_3   0.028401 0.687367 0.270200 -0.928764
C145  C     C_3   0.675238 0.217965 0.756372 0.226768
C146  C     C_R   0.853379 0.927298 0.101498 -0.148343
C147  C     C_3   0.661369 0.214644 0.823431 -0.345495
C148  C     C_3   0.617804 0.266602 0.843002 -0.987919
C149  C     C_3   0.215228 0.963962 0.328598 0.201174
C150  C     C_3   0.280861 0.964072 0.302102 -0.345222
C151  C     C_3   0.303325 0.029022 0.290633 -0.921665
C152  C     C_3   0.778808 0.668701 0.783778 0.247660
C153  C     C_3   0.782130 0.598704 0.777129 -0.279530
C154  C     C_3   0.765015 0.577850 0.714319 -0.838005
C155  C     C_3   0.033915 0.253792 0.304293 0.218622
C156  C     C_3   0.044050 0.310800 0.265262 -0.310586
C157  C     C_R   0.157013 0.082417 0.918923 -0.150679
C158  C     C_3   0.983104 0.340012 0.246209 -0.972695
C159  C     C_R   0.925323 0.851928 0.901135 -0.149045
C160  C     C_R   0.073225 0.146424 0.100869 -0.151453
C161  C     C_R   0.141426 0.934160 0.893026 -0.144093
C162  C     C_R   0.855555 0.072614 0.104199 -0.149287
C163  C     C_R   0.085031 0.156018 0.918750 -0.160305
C164  C     C_R   0.655543 0.583580 0.583495 -0.157424
C165  C     C_R   0.927122 0.854887 0.102392 -0.151243
C166  C     C_R   0.857045 0.070557 0.895131 -0.146248
C167  C     C_R   0.144927 0.927604 0.102987 -0.152226
C168  C     C_R   0.765430 0.774597 0.666354 -0.118831
C169  C     C_R   0.219231 0.244543 0.330674 -0.127771
C170  C     C_R   0.783977 0.234473 0.657830 -0.166792
C171  C     C_R   0.231558 0.778716 0.339376 -0.136113
C172  C     C_R   0.308992 0.307320 0.795751 -0.160017
C173  C     C_R   0.778336 0.764823 0.337045 -0.123095
C174  C     C_R   0.223840 0.776902 0.656441 -0.144736
C175  C     C_R   0.345642 0.420821 0.412436 -0.137876
C176  C     C_R   0.775570 0.223281 0.343553 -0.145842
C177  C     C_R   0.192573 0.200867 0.289670 -0.118759
C178  C     C_R   0.807018 0.799310 0.710697 -0.102618
C179  C     C_R   0.189726 0.803780 0.294780 -0.080443
C180  C     C_R   0.810575 0.193663 0.702701 -0.134769
C181  C     C_R   0.803548 0.807445 0.293640 -0.107146
C182  C     C_R   0.280964 0.267739 0.840779 -0.135271
C183  C     C_R   0.819413 0.197068 0.300442 -0.081262
C184  C     C_R   0.194167 0.823179 0.695014 -0.091386
C185  C     C_R   0.683973 0.691359 0.617286 0.011546
C186  C     C_R   0.586444 0.343921 0.580316 -0.161063
C187  C     C_R   0.309945 0.320633 0.374936 0.004208
C188  C     C_R   0.697546 0.314985 0.609474 0.001452
C189  C     C_R   0.313880 0.692847 0.385323 0.009379
C190  C     C_R   0.360923 0.365291 0.697403 0.012767
C191  C     C_R   0.693001 0.683275 0.383556 0.008034
C192  C     C_R   0.307254 0.689332 0.612525 0.028800
C193  C     C_R   0.689293 0.307057 0.388540 0.022070
C194  C     C_R   0.148386 0.149951 0.185522 0.068949
C195  C     C_R   0.849304 0.846960 0.817325 0.065860
C196  C     C_R   0.147388 0.850844 0.187514 0.065665
C197  C     C_R   0.418066 0.655650 0.416516 -0.144846
C198  C     C_R   0.857052 0.142406 0.806875 0.057411
C199  C     C_R   0.850062 0.853024 0.187290 0.066456
C200  C     C_R   0.195388 0.186548 0.888939 0.043203
C201  C     C_R   0.855940 0.149532 0.190386 0.062127
C202  C     C_R   0.144457 0.866049 0.802244 0.058844
C203  C     C_R   0.354763 0.644333 0.596608 0.133586
C204  C     C_R   0.644431 0.354888 0.403727 0.131843
C205  C     C_R   0.641525 0.643918 0.599171 0.127361
C206  C     C_R   0.357734 0.361190 0.395435 0.127398
C207  C     C_R   0.647621 0.357420 0.594269 0.140957
C208  C     C_R   0.361411 0.435860 0.609065 -0.149896
C209  C     C_R   0.357251 0.644719 0.402083 0.135171
C210  C     C_R   0.386383 0.388192 0.642009 0.135655
C211  C     C_R   0.644756 0.641039 0.400770 0.128968
C212  C     C_R   0.876584 0.125012 0.132994 0.126938
C213  C     C_R   0.120137 0.884768 0.860656 0.126959
C214  C     C_R   0.125322 0.125687 0.129909 0.128715
C215  C     C_R   0.872675 0.871965 0.872549 0.128020
C216  C     C_R   0.124409 0.875249 0.131572 0.127461
C217  C     C_R   0.880750 0.119617 0.863309 0.130867
C218  C     C_R   0.874377 0.875858 0.131236 0.127046
C219  C     C_R   0.655898 0.580680 0.415521 -0.137937
C220  C     C_R   0.146614 0.143179 0.904896 0.134278
C221  C     C_R   0.787461 0.731352 0.624131 0.580353
C222  C     C_R   0.223466 0.305440 0.309874 0.530530
C223  C     C_R   0.738484 0.211797 0.618519 0.584215
C224  C     C_R   0.295322 0.784362 0.327602 0.516020
C225  C     C_R   0.270934 0.328187 0.748909 0.595389
C226  C     C_R   0.782673 0.701898 0.322302 0.525274
C227  C     C_R   0.268080 0.794055 0.613074 0.546196
C228  C     C_R   0.712231 0.216338 0.330226 0.517394
C229  C     C_R   0.794849 0.268885 0.384184 0.586862
C230  C     C_R   0.417127 0.345704 0.413710 -0.161590
C231  C     C_R   0.218876 0.714821 0.674205 0.527679
C232  C     C_R   0.735075 0.785661 0.380199 0.578114
C233  C     C_R   0.373541 0.316591 0.793467 0.592277
C234  C     C_R   0.209947 0.734158 0.379855 0.602153
C235  C     C_R   0.790648 0.298446 0.666319 0.569216
C236  C     C_R   0.256933 0.223403 0.377858 0.574798
C237  C     C_R   0.701700 0.780053 0.678988 0.519952
C238  C     C_R   0.233999 0.171691 0.249812 0.499362
C239  C     C_R   0.812588 0.863376 0.716144 0.583219
C240  C     C_R   0.172076 0.763437 0.248814 0.499147
H1    H     H_    0.437671 0.700795 0.580365 0.096617
H2    H     H_    0.558085 0.699760 0.581949 0.098277
H3    H     H_    0.788964 0.707930 0.200966 0.096163
H4    H     H_    0.752571 0.640962 0.233293 0.095310
H5    H     H_    0.884176 0.647335 0.180404 0.192538
H6    H     H_    0.851729 0.581495 0.217586 0.204318
H7    H     H_    0.767393 0.576957 0.141632 0.271565
H8    H     H_    0.843020 0.572743 0.107211 0.273114
H9    H     H_    0.799332 0.643761 0.104710 0.266661
H10   H     H_    0.235427 0.847744 0.515347 0.036807
H11   H     H_    0.183398 0.866298 0.576788 0.094228
H12   H     H_    0.284750 0.950266 0.525198 0.201558
H13   H     H_    0.701559 0.437164 0.419968 0.094609
H14   H     H_    0.203015 0.955907 0.510914 0.156201
H15   H     H_    0.182371 0.975169 0.619619 0.238329
H16   H     H_    0.235416 0.030830 0.589061 0.229518
H17   H     H_    0.264459 0.969123 0.634570 0.303927
H18   H     H_    0.701937 0.236458 0.221157 0.074889
H19   H     H_    0.623544 0.219692 0.245812 0.109182
H20   H     H_    0.712338 0.131935 0.178532 0.197162
H21   H     H_    0.634950 0.113598 0.203398 0.202798
H22   H     H_    0.592326 0.197825 0.139137 0.265546
H23   H     H_    0.636845 0.142614 0.096194 0.270360
H24   H     H_    0.298286 0.562701 0.578811 0.099823
H25   H     H_    0.670119 0.216127 0.114466 0.267697
H26   H     H_    0.859266 0.189027 0.430265 0.058373
H27   H     H_    0.930018 0.229908 0.428628 0.120794
H28   H     H_    0.818651 0.262729 0.510175 0.185245
H29   H     H_    0.888051 0.222661 0.531689 0.187401
H30   H     H_    0.951284 0.314864 0.504572 0.234642
H31   H     H_    0.893411 0.331844 0.560789 0.251496
H32   H     H_    0.880925 0.355755 0.484834 0.260982
H33   H     H_    0.239365 0.719418 0.784013 0.073435
H34   H     H_    0.231776 0.638237 0.766113 0.112448
H35   H     H_    0.562871 0.700385 0.418434 0.101429
H36   H     H_    0.134473 0.721666 0.827550 0.193905
H37   H     H_    0.123655 0.641739 0.808352 0.204857
H38   H     H_    0.211978 0.612510 0.874481 0.268812
H39   H     H_    0.152761 0.654501 0.914897 0.269363
H40   H     H_    0.223253 0.692773 0.893274 0.267092
H41   H     H_    0.805416 0.829531 0.451655 0.094322
H42   H     H_    0.815519 0.886258 0.393249 0.129843
H43   H     H_    0.735001 0.952932 0.447158 0.204367
H44   H     H_    0.733420 0.897064 0.506012 0.208614
H45   H     H_    0.844254 0.914259 0.527153 0.281182
H46   H     H_    0.464830 0.324775 0.622626 0.108206
H47   H     H_    0.803302 0.986393 0.527498 0.263106
H48   H     H_    0.850659 0.965940 0.464075 0.264935
H49   H     H_    0.425934 0.301846 0.925589 0.138248
H50   H     H_    0.368517 0.352881 0.897043 0.078312
H51   H     H_    0.508317 0.357384 0.864480 0.223197
H52   H     H_    0.449995 0.412869 0.843648 0.193916
H53   H     H_    0.431881 0.438048 0.951962 0.262153
H54   H     H_    0.511058 0.450501 0.929251 0.272263
H55   H     H_    0.491578 0.383140 0.972002 0.265849
H56   H     H_    0.152685 0.817952 0.427681 0.071851
H57   H     H_    0.298849 0.563239 0.418905 0.093085
H58   H     H_    0.078749 0.783623 0.424794 0.110711
H59   H     H_    0.184916 0.742792 0.507601 0.183473
H60   H     H_    0.117359 0.786930 0.528294 0.187762
H61   H     H_    0.049919 0.697832 0.497431 0.238455
H62   H     H_    0.102714 0.679302 0.556931 0.239304
H63   H     H_    0.119271 0.653158 0.482038 0.262401
H64   H     H_    0.860482 0.334973 0.788360 0.130713
H65   H     H_    0.793703 0.289697 0.778864 0.067442
H66   H     H_    0.802342 0.428412 0.748765 0.213969
H67   H     H_    0.732476 0.383045 0.750740 0.190989
H68   H     H_    0.700803 0.441713 0.577947 0.095783
H69   H     H_    0.747128 0.364311 0.859579 0.269879
H70   H     H_    0.740985 0.445134 0.842136 0.268654
H71   H     H_    0.815749 0.411799 0.858096 0.265419
H72   H     H_    0.166914 0.190902 0.434283 0.105332
H73   H     H_    0.168586 0.126511 0.382458 0.123491
H74   H     H_    0.224462 0.063394 0.458302 0.201359
H75   H     H_    0.222203 0.127588 0.509314 0.206578
H76   H     H_    0.105534 0.127006 0.506238 0.273325
H77   H     H_    0.137066 0.054906 0.531677 0.280114
H78   H     H_    0.108828 0.061254 0.456427 0.268873
H79   H     H_    0.952136 0.187699 0.110425 0.091607
H80   H     H_    0.701592 0.786400 0.799656 0.093717
H81   H     H_    0.632913 0.754760 0.765438 0.099343
H82   H     H_    0.647469 0.884375 0.818813 0.190682
H83   H     H_    0.580489 0.858379 0.778638 0.207258
H84   H     H_    0.564852 0.774706 0.853583 0.272592
H85   H     H_    0.565555 0.849545 0.888481 0.272964
H86   H     H_    0.632806 0.800098 0.893522 0.266356
H87   H     H_    0.322678 0.254115 0.235295 0.066131
H88   H     H_    0.321067 0.196278 0.177171 0.028650
H89   H     H_    0.409739 0.141493 0.226124 0.196911
H90   H     H_    0.045733 0.818899 0.879922 0.094636
H91   H     H_    0.427750 0.217654 0.200351 0.140169
H92   H     H_    0.414274 0.258981 0.304059 0.241516
H93   H     H_    0.472541 0.199297 0.300272 0.227544
H94   H     H_    0.397072 0.182241 0.330558 0.290715
H95   H     H_    0.771810 0.982527 0.634815 0.124838
H96   H     H_    0.810459 0.987248 0.703305 0.086259
H97   H     H_    0.679380 0.934789 0.677790 0.249820
H98   H     H_    0.714349 0.934161 0.750962 0.219120
H99   H     H_    0.640348 0.021390 0.737730 0.260805
H100  H     H_    0.718033 0.045920 0.753140 0.279448
H101  H     H_    0.188834 0.048882 0.109543 0.090744
H102  H     H_    0.687852 0.050657 0.677789 0.311605
H103  H     H_    0.264376 0.696720 0.225434 0.066575
H104  H     H_    0.204331 0.672556 0.174110 0.098139
H105  H     H_    0.242858 0.605668 0.289299 0.204866
H106  H     H_    0.184069 0.581041 0.237902 0.201034
H107  H     H_    0.264146 0.572206 0.156627 0.270476
H108  H     H_    0.283131 0.525011 0.220090 0.272971
H109  H     H_    0.323097 0.596671 0.208615 0.271136
H110  H     H_    0.998745 0.247047 0.642179 0.122903
H111  H     H_    0.999826 0.190351 0.697769 0.073207
H112  H     H_    0.561114 0.299513 0.420552 0.099044
H113  H     H_    0.809761 0.949230 0.891853 0.096529
H114  H     H_    0.958815 0.327943 0.707104 0.242125
H115  H     H_    0.947713 0.275491 0.768085 0.196191
H116  H     H_    0.042324 0.335214 0.782148 0.280569
H117  H     H_    0.060501 0.254772 0.772363 0.259708
H118  H     H_    0.072453 0.308623 0.711545 0.280063
H119  H     H_    0.683412 0.737647 0.238827 0.065249
H120  H     H_    0.683389 0.789578 0.175967 0.029880
H121  H     H_    0.586714 0.839888 0.215990 0.198647
H122  H     H_    0.577850 0.760179 0.196244 0.144212
H123  H     H_    0.587629 0.730199 0.303422 0.242757
H124  H     H_    0.049204 0.811764 0.109973 0.093814
H125  H     H_    0.524606 0.783605 0.292021 0.227324
H126  H     H_    0.595963 0.810398 0.323998 0.291262
H127  H     H_    0.350142 0.153148 0.719878 0.118153
H128  H     H_    0.280505 0.130326 0.755973 0.068886
H129  H     H_    0.413391 0.082285 0.778558 0.212241
H130  H     H_    0.348679 0.062918 0.825597 0.195227
H131  H     H_    0.368593 0.982086 0.748996 0.278437
H132  H     H_    0.293637 0.017238 0.738675 0.272049
H133  H     H_    0.357751 0.037510 0.690161 0.265084
H134  H     H_    0.753276 0.319797 0.256702 0.085616
H135  H     H_    0.961354 0.179385 0.881167 0.104155
H136  H     H_    0.800192 0.324597 0.189126 0.089065
H137  H     H_    0.809554 0.409335 0.299252 0.208938
H138  H     H_    0.854156 0.415430 0.231272 0.200014
H139  H     H_    0.756503 0.433636 0.173756 0.272407
H140  H     H_    0.765850 0.489512 0.232656 0.274237
H141  H     H_    0.711802 0.427375 0.242173 0.272748
H142  H     H_    0.011102 0.767584 0.628198 0.136173
H143  H     H_    0.006219 0.813126 0.692773 0.081315
H144  H     H_    0.060759 0.680330 0.679331 0.242642
H145  H     H_    0.059618 0.722382 0.748869 0.216516
H146  H     H_    0.810570 0.951554 0.109754 0.093301
H147  H     H_    0.972972 0.648739 0.742983 0.264819
H148  H     H_    0.946616 0.727310 0.748253 0.277243
H149  H     H_    0.944344 0.686985 0.677253 0.308643
H150  H     H_    0.317885 0.774460 0.743233 0.074923
H151  H     H_    0.328961 0.830782 0.802317 0.087742
H152  H     H_    0.401347 0.824455 0.683288 0.214527
H153  H     H_    0.414961 0.877061 0.744058 0.190121
H154  H     H_    0.440867 0.788414 0.810789 0.274782
H155  H     H_    0.489625 0.789322 0.745107 0.274962
H156  H     H_    0.426736 0.735441 0.749831 0.272855
H157  H     H_    0.201578 0.060125 0.923794 0.092953
H158  H     H_    0.784295 0.012919 0.374470 0.136614
H159  H     H_    0.821300 0.009384 0.304822 0.085447
H160  H     H_    0.689320 0.060836 0.334360 0.243610
H161  H     H_    0.722857 0.060425 0.260269 0.222814
H162  H     H_    0.651307 0.973380 0.275144 0.266478
H163  H     H_    0.729606 0.948792 0.260030 0.279211
H164  H     H_    0.698586 0.945337 0.335417 0.307133
H165  H     H_    0.268244 0.358856 0.956234 0.065540
H166  H     H_    0.184546 0.360175 0.962346 0.057710
H167  H     H_    0.181733 0.462984 0.913066 0.202741
H168  H     H_    0.949051 0.808723 0.894174 0.093934
H169  H     H_    0.225087 0.462905 0.981368 0.149529
H170  H     H_    0.324240 0.455831 0.923624 0.235259
H171  H     H_    0.279351 0.522207 0.902452 0.233063
H172  H     H_    0.281531 0.455558 0.854363 0.279575
H173  H     H_    0.989727 0.763551 0.361877 0.125930
H174  H     H_    0.993076 0.807172 0.296275 0.085335
H175  H     H_    0.940416 0.675379 0.314047 0.248667
H176  H     H_    0.937496 0.715518 0.243595 0.215041
H177  H     H_    0.025732 0.641179 0.249147 0.259104
H178  H     H_    0.050046 0.719295 0.237951 0.276110
H179  H     H_    0.049730 0.189577 0.108526 0.094226
H180  H     H_    0.057168 0.683980 0.310961 0.314201
H181  H     H_    0.630566 0.220714 0.732184 0.143954
H182  H     H_    0.699936 0.261058 0.745556 0.055522
H183  H     H_    0.639695 0.169751 0.834070 0.219327
H184  H     H_    0.705117 0.218671 0.848865 0.190357
H185  H     H_    0.638608 0.311962 0.832697 0.264507
H186  H     H_    0.609465 0.263813 0.891841 0.273376
H187  H     H_    0.572655 0.262732 0.819854 0.279259
H188  H     H_    0.217067 0.987968 0.372346 0.123099
H189  H     H_    0.181899 0.991423 0.302121 0.088083
H190  H     H_    0.179121 0.964298 0.881570 0.100883
H191  H     H_    0.313036 0.941167 0.333649 0.247435
H192  H     H_    0.281546 0.938883 0.259012 0.221753
H193  H     H_    0.352338 0.027697 0.275389 0.262613
H194  H     H_    0.274888 0.049770 0.254956 0.279529
H195  H     H_    0.299923 0.057385 0.331847 0.304733
H196  H     H_    0.731922 0.684641 0.770349 0.060796
H197  H     H_    0.785675 0.679710 0.831789 0.033285
H198  H     H_    0.829669 0.582295 0.787686 0.200766
H199  H     H_    0.749515 0.577486 0.809497 0.143610
H200  H     H_    0.717467 0.593656 0.703362 0.244614
H201  H     H_    0.813633 0.048484 0.114794 0.095226
H202  H     H_    0.766307 0.526916 0.711701 0.224177
H203  H     H_    0.798339 0.596340 0.681124 0.289192
H204  H     H_    0.007721 0.268915 0.344613 0.142802
H205  H     H_    0.003681 0.219183 0.282963 0.090249
H206  H     H_    0.070713 0.345365 0.290865 0.247469
H207  H     H_    0.070446 0.297929 0.224504 0.207561
H208  H     H_    0.992515 0.382198 0.219983 0.253463
H209  H     H_    0.957194 0.307527 0.217636 0.283886
H210  H     H_    0.954870 0.352911 0.285956 0.306350
H211  H     H_    0.063416 0.200944 0.921191 0.095926
H212  H     H_    0.700869 0.562136 0.582088 0.101833
H213  H     H_    0.951280 0.812508 0.111392 0.096851
H214  H     H_    0.815241 0.046055 0.885410 0.092210
H215  H     H_    0.187010 0.951758 0.112589 0.097546
H216  H     H_    0.763935 0.652476 0.572066 0.152774
H217  H     H_    0.270601 0.390751 0.318451 0.154480
H218  H     H_    0.655370 0.234019 0.571519 0.160329
H219  H     H_    0.385076 0.746780 0.342452 0.150489
H220  H     H_    0.267102 0.376850 0.666810 0.153535
H221  H     H_    0.744368 0.613007 0.335728 0.154331
H222  H     H_    0.347489 0.764392 0.562791 0.157658
H223  H     H_    0.301178 0.444089 0.413022 0.102265
H224  H     H_    0.620915 0.251823 0.344164 0.145931
H225  H     H_    0.767148 0.349939 0.432034 0.156331
H226  H     H_    0.255370 0.623689 0.664004 0.149349
H227  H     H_    0.654935 0.761541 0.431263 0.153585
H228  H     H_    0.449279 0.346688 0.738543 0.156735
H229  H     H_    0.233795 0.652665 0.428195 0.155051
H230  H     H_    0.754674 0.386904 0.646444 0.152809
H231  H     H_    0.335776 0.244499 0.431482 0.152571
H232  H     H_    0.612238 0.743477 0.662787 0.152091
H233  H     H_    0.242783 0.122610 0.167380 0.148022
H234  H     H_    0.566322 0.298639 0.577276 0.096472
H235  H     H_    0.840408 0.935600 0.777563 0.145391
H236  H     H_    0.135615 0.756589 0.160365 0.149553
H237  H     H_    0.946820 0.161766 0.772816 0.150286
H238  H     H_    0.755104 0.870643 0.163569 0.153346
H239  H     H_    0.258580 0.115159 0.859451 0.146972
H240  H     H_    0.875509 0.243508 0.166402 0.144813
H241  H     H_    0.056582 0.837920 0.769810 0.143757
H242  H     H_    0.237008 0.898487 0.820450 0.148983
H243  H     H_    0.842256 0.060640 0.227703 0.146371
H244  H     H_    0.145325 0.267901 0.917774 0.142910
H245  H     H_    0.440526 0.699871 0.419288 0.098389
H246  H     H_    0.939993 0.839217 0.223827 0.145482
H247  H     H_    0.762150 0.121648 0.828664 0.149770
H248  H     H_    0.154500 0.939663 0.227357 0.146612
H249  H     H_    0.863534 0.752999 0.844320 0.153652
H250  H     H_    0.057835 0.173745 0.217320 0.143184
H251  H     H_    0.835029 0.806485 0.561349 0.097568
H252  H     H_    0.897846 0.805783 0.614280 0.126499
H253  H     H_    0.951057 0.724235 0.549557 0.205641
H254  H     H_    0.889223 0.732204 0.496707 0.207618
H255  H     H_    0.915250 0.842899 0.482245 0.277291
H256  H     H_    0.322613 0.465063 0.621105 0.105308
H257  H     H_    0.980997 0.794116 0.467911 0.265670
H258  H     H_    0.976361 0.836454 0.537028 0.264570
H259  H     H_    0.225739 0.287179 0.190707 0.094627
H260  H     H_    0.264089 0.355767 0.217487 0.095161
H261  H     H_    0.135843 0.350152 0.158710 0.189246
H262  H     H_    0.171357 0.418405 0.188400 0.202153
H263  H     H_    0.259748 0.405454 0.116406 0.275157
H264  H     H_    0.186438 0.409767 0.078486 0.266109
H265  H     H_    0.224524 0.336274 0.087220 0.264869
H266  H     H_    0.822190 0.148162 0.577299 0.046672
H267  H     H_    0.700456 0.557762 0.417715 0.098084
H268  H     H_    0.784367 0.076763 0.584060 0.103601
H269  H     H_    0.749706 0.177144 0.492888 0.183744
H270  H     H_    0.793284 0.107924 0.478060 0.189382
H271  H     H_    0.700821 0.045186 0.510553 0.238422
H272  H     H_    0.685337 0.094123 0.447418 0.238017
H273  H     H_    0.657202 0.115928 0.520417 0.266578
H274  H     H_    0.297724 0.802932 0.204911 0.103212
H275  H     H_    0.359229 0.759061 0.239432 0.096584
H276  H     H_    0.365277 0.894638 0.200882 0.194334
H277  H     H_    0.425318 0.853739 0.240135 0.202811
H278  H     H_    0.437935 0.300312 0.414405 0.103461
H279  H     H_    0.434145 0.778163 0.156158 0.268564
H280  H     H_    0.445772 0.855867 0.130743 0.270330
H281  H     H_    0.372980 0.818302 0.116840 0.269969
H282  H     H_    0.242123 0.224972 0.720572 0.051328
H283  H     H_    0.161991 0.232423 0.736556 0.138871
H284  H     H_    0.154549 0.304395 0.643533 0.210424
H285  H     H_    0.232414 0.280167 0.626316 0.192265
H286  H     H_    0.198643 0.170127 0.624760 0.267591
H287  H     H_    0.157244 0.216828 0.571612 0.273369
H288  H     H_    0.119854 0.194841 0.640406 0.263069
N1    N     N_R   0.440580 0.604630 0.559510 -0.040100
N2    N     N_R   0.559420 0.604630 0.559510 -0.040218
N3    N     N_R   0.604630 0.440580 0.440490 -0.041067
N4    N     N_R   0.395370 0.559420 0.559510 -0.039341
N5    N     N_R   0.559420 0.604630 0.440490 -0.038358
N6    N     N_R   0.440580 0.395370 0.559510 -0.041771
N7    N     N_R   0.395370 0.559420 0.440490 -0.040202
N8    N     N_R   0.604630 0.440580 0.559510 -0.039710
N9    N     N_R   0.940580 0.104630 0.059510 -0.040363
N10   N     N_R   0.059420 0.895370 0.940490 -0.040472
N11   N     N_R   0.104630 0.059420 0.059510 -0.038389
N12   N     N_R   0.559420 0.395370 0.440490 -0.039629
N13   N     N_R   0.895370 0.940580 0.940490 -0.039043
N14   N     N_R   0.059420 0.895370 0.059510 -0.039897
N15   N     N_R   0.940580 0.104630 0.940490 -0.040846
N16   N     N_R   0.895370 0.940580 0.059510 -0.039505
N17   N     N_R   0.104630 0.059420 0.940490 -0.039585
N18   N     N_R   0.940580 0.895370 0.940490 -0.039015
N19   N     N_R   0.059420 0.104630 0.059510 -0.037951
N20   N     N_R   0.104630 0.940580 0.940490 -0.042605
N21   N     N_R   0.895370 0.059420 0.059510 -0.039892
N22   N     N_R   0.059420 0.104630 0.940490 -0.038705
N23   N     N_R   0.604630 0.559420 0.559510 -0.038847
N24   N     N_R   0.940580 0.895370 0.059510 -0.039414
N25   N     N_R   0.895370 0.059420 0.940490 -0.040287
N26   N     N_R   0.104630 0.940580 0.059510 -0.040108
N27   N     N_R   0.395370 0.440580 0.440490 -0.041581
N28   N     N_R   0.559420 0.395370 0.559510 -0.039280
N29   N     N_R   0.440580 0.604630 0.440490 -0.040334
N30   N     N_R   0.395370 0.440580 0.559510 -0.041744
N31   N     N_R   0.604630 0.559420 0.440490 -0.040614
N32   N     N_R   0.440580 0.395370 0.440490 -0.038728
Ni1   Ni    Ni4+2 0.500000 0.603690 0.500000 0.207655
Ni2   Ni    Ni4+2 0.500000 0.396310 0.500000 0.208776
Ni3   Ni    Ni4+2 0.603690 0.500000 0.500000 0.207110
Ni4   Ni    Ni4+2 0.396310 0.500000 0.500000 0.208859
Ni5   Ni    Ni4+2 0.000000 0.103690 0.000000 0.212009
Ni6   Ni    Ni4+2 1.000000 0.896310 0.000000 0.214870
Ni7   Ni    Ni4+2 0.103690 0.000000 0.000000 0.212234
Ni8   Ni    Ni4+2 0.896310 0.000000 0.000000 0.215253
O1    O     O_3   0.849727 0.724421 0.611012 -0.660179
O2    O     O_3   0.175924 0.697632 0.717131 -0.670886
O3    O     O_3   0.728826 0.847030 0.395492 -0.658751
O4    O     O_3   0.412351 0.291749 0.836060 -0.624367
O5    O     O_3   0.147469 0.727690 0.391572 -0.627612
O6    O     O_3   0.837499 0.323031 0.700859 -0.655316
O7    O     O_3   0.254478 0.163775 0.399633 -0.660589
O8    O     O_3   0.679296 0.824593 0.718023 -0.674993
O9    O     O_3   0.296450 0.167017 0.263323 -0.623914
O10   O     O_3   0.798631 0.898878 0.665995 -0.673804
O11   O     O_3   0.173646 0.700428 0.258127 -0.644475
O12   O     O_3   0.184903 0.327144 0.265281 -0.674012
O13   O     O_3   0.912436 0.218107 0.666297 -0.655531
O14   O     O_3   0.699167 0.829387 0.259948 -0.616864
O15   O     O_3   0.345073 0.182797 0.806776 -0.624266
O16   O     O_3   0.846543 0.299211 0.267016 -0.641716
O17   O     O_3   0.095199 0.795901 0.656699 -0.673933
O18   O     O_3   0.294039 0.864947 0.722471 -0.627088
O19   O     O_3   0.807155 0.097275 0.343057 -0.673680
O20   O     O_3   0.219134 0.353523 0.875825 -0.613079
O21   O     O_3   0.904825 0.792955 0.334608 -0.671085
O22   O     O_3   0.706404 0.164492 0.735515 -0.639384
O23   O     O_3   0.729965 0.149374 0.610452 -0.615077
O24   O     O_3   0.194610 0.903460 0.340029 -0.675823
O25   O     O_3   0.824723 0.695958 0.747491 -0.617690
O26   O     O_3   0.090685 0.228369 0.324410 -0.681142
O27   O     O_3   0.317579 0.830405 0.290905 -0.675215
O28   O     O_3   0.208732 0.313432 0.746395 -0.634400
O29   O     O_3   0.826262 0.680452 0.281505 -0.671662
O30   O     O_3   0.277184 0.854945 0.598198 -0.600961
O31   O     O_3   0.693324 0.171878 0.289859 -0.676050
O32   O     O_3   0.856982 0.279128 0.394764 -0.613132

loop_
_geom_bond_atom_site_label_1
_geom_bond_atom_site_label_2
_ccdc_geom_bond_type
N17   Ni7   S    
C186  N28   A    
C112  H112  S    
C75   C76   S    
C126  C127  S    
N7    N29   A    
C169  C236  A    
C165  H213  S    
N19   Ni5   S    
C11   C181  A    
C163  H211  S    
C47   C199  A    
C114  C115  S    
C69   O29   S    
C15   O25   S    
C45   C200  A    
C76   H20   S    
C140  H167  S    
C222  O12   S    
C67   H288  S    
C78   H26   S    
C3    O13   S    
C137  H160  S    
C87   H47   S    
C7    C184  A    
C106  C107  S    
C131  H148  S    
C135  C217  A    
C84   H39   S    
C105  H87   S    
C240  O11   S    
C108  C109  S    
C166  N25   A    
C30   C189  A    
C11   O21   S    
C46   N6    A    
C10   O20   S    
C136  O19   S    
C111  O11   S    
C162  H201  S    
C236  O7    S    
C71   H7    S    
C85   O3    S    
C56   H261  S    
C201  C212  S    
C125  H133  S    
C73   H12   S    
C113  N13   A    
C34   C194  A    
C49   H248  S    
C128  H141  S    
C208  N30   A    
C59   C60   S    
C29   C190  A    
C35   H35   S    
C48   H247  S    
C199  C218  S    
C197  N29   A    
C94   H62   S    
C60   H269  S    
C223  O23   S    
C79   C212  A    
C57   C209  A    
C41   H240  S    
C147  H184  S    
C145  C147  S    
C118  H117  S    
C46   H46   S    
C146  N16   A    
C140  C141  S    
C125  H132  S    
C174  C184  S    
C20   C189  A    
C167  H215  S    
C95   O6    S    
C90   H90   S    
C106  H91   S    
C46   C210  A    
C115  H109  S    
C164  N23   A    
C122  H128  S    
C52   H251  S    
C156  H206  S    
C102  O8    S    
C174  C227  A    
C102  H81   S    
C179  C240  A    
N16   Ni8   S    
C144  H177  S    
C50   C195  A    
C89   H52   S    
C175  N27   A    
C75   H18   S    
N29   Ni1   S    
C208  H256  S    
C68   C207  A    
C20   C224  A    
C47   H246  S    
C145  H181  S    
C153  H198  S    
C29   C233  A    
N13   Ni8   S    
C55   H259  S    
C114  H106  S    
C51   H250  S    
C137  H161  S    
C49   C196  A    
C226  O29   S    
C54   H255  S    
C64   H281  S    
C200  C220  S    
C88   H50   S    
C112  C204  A    
C229  O32   S    
N1    Ni1   S    
C57   N7    A    
C5    C182  A    
C17   H216  S    
C32   C236  A    
N28   Ni2   S    
C136  H158  S    
C77   H23   S    
C82   H34   S    
C67   H286  S    
C99   H74   S    
C87   H45   S    
C72   C73   S    
C83   H37   S    
C133  H152  S    
C148  H186  S    
C139  C140  S    
C69   H4    S    
C162  N21   A    
C170  C235  A    
C62   H274  S    
N17   N22   A    
C37   H236  S    
C156  C158  S    
C130  C131  S    
C190  C210  S    
C23   H222  S    
C219  H267  S    
N22   Ni5   S    
C81   H30   S    
C33   H232  S    
C111  H103  S    
C157  C220  A    
C69   C70   S    
C34   C238  A    
C17   C221  A    
C70   H5    S    
C109  H98   S    
C146  C218  A    
C54   H257  S    
C161  N20   A    
C88   C89   S    
C98   C99   S    
C142  O21   S    
C155  C156  S    
C86   H44   S    
C93   H59   S    
C107  H94   S    
C109  C110  S    
C71   H9    S    
C19   H218  S    
C143  C144  S    
C191  C211  S    
C45   H244  S    
C188  C207  S    
C122  O15   S    
C147  C148  S    
C16   C51   A    
C119  H119  S    
C138  H163  S    
C163  N22   A    
C55   O12   S    
C85   C86   S    
C106  H89   S    
C115  H107  S    
C108  H95   S    
C167  N26   A    
C57   H57   S    
C78   C80   S    
C7    C42   A    
C142  H173  S    
C230  N32   A    
C65   H283  S    
N30   Ni4   S    
C18   C187  A    
C36   H235  S    
C24   N4    A    
C42   H241  S    
N9    N21   A    
C83   C84   S    
C127  H137  S    
C84   H38   S    
C53   H254  S    
C38   C198  A    
C143  H175  S    
C4    C181  A    
C89   C91   S    
C119  O14   S    
N27   N32   A    
C28   C232  A    
C100  H77   S    
C139  O20   S    
C36   C239  A    
C66   C67   S    
C13   H13   S    
C97   H70   S    
C171  C179  S    
C132  H151  S    
N10   Ni6   S    
C154  H203  S    
C169  C177  S    
C23   C192  A    
C26   H225  S    
C149  H189  S    
C176  C228  A    
C159  C215  A    
N23   Ni3   S    
C121  H126  S    
C59   O23   S    
C59   H268  S    
C239  O10   S    
C31   C235  A    
C81   H32   S    
C73   H14   S    
C48   C198  A    
C150  H192  S    
C3    C180  A    
C230  H278  S    
C133  H153  S    
C157  N17   A    
C149  H188  S    
C154  H202  S    
C169  C222  A    
C160  C214  A    
C10   C45   A    
C8    O18   S    
C64   H279  S    
C219  N31   A    
C107  H92   S    
N3    N12   A    
C2    H2    S    
C166  C217  A    
C145  O22   S    
C12   C180  A    
C75   H19   S    
C74   H15   S    
N24   Ni6   S    
C134  H156  S    
C141  H170  S    
C42   C202  A    
C27   C192  A    
C237  O8    S    
C126  H136  S    
C28   C191  A    
C88   O4    S    
C129  H142  S    
C149  O24   S    
C129  C130  S    
C112  N12   A    
C39   C199  A    
C58   H263  S    
C155  H205  S    
C32   C187  A    
C80   H28   S    
C68   H68   S    
C123  H130  S    
N14   N26   A    
C153  H199  S    
C136  C137  S    
C154  H200  S    
C22   C226  A    
C211  C219  A    
C91   H54   S    
C67   H287  S    
C78   H27   S    
C99   H75   S    
C104  H84   S    
C5    O15   S    
C224  O27   S    
C117  C118  S    
C116  H110  S    
C21   H220  S    
N8    Ni3   S    
C131  H147  S    
C176  C229  A    
C63   H277  S    
C95   H65   S    
C165  N24   A    
N16   N24   A    
C72   H11   S    
C102  C103  S    
C158  H209  S    
C151  H193  S    
C52   O1    S    
C101  N11   A    
C108  O10   S    
C63   C64   S    
C152  C153  S    
C150  C151  S    
C117  H115  S    
C151  H194  S    
C85   H41   S    
C22   C191  A    
C56   H262  S    
C22   H221  S    
C50   H249  S    
C55   C56   S    
C166  H214  S    
C24   C203  A    
C103  H82   S    
C158  H208  S    
C2    N2    A    
C73   C74   S    
C11   C47   A    
C8    C43   A    
C94   H63   S    
C12   C48   A    
C59   H266  S    
C60   H270  S    
C172  C233  A    
C52   C53   S    
C147  H183  S    
C118  H118  S    
N9    Ni5   S    
C125  H131  S    
C96   H67   S    
C196  C216  S    
N11   Ni7   S    
C123  C125  S    
C128  H139  S    
C135  N15   A    
C78   O32   S    
C160  N19   A    
N1    N4    A    
C52   H252  S    
C80   H29   S    
C178  C239  A    
C144  H178  S    
N21   Ni8   S    
C89   H51   S    
C17   C185  A    
C130  H144  S    
C134  H154  S    
C152  O25   S    
C141  H172  S    
C70   C71   S    
C68   N8    A    
C12   O22   S    
C120  H121  S    
C126  H134  S    
N15   N25   A    
C104  H85   S    
C168  C221  A    
C139  H166  S    
C195  C215  S    
C110  H99   S    
N6    Ni2   S    
C157  H157  S    
N32   Ni2   S    
C159  N18   A    
C173  C181  S    
C63   H276  S    
C138  H162  S    
C71   H8    S    
C74   H16   S    
N5    Ni1   S    
C100  H76   S    
C171  C224  A    
C135  H135  S    
C26   C229  A    
C44   H243  S    
C146  H146  S    
C77   H22   S    
C88   H49   S    
C82   H33   S    
C19   C223  A    
C87   H48   S    
C132  H150  S    
C126  O16   S    
C86   C87   S    
C69   H3    S    
C65   O28   S    
N31   Ni3   S    
C40   C200  A    
C76   H21   S    
N11   N19   A    
C53   C54   S    
C62   H275  S    
C105  H88   S    
C92   H58   S    
C60   C61   S    
C121  H123  S    
C221  O1    S    
N25   Ni8   S    
C62   C63   S    
C9    C183  A    
C173  C232  A    
C90   N10   A    
C23   C227  A    
C175  H223  S    
C101  C214  A    
C116  H111  S    
C16   O26   S    
C34   H233  S    
C31   H230  S    
C92   O5    S    
C28   H227  S    
C159  H168  S    
C70   H6    S    
C109  H97   S    
C54   H258  S    
N10   N20   A    
N6    N30   A    
N18   Ni6   S    
C85   H42   S    
C133  C134  S    
N8    N28   A    
C107  H93   S    
C198  C217  S    
C94   H61   S    
C41   C201  A    
C127  C128  S    
C124  H124  S    
C25   C193  A    
C132  O18   S    
C118  H116  S    
C32   H231  S    
C138  H164  S    
C37   C240  A    
C194  C214  S    
C119  C120  S    
C227  O30   S    
C61   H272  S    
C25   H224  S    
C105  C106  S    
C92   H56   S    
C1    N1    A    
C122  H127  S    
C13   C204  A    
C6    C183  A    
C108  H96   S    
C61   H271  S    
N20   Ni7   S    
C189  C209  S    
C149  C150  S    
C144  H180  S    
C105  O9    S    
C142  H174  S    
C65   H282  S    
N13   N18   A    
C235  O6    S    
C91   H55   S    
C92   C93   S    
C192  C203  S    
C77   H25   S    
C111  C114  S    
C145  H182  S    
C155  O26   S    
C202  C213  S    
C18   C222  A    
C33   C237  A    
C55   H260  S    
C114  H105  S    
C170  C223  A    
C160  H179  S    
C172  C182  S    
C130  H145  S    
C82   C83   S    
C5    C40   A    
C53   H253  S    
C103  C104  S    
C142  C143  S    
C33   C185  A    
C9    O19   S    
C175  C206  A    
C72   H10   S    
C98   H73   S    
C26   C193  A    
C90   C213  A    
C100  H78   S    
N2    Ni1   S    
C124  N14   A    
C177  C238  A    
C152  H196  S    
C176  C183  S    
C102  H80   S    
C62   O27   S    
C97   H69   S    
C93   C94   S    
C206  C230  A    
C151  H195  S    
C95   C96   S    
N2    N23   A    
C238  O9    S    
C4    O14   S    
C148  H185  S    
C21   C190  A    
C228  O31   S    
C18   H217  S    
C116  C117  S    
C6    O16   S    
C116  O13   S    
N14   Ni6   S    
C193  C204  S    
C103  H83   S    
C186  C207  A    
C121  H125  S    
C164  C205  A    
C19   C188  A    
C168  C178  S    
N27   Ni4   S    
C14   C49   A    
C84   H40   S    
C81   H31   S    
C66   H284  S    
C111  H104  S    
C29   H228  S    
C172  C225  A    
C15   C50   A    
C232  O3    S    
C35   C211  A    
C35   N5    A    
C96   H66   S    
C173  C226  A    
N12   Ni2   S    
N26   Ni7   S    
C20   H219  S    
C56   C58   S    
C132  C133  S    
C6    C41   A    
C31   C188  A    
C86   H43   S    
C164  H212  S    
C93   H60   S    
C197  H245  S    
C79   N9    A    
C174  C231  A    
C14   C179  A    
C163  C220  A    
C8    C184  A    
C58   H264  S    
C66   H285  S    
C30   H229  S    
C161  H190  S    
C231  O2    S    
C119  H120  S    
C43   C202  A    
C110  H102  S    
C115  H108  S    
C13   N3    A    
C37   C196  A    
C185  C205  S    
C123  H129  S    
C76   C77   S    
C3    C38   A    
C58   H265  S    
C234  O5    S    
C131  H149  S    
C152  H197  S    
C91   H53   S    
C30   C234  A    
C170  C180  S    
C225  O28   S    
C99   C100  S    
C4    C39   A    
C61   H273  S    
C95   H64   S    
C127  H138  S    
C129  O17   S    
C96   C97   S    
C24   H24   S    
C64   H280  S    
C143  H176  S    
C2    C205  A    
C79   H79   S    
N15   Ni5   S    
C186  H234  S    
C158  H210  S    
C1    H1    S    
C165  C218  A    
C233  O4    S    
C27   C231  A    
C97   H71   S    
C136  H159  S    
C98   H72   S    
C44   C201  A    
C117  H114  S    
C7    O17   S    
C113  C215  A    
C167  C216  A    
C83   H36   S    
C101  H101  S    
C148  H187  S    
C16   C177  A    
C124  C216  A    
C74   H17   S    
C75   O31   S    
C161  C213  A    
C9    C44   A    
C14   O24   S    
C80   C81   S    
C51   C194  A    
C72   O30   S    
C39   H238  S    
C168  C237  A    
C21   C225  A    
C137  C138  S    
C25   C228  A    
C113  H113  S    
C43   H242  S    
C140  H169  S    
C155  H204  S    
C150  H191  S    
C122  C123  S    
C36   C195  A    
N4    Ni4   S    
N7    Ni4   S    
C128  H140  S    
C162  C212  A    
C10   C182  A    
C187  C206  S    
C82   O2    S    
C38   H237  S    
C197  C209  A    
C156  H207  S    
C40   H239  S    
N3    Ni3   S    
C208  C210  A    
C65   C66   S    
C15   C178  A    
C134  H155  S    
C120  C121  S    
C141  H171  S    
C120  H122  S    
C153  C154  S    
C104  H86   S    
C139  H165  S    
C27   H226  S    
C110  H100  S    
C129  H143  S    
C98   O7    S    
N5    N31   A    
C171  C234  A    
C1    C203  A    
