data_mof_unit_37089.cif
_audit_creation_date              2013-03-05T16:25:01-0500
_audit_creation_method            fapswitch 2.2
_symmetry_space_group_name_H-M    P1
_symmetry_Int_Tables_number       1
_space_group_crystal_system       triclinic
_cell_length_a                    15.151582
_cell_length_b                    13.823813
_cell_length_c                    9.079942
_cell_angle_alpha                 90.015245
_cell_angle_beta                  89.934345
_cell_angle_gamma                 90.082358
_cell_volume                      1901.8145088

loop_
_atom_site_label
_atom_site_type_symbol
_atom_site_description
_atom_site_fract_x
_atom_site_fract_y
_atom_site_fract_z
_atom_type_partial_charge
O1    O     O_R   0.371460 0.581430 0.500010 -0.550652
O2    O     O_R   0.628540 0.418570 0.499990 -0.543112
O3    O     O_R   0.628540 0.581430 0.499990 -0.551644
O4    O     O_R   0.371460 0.418570 0.500010 -0.551395
C1    C     C_R   0.329690 0.499963 0.500203 0.871372
C2    C     C_R   0.670298 0.500112 0.500105 0.848053
O5    O     O_R   0.500000 0.581420 0.288390 -0.579383
O6    O     O_R   0.500000 0.418580 0.711610 -0.586710
O7    O     O_R   0.500000 0.581420 0.711610 -0.577326
O8    O     O_R   0.500000 0.418580 0.288390 -0.580365
C3    C     C_R   0.453146 0.106747 0.608357 0.386535
C4    C     C_R   0.455703 0.893216 0.389698 0.383859
C5    C     C_R   0.547341 0.106984 0.392655 0.384471
C6    C     C_R   0.544811 0.893172 0.611112 0.383533
C7    C     C_R   0.500060 0.499991 0.220435 0.849829
C8    C     C_R   0.500109 0.500005 0.779558 0.833136
Cu1   Cu    Cu3+1 0.500000 0.596430 0.500000 0.981914
Cu2   Cu    Cu3+1 0.500000 0.403570 0.500000 0.981997
H1    H     H_    0.421067 0.249524 0.691303 0.155984
H2    H     H_    0.425105 0.750753 0.304448 0.156551
H3    H     H_    0.579435 0.249442 0.309117 0.153973
H4    H     H_    0.574457 0.750245 0.695824 0.153690
N1    N     N_R   0.500000 0.258690 0.500000 -0.213955
N2    N     N_R   0.500000 0.741310 0.500000 -0.210818
C9    C     C_R   0.500308 0.054558 0.500521 0.003948
C10   C     C_R   0.500337 0.945440 0.500422 0.002652
C11   C     C_1   0.500143 0.499981 0.065482 -0.166705
C12   C     C_1   0.500165 0.499999 0.934499 -0.174423
C13   C     C_R   0.094437 0.578173 0.563474 -0.262334
C14   C     C_R   0.905466 0.421073 0.561205 -0.256153
C15   C     C_R   0.906380 0.579890 0.448583 -0.262751
C16   C     C_R   0.093646 0.421629 0.443709 -0.257965
H5    H     H_    0.058873 0.637458 0.614150 0.154286
H6    H     H_    0.940675 0.359396 0.605422 0.157759
H7    H     H_    0.942651 0.639813 0.400874 0.154996
H8    H     H_    0.057422 0.362517 0.393736 0.157947
C17   C     C_R   0.186555 0.579948 0.560062 0.430349
C18   C     C_R   0.813510 0.421198 0.563081 0.423596
C19   C     C_R   0.814207 0.581406 0.448356 0.431085
C20   C     C_R   0.185839 0.420010 0.443926 0.428072
C21   C     C_R   0.232813 0.499969 0.501331 -0.246054
C22   C     C_R   0.767142 0.500613 0.502941 -0.248934
C23   C     C_R   0.048169 0.499881 0.504390 0.021473
C24   C     C_R   0.951815 0.500335 0.505163 0.019575
C25   C     C_R   0.455183 0.209276 0.606578 -0.066230
C26   C     C_R   0.457633 0.790788 0.391117 -0.056807
C27   C     C_R   0.544959 0.209347 0.393750 -0.023576
C28   C     C_R   0.542490 0.790622 0.609152 -0.059546
O9    O     O_3   0.231585 0.655181 0.627270 -0.549861
C29   C     C_3   0.223147 0.739325 0.540504 -0.282853
H9    H     H_    0.242933 0.726036 0.424046 0.145478
H10   H     H_    0.268049 0.795580 0.585185 0.187342
H11   H     H_    0.154880 0.768474 0.545487 0.137252
O10   O     O_3   0.769542 0.341405 0.618508 -0.560115
C30   C     C_3   0.758434 0.354190 0.771473 -0.280256
H12   H     H_    0.721443 0.291241 0.815670 0.195500
H13   H     H_    0.719119 0.420237 0.796331 0.141314
H14   H     H_    0.823206 0.357127 0.829045 0.148466
O11   O     O_3   0.770189 0.656842 0.380284 -0.550263
C31   C     C_3   0.777275 0.740542 0.468427 -0.288503
H15   H     H_    0.755163 0.726729 0.583588 0.143980
H16   H     H_    0.733484 0.797030 0.421880 0.186891
H17   H     H_    0.845691 0.769656 0.467497 0.138065
O12   O     O_3   0.230145 0.345264 0.374367 -0.550839
C32   C     C_3   0.221917 0.260405 0.459586 -0.285678
H18   H     H_    0.242191 0.272746 0.575984 0.145394
H19   H     H_    0.266550 0.204632 0.413056 0.186298
H20   H     H_    0.153601 0.231186 0.455030 0.140112
O13   O     O_3   0.410683 0.056748 0.720117 -0.519345
C33   C     C_3   0.319173 0.074704 0.713708 -0.327898
H21   H     H_    0.292521 0.065264 0.600322 0.125289
H22   H     H_    0.303406 0.147903 0.756688 0.152482
H23   H     H_    0.285055 0.021500 0.785410 0.199808
O14   O     O_3   0.415100 0.942966 0.276186 -0.520088
C34   C     C_3   0.323143 0.927712 0.283247 -0.324783
H24   H     H_    0.296496 0.941204 0.395798 0.127460
H25   H     H_    0.305596 0.853698 0.245486 0.150506
H26   H     H_    0.290570 0.979619 0.207742 0.200868
O15   O     O_3   0.591452 0.057719 0.282274 -0.530082
C35   C     C_3   0.683133 0.070084 0.301365 -0.307455
H27   H     H_    0.704365 0.050869 0.415063 0.148904
H28   H     H_    0.703787 0.145174 0.274067 0.159264
H29   H     H_    0.717951 0.020765 0.224463 0.190702
O16   O     O_3   0.584641 0.943273 0.725431 -0.519574
C36   C     C_3   0.675648 0.922101 0.729341 -0.311613
H30   H     H_    0.706802 0.928049 0.618564 0.122621
H31   H     H_    0.687649 0.849463 0.777496 0.150347
H32   H     H_    0.708556 0.975749 0.801760 0.201064

loop_
_geom_bond_atom_site_label_1
_geom_bond_atom_site_label_2
_geom_bond_distance
_ccdc_geom_bond_type
C8    C12   1.406857 S    
H4    C28   1.080455 S    
C30   H12   1.109368 S    
C5    O15   1.383626 S    
N1    C25   1.364447 A    
C4    O14   1.384492 S    
O2    Cu2   1.958294 S    
C6    O16   1.386071 S    
C23   C24   1.459948 S    
O3    C2    1.290741 A    
C5    C9    1.410542 A    
C36   H30   1.113614 S    
C31   H17   1.111472 S    
O1    C1    1.291039 A    
C16   H8    1.083498 S    
O7    C8    1.283632 A    
C18   C22   1.414343 A    
O8    C7    1.283603 A    
C3    C9    1.410431 A    
C13   H5    1.083614 S    
C14   C18   1.393362 A    
C31   H16   1.109480 S    
C32   H19   1.109480 S    
C29   H10   1.109576 S    
C33   H21   1.113898 S    
O4    Cu2   1.958890 S    
O5    C7    1.283537 A    
O11   C31   1.410745 S    
O6    C8    1.283452 A    
C13   C23   1.396065 A    
C14   C24   1.396404 A    
O2    C2    1.291855 A    
C35   H29   1.109339 S    
C29   H9    1.114059 S    
C19   C22   1.413783 A    
C36   H31   1.110615 S    
Cu1   N2    2.002793 S    
N1    C27   1.363639 A    
C15   C24   1.396637 A    
C14   H6    1.083848 S    
Cu2   N1    2.002793 S    
C29   H11   1.111475 S    
O16   C36   1.410531 S    
C35   H28   1.111716 S    
O14   C34   1.410251 S    
C5    C27   1.415583 A    
O4    C1    1.291731 A    
C6    C28   1.418121 A    
O5    Cu1   1.932524 S    
C9    C10   1.508430 S    
O6    Cu2   1.932522 S    
C4    C10   1.410344 A    
C31   H15   1.114107 S    
N2    C28   1.364278 A    
C34   H24   1.114164 S    
C17   O9    1.384944 S    
C7    C11   1.406966 S    
C18   O10   1.382468 S    
C32   H20   1.111392 S    
C19   O11   1.384773 S    
C33   H23   1.109244 S    
H1    C25   1.080858 S    
Cu1   Cu2   2.666062 S    
C6    C10   1.410539 A    
C34   H25   1.111012 S    
C4    C26   1.416356 A    
C20   C21   1.413606 A    
C32   H18   1.113991 S    
C30   H13   1.113801 S    
C15   H7    1.083597 S    
C3    C25   1.417736 A    
C36   H32   1.109242 S    
O7    Cu1   1.932632 S    
C1    C21   1.467875 S    
O10   C30   1.409981 S    
C35   H27   1.113997 S    
C3    O13   1.385291 S    
O1    Cu1   1.958297 S    
C20   O12   1.384884 S    
N2    C26   1.363959 A    
O12   C32   1.410747 S    
O8    Cu2   1.932634 S    
C16   C23   1.396237 A    
C15   C19   1.396752 A    
O3    Cu1   1.958887 S    
C16   C20   1.397080 A    
C17   C21   1.413880 A    
O13   C33   1.410188 S    
C34   H26   1.109296 S    
O15   C35   1.410232 S    
O9    C29   1.411077 S    
C2    C22   1.467606 S    
C30   H14   1.113152 S    
C13   C17   1.396230 A    
C11   C12   1.189315 T    
C33   H22   1.110658 S    
H2    C26   1.080910 S    
H3    C27   1.081248 S    
