data_mof_unit_58873.cif
_audit_creation_date              2012-10-26T19:20:34-0400
_audit_creation_method            fapswitch 2.2
_symmetry_space_group_name_H-M    P1
_symmetry_Int_Tables_number       1
_space_group_crystal_system       triclinic
_cell_length_a                    10.847571
_cell_length_b                    11.095626
_cell_length_c                    9.876459
_cell_angle_alpha                 110.667418
_cell_angle_beta                  100.525582
_cell_angle_gamma                 90.194656
_cell_volume                      1090.53967716

loop_
_atom_site_label
_atom_site_type_symbol
_atom_type_description
_atom_site_fract_x
_atom_site_fract_y
_atom_site_fract_z
_atom_type_partial_charge
C1    C     C_R   0.491626 0.254714 0.441420 0.565239
C2    C     C_R   0.737548 0.486545 0.499120 0.531407
C3    C     C_R   0.160506 0.649689 0.767119 -0.090656
C4    C     C_R   0.839502 0.350353 0.232876 -0.090662
C5    C     C_R   0.126811 0.671020 0.903505 0.049598
C6    C     C_R   0.873188 0.329061 0.096493 0.049575
C7    C     C_R   0.016284 0.607958 0.906323 -0.111038
C8    C     C_R   0.983709 0.392141 0.093688 -0.111010
C9    C     C_R   0.936104 0.534387 0.774964 -0.065592
C10   C     C_R   0.063895 0.465688 0.225054 -0.065574
C11   C     C_R   0.962703 0.524479 0.636483 0.017343
C12   C     C_R   0.508370 0.745286 0.558581 0.565234
C13   C     C_R   0.037300 0.475563 0.363526 0.017324
C14   C     C_R   0.084130 0.567235 0.633763 -0.016217
C15   C     C_R   0.915876 0.432798 0.366242 -0.016223
C16   C     C_R   0.873757 0.471933 0.501463 -0.019045
C17   C     C_R   0.126248 0.528092 0.498543 -0.019059
C18   C     C_2   0.208423 0.756984 0.042003 0.594002
C19   C     C_2   0.791574 0.243121 0.957984 0.593987
C20   C     C_2   0.631349 0.668806 0.955474 0.701569
C21   C     C_2   0.368640 0.331209 0.044512 0.701628
C22   C     C_2   0.494974 0.117086 0.409942 -0.047863
C23   C     C_2   0.505016 0.882915 0.590060 -0.047890
C24   C     C_2   0.493169 0.068476 0.515523 0.350546
C25   C     C_2   0.506787 0.931523 0.484470 0.350546
C26   C     C_2   0.510147 0.508768 0.081486 0.044302
C27   C     C_2   0.489891 0.491196 0.918513 0.044268
C28   C     C_R   0.262454 0.513463 0.500882 0.531391
Cu1   Cu    Cu3+1 0.521920 0.521810 0.644910 1.068227
Cu2   Cu    Cu3+1 0.478080 0.478190 0.355090 1.068213
F1    F     F_    0.522628 0.855052 0.347594 -0.637510
F2    F     F_    0.477297 0.144944 0.652387 -0.637558
H1    H     H_    0.009746 0.382601 0.989860 0.158113
H2    H     H_    0.581034 0.581367 0.158828 0.193870
H3    H     H_    0.358312 0.885943 0.137124 0.383194
H4    H     H_    0.641745 0.114094 0.862828 0.383189
H5    H     H_    0.649920 0.838744 0.126194 0.358781
H6    H     H_    0.350125 0.161207 0.873884 0.358784
H7    H     H_    0.990241 0.617524 0.010156 0.158064
H8    H     H_    0.245593 0.699635 0.765016 0.177617
H9    H     H_    0.754419 0.300394 0.234968 0.177630
H10   H     H_    0.856183 0.481982 0.784551 0.187931
H11   H     H_    0.143818 0.518102 0.215485 0.187923
H12   H     H_    0.496519 0.944446 0.700662 0.117074
H13   H     H_    0.503498 0.055559 0.299349 0.117045
H14   H     H_    0.419031 0.418565 0.841169 0.193863
N1    N     N_2   0.445130 0.445420 0.137360 -0.243642
N2    N     N_2   0.554870 0.554580 0.862640 -0.243660
O1    O     O_R   0.511700 0.332340 0.577400 -0.430967
O2    O     O_R   0.312167 0.828475 0.035798 -0.660779
O3    O     O_2   0.815025 0.233610 0.838217 -0.509830
O4    O     O_R   0.687895 0.171537 0.964165 -0.660742
O5    O     O_2   0.730382 0.692206 0.924470 -0.506584
O6    O     O_R   0.588552 0.759936 0.072814 -0.644931
O7    O     O_2   0.269505 0.307922 0.075369 -0.506718
O8    O     O_R   0.411517 0.239989 0.927306 -0.644899
O9    O     O_R   0.488300 0.667660 0.422600 -0.430951
O10   O     O_R   0.474680 0.295500 0.332650 -0.497252
O11   O     O_R   0.525320 0.704500 0.667350 -0.497192
O12   O     O_R   0.338170 0.518410 0.622370 -0.529538
O13   O     O_R   0.661830 0.481590 0.377630 -0.529571
O14   O     O_R   0.301150 0.481570 0.377630 -0.487288
O15   O     O_R   0.698850 0.518430 0.622370 -0.487262
O16   O     O_2   0.184913 0.766599 0.161779 -0.509772

loop_
_geom_bond_atom_site_label_1
_geom_bond_atom_site_label_2
_ccdc_geom_bond_type
C27   N2    D    
C25   F1    S    
C21   O8    S    
C6    C8    A    
C24   F2    S    
Cu1   Cu2   S    
C19   O3    D    
C2    C16   S    
C11   C16   A    
C13   C15   A    
H4    O4    S    
Cu1   O12   S    
C13   C17   A    
C22   H13   S    
H3    O2    S    
Cu1   O15   S    
C9    H10   S    
C21   O7    D    
C1    C22   S    
Cu1   O1    S    
C1    O10   A    
C2    O15   A    
C6    C19   S    
C9    C11   A    
C14   C17   A    
C18   O16   D    
C26   C27   S    
C20   N2    S    
C3    C14   A    
C26   N1    D    
C4    C15   A    
H5    O6    S    
Cu2   O10   S    
C27   H14   S    
C8    C10   A    
C12   O11   A    
C3    H8    S    
C10   C13   A    
C8    H1    S    
C28   O12   A    
Cu2   O14   S    
C11   C14   A    
C22   C24   D    
C4    C6    A    
C4    H9    S    
C12   O9    A    
Cu1   N2    S    
C15   C16   A    
Cu2   O9    S    
C7    C9    A    
Cu2   N1    S    
C23   C25   D    
H6    O8    S    
C24   C25   S    
C18   O2    S    
C20   O6    S    
Cu2   O13   S    
C5    C7    A    
C7    H7    S    
C12   C23   S    
C5    C18   S    
C3    C5    A    
C10   H11   S    
C17   C28   S    
C1    O1    A    
C19   O4    S    
C26   H2    S    
C23   H12   S    
Cu1   O11   S    
C20   O5    D    
C21   N1    S    
C2    O13   A    
C28   O14   A    
