data_mof_unit_63179.cif
_audit_creation_date              2013-03-05T15:40:48-0500
_audit_creation_method            fapswitch 2.2
_symmetry_space_group_name_H-M    P1
_symmetry_Int_Tables_number       1
_space_group_crystal_system       triclinic
_cell_length_a                    19.101843
_cell_length_b                    18.901029
_cell_length_c                    19.037178
_cell_angle_alpha                 109.37619
_cell_angle_beta                  110.393143
_cell_angle_gamma                 109.31007
_cell_volume                      5246.68035757

loop_
_atom_site_label
_atom_site_type_symbol
_atom_site_description
_atom_site_fract_x
_atom_site_fract_y
_atom_site_fract_z
_atom_type_partial_charge
O1    O     O_R   0.411600 0.359460 0.449080 -0.556284
O2    O     O_R   0.410370 0.462480 0.550940 -0.593541
C1    C     C_R   0.384571 0.381860 0.501388 0.853674
O3    O     O_R   0.590700 0.448490 0.539150 -0.580732
O4    O     O_R   0.589460 0.551510 0.641010 -0.606668
C2    C     C_R   0.616427 0.498215 0.619076 0.790640
Cu1   Cu    Cu3+1 0.500730 0.439000 0.439690 1.033371
Cu2   Cu    Cu3+1 0.499270 0.561000 0.560310 0.989325
O5    O     O_R   0.589630 0.537520 0.449060 -0.585897
O6    O     O_R   0.588400 0.640540 0.550920 -0.559890
O7    O     O_R   0.410540 0.448490 0.358990 -0.566312
O8    O     O_R   0.409300 0.551510 0.460850 -0.593176
C3    C     C_R   0.618558 0.618102 0.502196 0.810511
C4    C     C_R   0.378868 0.496952 0.379837 0.781337
C5    C     C_3   0.673374 0.405304 0.656609 0.209620
H1    H     H_    0.681808 0.387444 0.599310 0.132265
C6    C     C_3   0.746050 0.406548 0.727640 -0.511385
H2    H     H_    0.718132 0.359395 0.746485 0.223836
H3    H     H_    0.783501 0.384870 0.701205 0.158763
H4    H     H_    0.776121 0.542639 0.646620 0.173893
H5    H     H_    0.877849 0.533306 0.743382 0.186287
C7    C     C_3   0.773423 0.561045 0.707179 -0.502254
C8    C     C_3   0.683063 0.532490 0.774033 -0.392780
C9    C     C_3   0.684000 0.498340 0.687899 -0.003716
H6    H     H_    0.697112 0.600595 0.798824 0.183565
H7    H     H_    0.617498 0.495145 0.762436 0.191060
C10   C     C_3   0.807072 0.499941 0.807833 -0.014145
C11   C     C_3   0.845370 0.559221 0.774489 -0.379275
C12   C     C_3   0.749722 0.525091 0.841557 0.321946
H8    H     H_    0.710136 0.467755 0.843034 0.168724
H9    H     H_    0.784820 0.628370 0.732712 0.168388
H10   H     H_    0.896347 0.626365 0.827501 0.167172
C13   C     C_2   0.258801 0.249702 0.573899 -0.117422
C14   C     C_2   0.181200 0.188817 0.502611 -0.290594
H11   H     H_    0.276036 0.249266 0.634426 0.173000
H12   H     H_    0.160225 0.194513 0.444887 0.151185
C15   C     C_2   0.319494 0.322601 0.574048 -0.124390
C16   C     C_2   0.322739 0.312404 0.502333 -0.266308
H13   H     H_    0.364957 0.383813 0.634918 0.166350
H14   H     H_    0.284175 0.248712 0.444093 0.166828
C17   C     C_2   0.174114 0.495971 0.249297 -0.093368
C18   C     C_2   0.183087 0.514678 0.189915 -0.235807
H15   H     H_    0.112823 0.474358 0.247174 0.156051
H16   H     H_    0.247172 0.546692 0.199750 0.164796
C19   C     C_2   0.250455 0.510706 0.321988 -0.228927
C20   C     C_2   0.303934 0.484219 0.307413 0.292010
H17   H     H_    0.261545 0.542134 0.387098 0.142797
C21   C     C_2   0.731484 0.775214 0.444183 0.343769
C22   C     C_2   0.817164 0.805081 0.488101 -0.401396
H18   H     H_    0.840329 0.768769 0.513969 0.149450
C23   C     C_2   0.671454 0.695564 0.435677 0.192528
C24   C     C_2   0.685676 0.688876 0.507274 0.138740
O9    O     O_R   0.943650 0.359510 0.906150 -0.578097
O10   O     O_R   0.046690 0.462500 0.906070 -0.580206
C25   C     C_R   0.993002 0.381858 0.876150 0.842156
O11   O     O_R   0.852560 0.448570 0.904070 -0.580725
O12   O     O_R   0.955610 0.551560 0.903980 -0.609767
C26   C     C_R   0.875554 0.499992 0.875413 0.812197
Cu3   Cu    Cu3+1 0.933160 0.439090 0.994150 0.998079
Cu4   Cu    Cu3+1 0.055180 0.561040 0.994050 0.968962
O13   O     O_R   0.941640 0.537630 0.082140 -0.576134
O14   O     O_R   0.044680 0.640620 0.082050 -0.588754
O15   O     O_R   0.032730 0.448570 0.084230 -0.578129
O16   O     O_R   0.135770 0.551560 0.084140 -0.581661
C27   C     C_R   0.995121 0.617886 0.112207 0.894828
C28   C     C_R   0.113171 0.504019 0.116293 0.817237
O17   O     O_R   0.051070 0.089000 0.640130 -0.595678
O18   O     O_R   0.946790 0.089000 0.535860 -0.564727
C29   C     C_R   0.001056 0.119216 0.616792 0.840804
O19   O     O_R   0.141150 0.089030 0.552120 -0.559788
O20   O     O_R   0.036880 0.089030 0.447850 -0.599324
C30   C     C_R   0.117275 0.119099 0.501436 0.837843
Cu5   Cu    Cu3+1 0.061740 0.000000 0.561740 1.032154
Cu6   Cu    Cu3+1 0.938260 1.000000 0.438260 1.035513
O21   O     O_R   0.053210 0.911000 0.464140 -0.528641
O22   O     O_R   0.948930 0.911000 0.359870 -0.593228
O23   O     O_R   0.963120 0.910970 0.552150 -0.596853
O24   O     O_R   0.858850 0.910970 0.447880 -0.528884
C31   C     C_R   0.003329 0.885261 0.383395 0.868721
C32   C     C_R   0.882515 0.880852 0.498076 0.879973
C33   C     C_2   0.990964 0.249789 0.674186 -0.140592
C34   C     C_2   0.007626 0.189619 0.685513 -0.288686
H19   H     H_    0.973586 0.248493 0.612841 0.166041
H20   H     H_    0.034070 0.196116 0.749375 0.155419
C35   C     C_2   0.002057 0.322613 0.746198 -0.158165
C36   C     C_2   0.986495 0.312383 0.806582 -0.300616
H21   H     H_    0.018443 0.383619 0.746665 0.163226
H22   H     H_    0.960944 0.248847 0.800829 0.165327
C37   C     C_2   0.075792 0.827072 0.314433 0.367898
C38   C     C_2   0.003600 0.822030 0.314439 -0.422442
H23   H     H_    0.940740 0.775899 0.255600 0.137577
C39   C     C_2   0.068056 0.764402 0.236503 -0.219283
C40   C     C_2   0.000549 0.682972 0.184668 -0.383584
H24   H     H_    0.121433 0.783733 0.225111 0.210001
H25   H     H_    0.950827 0.660298 0.200022 0.170095
O25   O     O_3   0.792807 0.594156 0.928672 -0.580482
C41   C     C_3   0.855554 0.674232 0.947629 0.070188
H26   H     H_    0.835778 0.688333 0.894116 0.137424
H27   H     H_    0.917787 0.675373 0.964082 0.162800
C42   C     C_3   0.870809 0.746964 0.027142 -0.750608
H28   H     H_    0.892135 0.736368 0.083079 0.253814
H29   H     H_    0.921725 0.810327 0.044450 0.202613
H30   H     H_    0.810162 0.748842 0.013323 0.252323
N1    N     N_R   0.587233 0.338935 0.629432 0.124515
O26   O     O_R   0.563908 0.337251 0.685710 -0.379003
O27   O     O_R   0.534738 0.277817 0.548411 -0.315629
O28   O     O_3   0.275926 0.426469 0.222131 -0.573458
C43   C     C_3   0.337318 0.458060 0.198975 0.124714
H31   H     H_    0.390458 0.444786 0.224086 0.211104
H32   H     H_    0.364757 0.528878 0.222889 0.181701
C44   C     C_3   0.293242 0.411065 0.100462 -0.766724
H33   H     H_    0.239915 0.423279 0.072476 0.240369
H34   H     H_    0.340854 0.434876 0.081266 0.227356
H35   H     H_    0.266340 0.340063 0.073968 0.254024
N2    N     N_R   0.697283 0.823522 0.413909 0.157744
O29   O     O_R   0.628351 0.783569 0.337753 -0.275974
O30   O     O_R   0.724315 0.903375 0.468480 -0.319883
N3    N     N_R   0.593638 0.631933 0.353124 0.123111
O31   O     O_R   0.518976 0.613255 0.346595 -0.411191
O32   O     O_R   0.597478 0.606771 0.282817 -0.331356
O33   O     O_3   0.753775 0.760002 0.588323 -0.573342
C45   C     C_3   0.790235 0.732824 0.645092 0.050658
H36   H     H_    0.797999 0.677522 0.611782 0.113509
H37   H     H_    0.749266 0.713859 0.672463 0.161280
C46   C     C_3   0.879286 0.807954 0.719950 -0.747792
H38   H     H_    0.873969 0.863890 0.755736 0.259511
H39   H     H_    0.908296 0.787456 0.765320 0.189123
H40   H     H_    0.922102 0.828354 0.694793 0.250754
N4    N     N_R   0.160672 0.896586 0.385323 0.135173
O34   O     O_R   0.215813 0.940112 0.369414 -0.336835
O35   O     O_R   0.188793 0.903159 0.461319 -0.309232

loop_
_geom_bond_atom_site_label_1
_geom_bond_atom_site_label_2
_geom_bond_distance
_ccdc_geom_bond_type
C10   C12   1.571720 S    
Cu5   O21   1.960205 S    
C17   C18   1.338842 D    
C44   H33   1.110716 S    
O22   C31   1.292898 A    
N3    O32   1.300801 A    
N1    O27   1.301048 A    
C41   H26   1.109100 S    
O9    Cu3   1.967333 S    
Cu1   Cu2   2.676681 S    
C4    C20   1.477961 S    
O10   Cu4   1.959978 S    
C35   C36   1.339704 D    
Cu1   O7    1.975621 S    
C15   C16   1.340595 D    
Cu6   O22   1.967572 S    
C8    C12   1.545838 S    
O4    C2    1.291663 A    
C13   H11   1.086234 S    
O7    C4    1.286529 A    
C36   H22   1.086353 S    
O18   Cu6   1.960203 S    
N2    O29   1.300573 A    
C23   N3    1.435709 S    
C37   N4    1.437354 S    
C43   H31   1.109804 S    
C12   O25   1.426021 S    
Cu4   O14   1.967458 S    
Cu5   Cu6   2.687963 S    
C8    H7    1.111196 S    
O11   Cu3   1.972205 S    
O5    C3    1.296110 A    
N3    O31   1.299409 A    
C42   H28   1.110493 S    
C31   C38   1.455832 S    
C29   C34   1.455343 S    
C33   H19   1.086327 S    
C21   C23   1.474671 S    
C1    C16   1.457302 S    
C43   H32   1.113118 S    
O18   C29   1.298476 A    
N2    O30   1.301613 A    
C46   H40   1.110798 S    
C8    C9    1.559335 S    
O17   Cu5   1.967569 S    
C5    N1    1.469616 S    
C14   H12   1.086221 S    
C19   H17   1.085976 S    
O15   C28   1.299555 A    
Cu3   Cu4   2.682995 S    
C40   H25   1.085616 S    
C7    C11   1.537949 S    
O25   C41   1.412068 S    
C17   H15   1.085802 S    
C18   H16   1.083937 S    
O3    Cu1   1.968197 S    
C42   H29   1.110519 S    
N1    O26   1.301269 A    
C41   H27   1.109414 S    
C13   C14   1.340489 D    
O12   C26   1.291208 A    
O9    C25   1.290435 A    
Cu3   O13   1.960181 S    
C7    H9    1.111543 S    
C35   H21   1.086356 S    
C23   C24   1.351508 D    
C6    C10   1.554418 S    
C11   H10   1.106928 S    
O3    C2    1.290167 A    
O12   Cu4   1.971704 S    
C19   C20   1.347132 D    
O6    C3    1.282607 A    
C42   H30   1.110647 S    
C33   C34   1.339944 D    
O1    C1    1.288621 A    
O16   C28   1.288806 A    
C12   H8    1.113591 S    
O4    Cu2   1.975621 S    
C3    C24   1.461523 S    
C24   O33   1.395845 S    
Cu2   O8    1.968198 S    
C2    C9    1.483251 S    
C20   O28   1.395030 S    
O19   Cu5   1.968775 S    
C39   H24   1.086455 S    
C6    H2    1.112906 S    
C44   H34   1.110536 S    
C37   C39   1.480314 S    
O33   C45   1.413260 S    
C21   N2    1.440100 S    
C21   C22   1.348504 D    
H5    C11   1.113596 S    
O8    C4    1.305111 A    
C34   H20   1.086367 S    
C46   H38   1.110645 S    
C7    C9    1.546826 S    
O28   C43   1.413467 S    
C45   H37   1.111328 S    
C14   C30   1.457829 S    
C41   C42   1.520827 S    
C46   H39   1.110712 S    
N4    O34   1.300971 A    
O23   C32   1.296653 A    
Cu1   O5    1.964745 S    
O10   C25   1.297082 A    
C5    C9    1.572546 S    
Cu5   O23   1.968181 S    
O14   C27   1.297623 A    
O1    Cu1   1.971906 S    
O2    Cu2   1.964744 S    
H4    C7    1.113523 S    
C10   C26   1.480483 S    
O20   Cu6   1.968180 S    
C22   C32   1.455123 S    
C5    C6    1.550909 S    
Cu3   O15   1.971801 S    
C43   C44   1.521400 S    
Cu4   O16   1.972226 S    
C45   C46   1.520244 S    
O2    C1    1.296259 A    
C45   H36   1.115763 S    
O20   C30   1.291620 A    
C15   H13   1.086335 S    
C16   H14   1.086195 S    
C38   H23   1.085766 S    
C25   C36   1.455063 S    
C27   C40   1.454982 S    
C39   C40   1.341000 D    
C6    H3    1.113946 S    
O11   C26   1.292929 A    
C44   H35   1.110681 S    
O24   C32   1.292927 A    
C8    H6    1.109933 S    
C13   C15   1.476895 S    
O13   C27   1.289877 A    
Cu2   O6    1.971905 S    
C22   H18   1.087491 S    
Cu6   O24   1.968777 S    
C10   C11   1.564286 S    
C18   C28   1.455611 S    
C17   C19   1.479317 S    
O19   C30   1.300227 A    
O17   C29   1.292174 A    
C37   C38   1.350527 D    
O21   C31   1.297647 A    
C33   C35   1.473590 S    
C5    H1    1.115289 S    
N4    O35   1.300792 A    
