data_mof_unit_67789.cif
_audit_creation_date              2013-03-05T15:41:22-0500
_audit_creation_method            fapswitch 2.2
_symmetry_space_group_name_H-M    P1
_symmetry_Int_Tables_number       1
_space_group_crystal_system       triclinic
_cell_length_a                    8.28908
_cell_length_b                    8.506144
_cell_length_c                    10.995633
_cell_angle_alpha                 95.932068
_cell_angle_beta                  82.06459
_cell_angle_gamma                 93.085664
_cell_volume                      763.129570512

loop_
_atom_site_label
_atom_site_type_symbol
_atom_site_description
_atom_site_fract_x
_atom_site_fract_y
_atom_site_fract_z
_atom_type_partial_charge
O1    O     O_R   0.389250 0.738570 0.508370 -0.568105
O2    O     O_R   0.678390 0.711620 0.486510 -0.561436
C1    C     C_R   0.543328 0.792410 0.498019 0.984523
O3    O     O_R   0.355430 0.513500 0.696140 -0.571426
O4    O     O_R   0.644580 0.486550 0.674270 -0.562098
C2    C     C_R   0.499117 0.502812 0.741659 0.978931
Zn1   Zn    Zn3+2 0.306940 0.517990 0.514600 1.220149
Zn2   Zn    Zn3+2 0.693060 0.482010 0.485400 1.223234
O5    O     O_R   0.321610 0.288380 0.513490 -0.538993
O6    O     O_R   0.610750 0.261430 0.491630 -0.589680
O7    O     O_R   0.355420 0.513450 0.325730 -0.552697
O8    O     O_R   0.644570 0.486500 0.303860 -0.537855
C3    C     C_R   0.456989 0.207833 0.501719 0.924089
C4    C     C_R   0.505474 0.506422 0.259903 0.883860
C5    C     C_3   0.364506 0.605382 0.955695 -0.429072
H1    H     H_    0.254512 0.553953 0.924002 0.267876
H2    H     H_    0.358804 0.724601 0.926810 0.276061
C6    C     C_3   0.357284 0.605159 0.099519 0.526730
H3    H     H_    0.393445 0.266698 0.116877 0.260959
C7    C     C_3   0.486550 0.333424 0.922213 0.127156
C8    C     C_3   0.675729 0.598561 0.912724 0.379935
C9    C     C_3   0.506521 0.508626 0.880207 -0.371733
C10   C     C_3   0.514804 0.513078 0.123262 -0.386798
C11   C     C_3   0.487206 0.338923 0.066121 -0.354693
C12   C     C_3   0.696373 0.567170 0.051776 0.442997
H4    H     H_    0.590430 0.267530 0.873757 0.220467
H5    H     H_    0.566527 0.256576 0.095857 0.239649
C13   C     C_2   0.564947 0.957599 0.502706 -0.234334
H6    H     H_    0.687032 0.007944 0.508828 0.213207
C14   C     C_2   0.436024 0.043498 0.501268 -0.179145
H7    H     H_    0.313829 0.994195 0.497784 0.244684
N1    N     N_2   0.950330 0.457950 0.465890 0.141443
N2    N     N_2   0.049670 0.542050 0.534110 0.073262
S1    S     S_3+6 0.839718 0.396520 0.045781 0.129080
O9    O     O_2   0.869638 0.366662 0.171867 -0.124536
O10   O     O_2   0.796464 0.237755 0.982287 -0.320028
O11   O     O_3   0.016152 0.441313 0.964379 -0.458348
H8    H     H_    0.051101 0.344562 0.911362 0.435712
S2    S     S_3+6 0.002116 0.264553 0.420398 0.195297
O12   O     O_2   0.159561 0.257592 0.335192 -0.261384
O13   O     O_2   0.014561 0.181326 0.532713 -0.276870
O14   O     O_3   0.859849 0.167800 0.343435 -0.488866
H9    H     H_    0.891237 0.056050 0.332609 0.368711
N3    N     N_R   0.000487 0.694480 0.573841 0.312969
O15   O     O_R   0.107740 0.809135 0.585808 -0.314903
O16   O     O_R   0.858333 0.715670 0.634473 -0.298276
S3    S     S_3+6 0.342154 0.807966 0.181963 0.106098
O17   O     O_2   0.501230 0.874850 0.215213 -0.259029
O18   O     O_2   0.274814 0.916312 0.103778 -0.204602
O19   O     O_3   0.220317 0.818287 0.318202 -0.495394
H10   H     H_    0.153595 0.911768 0.319737 0.393447
N4    N     N_R   0.202123 0.518177 0.145986 0.272482
O20   O     O_R   0.172698 0.370771 0.112736 -0.296188
O21   O     O_R   0.095556 0.580610 0.232320 -0.220379
N5    N     N_R   0.343548 0.240965 0.882297 0.227120
O22   O     O_R   0.326403 0.221820 0.766111 -0.392647
O23   O     O_R   0.267547 0.136940 0.950457 -0.231018
N6    N     N_R   0.823956 0.539621 0.830954 0.253044
O24   O     O_R   0.836232 0.392042 0.785453 -0.370154
O25   O     O_R   0.957718 0.627752 0.822028 -0.239265
S4    S     S_3+6 0.667358 0.811282 0.879869 0.121438
O26   O     O_2   0.596177 0.818645 0.762392 -0.345765
O27   O     O_2   0.563153 0.911807 0.975355 -0.188958
O28   O     O_3   0.853417 0.903013 0.863407 -0.377582
H11   H     H_    0.845551 0.987337 0.808942 0.419955
S5    S     S_3+6 0.817164 0.736952 0.123505 0.168642
O29   O     O_2   0.820507 0.724239 0.257612 -0.261064
O30   O     O_2   0.989134 0.727325 0.060518 -0.185405
O31   O     O_3   0.773948 0.925563 0.113862 -0.407333
H12   H     H_    0.878411 0.987730 0.114833 0.422855

loop_
_geom_bond_atom_site_label_1
_geom_bond_atom_site_label_2
_geom_bond_distance
_ccdc_geom_bond_type
C4    C10   1.500527 S    
C5    C6    1.574481 S    
S5    O30   1.498863 D    
C10   C11   1.566022 S    
C5    H2    1.098808 S    
O11   H8    0.990421 S    
O4    Zn2   2.056821 S    
S1    O11   1.653541 S    
C8    S4    1.888107 S    
S3    O17   1.485049 D    
C11   H5    1.089094 S    
C12   S1    1.915075 S    
Zn2   O8    2.094412 S    
N1    N2    1.322383 D    
C6    S3    1.866057 S    
N5    O22   1.297482 A    
C13   C14   1.329389 D    
O19   H10   0.990174 S    
C6    N4    1.502297 S    
C8    N6    1.495828 S    
S2    O13   1.503579 D    
S3    O18   1.500549 D    
C8    C9    1.626869 S    
O28   H11   0.990960 S    
S4    O28   1.686032 S    
Zn1   O7    2.056820 S    
Zn1   N2    2.132415 S    
C14   H7    1.079318 S    
O4    C2    1.331205 A    
C7    H4    1.096828 S    
S4    O27   1.491019 D    
O3    Zn1   2.094413 S    
Zn2   O6    1.966337 S    
C1    C13   1.403429 S    
C12   S5    1.880736 S    
O8    C4    1.335484 A    
O2    C1    1.329425 A    
S3    O19   1.684151 S    
S1    O10   1.503949 D    
O31   H12   0.990768 S    
N5    O23   1.299321 A    
S4    O26   1.500592 D    
O7    C4    1.350928 A    
S5    O31   1.679597 S    
C7    N5    1.479250 S    
O14   H9    0.990010 S    
C7    C9    1.598854 S    
N6    O25   1.302559 A    
C6    C10   1.622642 S    
C2    C9    1.528704 S    
C7    C11   1.578955 S    
C3    C14   1.398888 S    
C10   C12   1.663816 S    
S5    O29   1.493803 D    
N4    O20   1.289289 A    
O3    C2    1.364918 A    
S1    O9    1.490843 D    
N1    S2    1.728399 S    
S2    O12   1.497908 D    
Zn1   O5    1.962078 S    
O5    C3    1.330329 A    
S2    O14   1.676673 S    
C13   H6    1.085448 S    
C8    C12   1.612403 S    
N3    O16   1.283172 A    
N6    O24   1.306288 A    
O1    Zn1   1.966338 S    
N2    N3    1.388828 S    
H3    C11   1.092081 S    
C5    C9    1.563771 S    
O2    Zn2   1.962078 S    
N3    O15   1.292779 A    
C5    H1    1.075812 S    
N4    O21   1.295471 A    
O1    C1    1.327219 A    
O6    C3    1.324180 A    
Zn2   N1    2.132414 S    
