data_mof_unit_29669.cif
_audit_creation_date              2013-03-05T16:35:51-0500
_audit_creation_method            fapswitch 2.2
_symmetry_space_group_name_H-M    P1
_symmetry_Int_Tables_number       1
_space_group_crystal_system       triclinic
_cell_length_a                    23.55144
_cell_length_b                    9.108077
_cell_length_c                    7.800459
_cell_angle_alpha                 89.999957
_cell_angle_beta                  90.001372
_cell_angle_gamma                 90.001582
_cell_volume                      1673.26342426

loop_
_atom_site_label
_atom_site_type_symbol
_atom_site_description
_atom_site_fract_x
_atom_site_fract_y
_atom_site_fract_z
_atom_type_partial_charge
O1    O     O_R   0.500000 0.288390 0.642760 -0.574891
O2    O     O_R   0.500000 0.711610 0.357240 -0.574898
O3    O     O_R   0.500000 0.711610 0.642760 -0.574895
O4    O     O_R   0.500000 0.288390 0.357240 -0.574893
H1    H     H_    0.948357 0.129384 0.505342 0.183206
H2    H     H_    0.051644 0.870944 0.504852 0.183201
H3    H     H_    0.948342 0.870921 0.494688 0.183214
H4    H     H_    0.051657 0.129402 0.495090 0.183224
C1    C     C_R   0.500000 0.220055 0.500000 0.848040
C2    C     C_R   0.500000 0.779945 0.500000 0.848025
O5    O     O_R   0.417880 0.500000 0.642820 -0.581952
O6    O     O_R   0.582120 0.500000 0.357180 -0.581968
O7    O     O_R   0.582120 0.500000 0.642820 -0.581973
O8    O     O_R   0.417880 0.500000 0.357180 -0.581988
C3    C     C_R   0.208834 0.500190 0.499893 0.112483
C4    C     C_R   0.791168 0.500112 0.500022 0.112419
C5    C     C_R   0.390705 0.500008 0.499996 0.845577
C6    C     C_R   0.609295 0.500007 0.500002 0.845566
Cu1   Cu    Cu3+1 0.500000 0.500000 0.669080 1.030893
Cu2   Cu    Cu3+1 0.500000 0.500000 0.330920 1.030880
C7    C     C_R   0.298413 0.544619 0.353943 -0.240469
C8    C     C_R   0.701607 0.455582 0.353984 -0.240243
C9    C     C_R   0.298383 0.455531 0.645947 -0.240185
C10   C     C_R   0.701599 0.544527 0.646041 -0.240275
H5    H     H_    0.321657 0.578791 0.240959 0.205507
H6    H     H_    0.678381 0.421416 0.240963 0.205510
H7    H     H_    0.321590 0.421287 0.758973 0.205390
H8    H     H_    0.678366 0.578667 0.759056 0.205516
C11   C     C_R   0.328250 0.500056 0.499970 -0.157941
C12   C     C_R   0.671751 0.500036 0.500010 -0.158047
C13   C     C_R   0.880644 0.631246 0.492059 0.664978
C14   C     C_R   0.119353 0.369071 0.492084 0.664717
C15   C     C_R   0.880650 0.369029 0.507994 0.664918
C16   C     C_R   0.119351 0.631299 0.507763 0.665099
N1    N     N_R   0.852203 0.500131 0.500030 -0.439301
N2    N     N_R   0.147797 0.500190 0.499890 -0.439332
C17   C     C_R   0.940173 0.366293 0.503883 -0.015731
C18   C     C_R   0.059827 0.634034 0.503684 -0.015768
C19   C     C_R   0.940167 0.634008 0.496142 -0.015742
C20   C     C_R   0.059831 0.366315 0.496238 -0.015747
C21   C     C_R   0.970041 0.500157 0.500001 -0.005621
C22   C     C_R   0.029958 0.500169 0.499975 -0.005643
C23   C     C_R   0.970403 0.233473 0.503065 -0.125287
C24   C     C_R   0.029597 0.766854 0.502731 -0.125245
C25   C     C_R   0.970392 0.766841 0.496944 -0.125266
C26   C     C_R   0.029607 0.233483 0.497229 -0.125235
C27   C     C_1   0.500000 0.065355 0.500000 -0.146130
C28   C     C_1   0.500000 0.934645 0.500000 -0.146127
C29   C     C_R   0.238940 0.545884 0.351559 0.350067
C30   C     C_R   0.761079 0.454407 0.351656 0.350209
C31   C     C_R   0.238912 0.454391 0.648221 0.350334
C32   C     C_R   0.761072 0.545778 0.648384 0.350195
N3    N     N_1   0.500000 0.500000 0.076820 -0.040248
N4    N     N_1   0.500000 0.500000 0.923180 -0.040246
O9    O     O_2   0.851310 0.758204 0.481569 -0.476468
O10   O     O_2   0.148683 0.242101 0.481680 -0.476409
O11   O     O_2   0.851323 0.242058 0.518498 -0.476484
O12   O     O_2   0.148679 0.758276 0.518144 -0.476392
N5    N     N_R   0.210048 0.593773 0.198257 0.177118
O13   O     O_R   0.158315 0.552545 0.165429 -0.287089
O14   O     O_R   0.236573 0.673268 0.085032 -0.303240
N6    N     N_R   0.789993 0.406542 0.198389 0.177162
O15   O     O_R   0.841695 0.447996 0.165490 -0.287075
O16   O     O_R   0.763518 0.326808 0.085276 -0.303124
N7    N     N_R   0.209978 0.406405 0.801381 0.176929
O17   O     O_R   0.158369 0.448424 0.834636 -0.286907
O18   O     O_R   0.236321 0.325709 0.913885 -0.302866
N8    N     N_R   0.789976 0.593674 0.801663 0.177192
O19   O     O_R   0.841693 0.552344 0.834535 -0.287072
O20   O     O_R   0.763478 0.673308 0.914809 -0.303156

loop_
_geom_bond_atom_site_label_1
_geom_bond_atom_site_label_2
_geom_bond_distance
_ccdc_geom_bond_type
C10   C32   1.400837 A    
C20   C26   1.403726 A    
C14   N2    1.370632 A    
C18   C24   1.403730 A    
N6    O15   1.300415 A    
C6    C12   1.470938 S    
C9    H7    1.083199 S    
Cu2   N3    1.982096 S    
C5    C11   1.470919 S    
C21   C22   1.411122 A    
C9    C31   1.400765 A    
C27   C28   1.190510 T    
C32   N8    1.443330 S    
C19   C25   1.403731 A    
C8    C30   1.400832 A    
C31   N7    1.443174 S    
O6    Cu2   1.944857 S    
C20   C22   1.407915 A    
N6    O16   1.301790 A    
H1    C23   1.081052 S    
N5    O13   1.300400 A    
C19   C21   1.407922 A    
O3    C2    1.275724 A    
H2    C24   1.081048 S    
N3    N4    1.198463 T    
C3    C29   1.419431 A    
O3    Cu1   1.938264 S    
O8    C5    1.284798 A    
O5    Cu1   1.944859 S    
C4    C30   1.419430 A    
O7    C6    1.284813 A    
C13   N1    1.370630 A    
C17   C21   1.407924 A    
C9    C11   1.398522 A    
Cu1   N4    1.982096 S    
C7    C29   1.400862 A    
C15   N1    1.370624 A    
C16   N2    1.370640 A    
C13   C19   1.402443 A    
C1    C27   1.409022 S    
C3    C31   1.419340 A    
C14   C20   1.402430 A    
C4    N1    1.437462 S    
C2    C28   1.409022 S    
C30   N6    1.443318 S    
C23   C26   1.395077 A    
H4    C26   1.081050 S    
C17   C23   1.403727 A    
N5    O14   1.301754 A    
C10   C12   1.398523 A    
O1    Cu1   1.938265 S    
O7    Cu1   1.944866 S    
O2    Cu2   1.938265 S    
O4    Cu2   1.938265 S    
C18   C22   1.407920 A    
H3    C25   1.081054 S    
C3    N2    1.437490 S    
O1    C1    1.275724 A    
C24   C25   1.395090 A    
O8    Cu2   1.944869 S    
C4    C32   1.419433 A    
N7    O17   1.300462 A    
C8    H6    1.083179 S    
O6    C6    1.284817 A    
C16   O12   1.349496 S    
N8    O20   1.301752 A    
C7    H5    1.083176 S    
O5    C5    1.284825 A    
C15   O11   1.349495 S    
C8    C12   1.398515 A    
C13   O9    1.349495 S    
O4    C1    1.275724 A    
C16   C18   1.402451 A    
C7    C11   1.398563 A    
C14   O10   1.349501 S    
O2    C2    1.275724 A    
C15   C17   1.402435 A    
Cu1   Cu2   2.637804 S    
C10   H8    1.083177 S    
N8    O19   1.300409 A    
N7    O18   1.302020 A    
C29   N5    1.443337 S    
