data_mof_unit_17001.cif
_audit_creation_date              2012-10-26T19:40:43-0400
_audit_creation_method            fapswitch 2.2
_symmetry_space_group_name_H-M    P1
_symmetry_Int_Tables_number       1
_space_group_crystal_system       triclinic
_cell_length_a                    9.713139
_cell_length_b                    10.923889
_cell_length_c                    13.5064
_cell_angle_alpha                 90.270114
_cell_angle_beta                  73.165136
_cell_angle_gamma                 89.92119
_cell_volume                      1371.66138699

loop_
_atom_site_label
_atom_site_type_symbol
_atom_type_description
_atom_site_fract_x
_atom_site_fract_y
_atom_site_fract_z
_atom_type_partial_charge
C1    C     C_R   0.498472 0.734451 0.503437 0.552665
C2    C     C_R   0.381337 0.480124 0.810987 -0.018302
C3    C     C_2   0.601452 0.066702 0.513769 -0.152077
C4    C     C_R   0.423454 0.500319 0.699353 0.596058
C5    C     C_2   0.507424 0.133946 0.480609 0.259616
C6    C     C_2   0.609609 0.933291 0.504506 -0.146144
C7    C     C_2   0.491539 0.865962 0.514812 -0.089977
C8    C     C_2   0.073561 0.597702 0.507499 0.006060
C9    C     C_2   0.909641 0.591256 0.534421 0.464767
C10   C     C_R   0.501514 0.265528 0.496477 0.547728
C11   C     C_R   0.575892 0.501815 0.300313 0.544410
C12   C     C_R   0.458957 0.462484 0.966970 0.012977
C13   C     C_R   0.774290 0.601340 0.030922 0.255332
C14   C     C_R   0.615319 0.514033 0.187240 -0.047779
C15   C     C_R   0.276120 0.391567 0.849292 -0.219703
C16   C     C_R   0.269278 0.330953 0.940217 -0.154036
C17   C     C_R   0.364744 0.360293 0.997788 0.328693
C18   C     C_3   0.475498 0.099907 0.322768 -0.108553
C19   C     C_3   0.893802 0.772306 0.632281 -0.142908
C20   C     C_3   0.012508 0.592208 0.947570 -0.125834
C21   C     C_3   0.285900 0.571253 0.196361 -0.090987
C22   C     C_3   0.255246 0.230146 0.134588 -0.081276
C23   C     C_R   0.468332 0.521797 0.871991 -0.037735
C24   C     C_3   0.463156 0.791418 0.802847 -0.132052
C25   C     C_R   0.548896 0.505098 0.026313 -0.013804
C26   C     C_R   0.669950 0.578315 0.979229 -0.050958
C27   C     C_R   0.677032 0.636173 0.886071 -0.088328
C28   C     C_R   0.568090 0.619064 0.839282 0.271936
C29   C     C_R   0.511928 0.490565 0.134288 0.296230
C30   C     C_R   0.748397 0.564377 0.133715 -0.165394
Cu1   Cu    Cu3+1 0.361370 0.499980 0.499980 0.963877
Cu2   Cu    Cu3+1 0.638630 0.500020 0.500020 1.037921
H1    H     H_    0.826639 0.586438 0.174174 0.147707
H2    H     H_    0.586810 0.062484 0.294019 0.114944
H3    H     H_    0.474076 0.198624 0.303046 0.152646
H4    H     H_    0.408657 0.050073 0.281807 0.135685
H5    H     H_    0.958774 0.831423 0.569283 0.091558
H6    H     H_    0.960368 0.731057 0.678142 0.104698
H7    H     H_    0.813095 0.832593 0.685312 0.167825
H8    H     H_    0.867742 0.377821 0.401632 0.364222
H9    H     H_    0.993257 0.525841 0.890162 0.127182
H10   H     H_    0.038917 0.543022 0.011772 0.117766
H11   H     H_    0.107644 0.647697 0.907465 0.137641
H12   H     H_    0.714113 0.890328 0.492525 0.163405
H13   H     H_    0.332035 0.650627 0.227802 0.114436
H14   H     H_    0.177795 0.553188 0.250267 0.167614
H15   H     H_    0.271053 0.594895 0.120183 0.087031
H16   H     H_    0.270515 0.202531 0.209543 0.155826
H17   H     H_    0.227260 0.146452 0.097682 0.092995
H18   H     H_    0.164940 0.297482 0.152433 0.130717
H19   H     H_    0.495767 0.844043 0.863169 0.110750
H20   H     H_    0.352525 0.754568 0.835021 0.099620
H21   H     H_    0.460945 0.856139 0.740337 0.142128
H22   H     H_    0.385335 0.907260 0.535170 0.158689
H23   H     H_    0.125767 0.686062 0.497945 0.113242
H24   H     H_    0.099603 0.420016 0.523478 0.259485
H25   H     H_    0.759980 0.702972 0.853923 0.167410
H26   H     H_    0.209405 0.358770 0.802886 0.137935
H27   H     H_    0.196724 0.254065 0.960289 0.109114
H28   H     H_    0.678299 0.110986 0.546738 0.112291
N1    N     N_2   0.152660 0.501340 0.501130 -0.339515
N2    N     N_2   0.846520 0.501370 0.501160 -0.061072
O1    O     O_R   0.382960 0.678040 0.499980 -0.528833
O2    O     O_3   0.820268 0.682163 0.592479 -0.517332
O3    O     O_3   0.932868 0.429674 0.427892 -0.683525
O4    O     O_3   0.894062 0.671353 0.985186 -0.578491
O5    O     O_3   0.370937 0.464671 0.189661 -0.511541
O6    O     O_3   0.385714 0.280196 0.072325 -0.535907
O7    O     O_3   0.562380 0.697299 0.760476 -0.520418
O8    O     O_R   0.617100 0.678080 0.500020 -0.435397
O9    O     O_R   0.325800 0.499940 0.650950 -0.527832
O10   O     O_R   0.559930 0.499980 0.650990 -0.428241
O11   O     O_R   0.382900 0.321920 0.499980 -0.476517
O12   O     O_R   0.617040 0.321960 0.500020 -0.556565
O13   O     O_R   0.440070 0.500020 0.349010 -0.439322
O14   O     O_R   0.674200 0.500060 0.349050 -0.531706
O15   O     O_3   0.416673 0.081237 0.429978 -0.584772

loop_
_geom_bond_atom_site_label_1
_geom_bond_atom_site_label_2
_ccdc_geom_bond_type
C24   H20   S    
C22   H16   S    
C9    O2    S    
Cu1   N1    S    
C28   O7    S    
C3    C6    S    
C20   H9    S    
Cu2   O10   S    
C12   C23   A    
C26   C27   A    
C20   O4    S    
C11   O14   A    
Cu2   O12   S    
C10   O11   A    
Cu1   O11   S    
C15   C16   A    
C19   H5    S    
C29   O5    S    
C8    C9    S    
C12   C17   A    
C18   H3    S    
N2    O3    S    
C8    N1    D    
C22   H18   S    
C3    H28   S    
C24   H19   S    
Cu1   O9    S    
C6    H12   S    
C21   O5    S    
C14   C30   A    
C1    O1    A    
C8    H23   S    
C24   O7    S    
C21   H13   S    
C13   O4    S    
C25   C29   A    
C9    N2    D    
Cu1   O1    S    
C13   C30   A    
C27   H25   S    
C16   C17   A    
Cu2   O8    S    
C24   H21   S    
C16   H27   S    
C2    C4    S    
C19   H6    S    
Cu1   O13   S    
Cu1   Cu2   S    
C19   O2    S    
C2    C23   A    
C23   C28   A    
C2    C15   A    
C18   H2    S    
C22   O6    S    
C19   H7    S    
C22   H17   S    
H8    O3    S    
C15   H26   S    
C13   C26   A    
C14   C29   A    
C5    O15   S    
C4    O10   A    
C20   H11   S    
C21   H14   S    
C17   O6    S    
C30   H1    S    
C1    C7    S    
C3    C5    D    
Cu2   O14   S    
C20   H10   S    
C6    C7    D    
C1    O8    A    
C12   C25   A    
C25   C26   A    
Cu2   N2    S    
C5    C10   S    
C11   O13   A    
C10   O12   A    
C18   O15   S    
C11   C14   S    
C27   C28   A    
H24   N1    S    
C7    H22   S    
C18   H4    S    
C4    O9    A    
C21   H15   S    
