data_mof_unit_49326.cif
_audit_creation_date              2013-03-05T15:48:00-0500
_audit_creation_method            fapswitch 2.2
_symmetry_space_group_name_H-M    P1
_symmetry_Int_Tables_number       1
_space_group_crystal_system       triclinic
_cell_length_a                    8.401371
_cell_length_b                    19.189305
_cell_length_c                    26.952629
_cell_angle_alpha                 96.158964
_cell_angle_beta                  92.311924
_cell_angle_gamma                 85.274708
_cell_volume                      4303.2673989

loop_
_atom_site_label
_atom_site_type_symbol
_atom_site_description
_atom_site_fract_x
_atom_site_fract_y
_atom_site_fract_z
_atom_type_partial_charge
P1    P     P_3+3 0.082480 0.557670 0.610090 0.606184
O1    O     O_2   0.913240 0.537010 0.617740 -0.246193
O2    O     O_3   0.145240 0.536960 0.557560 -0.391378
O3    O     O_3   0.669960 0.410470 0.588880 -0.341737
O4    O     O_2   0.819734 0.449428 0.673727 -0.352041
O5    O     O_3   0.077602 0.649177 0.625667 -0.595615
O6    O     O_3   0.668903 0.339482 0.676866 -0.534136
H1    H     H_    0.685518 0.280269 0.608122 0.124610
C1    C     C_3   0.587097 0.222834 0.662275 -0.970065
H2    H     H_    0.532127 0.185102 0.633885 0.223101
H3    H     H_    0.706080 0.199542 0.674173 0.272055
P2    P     P_3+3 0.635220 0.340300 0.462910 0.617869
P3    P     P_3+3 0.110178 0.283111 0.564853 0.494037
O7    O     O_2   0.812980 0.329910 0.477500 -0.304442
O8    O     O_3   0.078660 0.374870 0.564770 -0.346113
O9    O     O_2   0.982196 0.250009 0.529123 -0.334768
O10   O     O_3   0.626482 0.310599 0.399047 -0.531748
O11   O     O_3   0.067011 0.258277 0.623133 -0.517599
C2    C     C_3   0.110542 0.310837 0.660329 0.395072
H4    H     H_    0.045617 0.362029 0.654470 0.138325
H5    H     H_    0.240963 0.316309 0.660854 0.046142
C3    C     C_3   0.066454 0.291151 0.710880 -0.832519
H6    H     H_    0.941530 0.276104 0.709477 0.277884
H7    H     H_    0.147673 0.246256 0.721669 0.250195
C4    C     C_3   0.184316 0.320089 0.420779 0.349905
H8    H     H_    0.305212 0.336520 0.431435 -0.007613
H9    H     H_    0.103801 0.335811 0.452378 0.100389
C5    C     C_3   0.191104 0.240064 0.409931 0.606629
H10   H     H_    0.223270 0.215990 0.444900 -0.036462
Ba1   Ba    Ba6+2 0.854000 0.466860 0.523710 1.710464
C6    C     C_3   0.019362 0.688344 0.586902 0.739242
H11   H     H_    0.042499 0.660584 0.549250 0.065543
C7    C     C_3   0.100052 0.757818 0.591908 -0.046682
H12   H     H_    0.086740 0.784796 0.630414 0.109047
H13   H     H_    0.228678 0.746897 0.585310 0.183034
C8    C     C_3   0.640330 0.363502 0.368088 0.886412
H14   H     H_    0.603988 0.416653 0.386417 0.064420
C9    C     C_3   0.530624 0.349514 0.321936 -0.838566
H15   H     H_    0.564002 0.296853 0.302144 0.283695
H16   H     H_    0.538922 0.389511 0.295606 0.204852
H17   H     H_    0.404947 0.350741 0.333055 0.268810
P4    P     P_3+3 0.107220 0.442270 0.389900 0.569606
O12   O     O_2   0.276450 0.462960 0.382230 -0.400252
O13   O     O_3   0.044470 0.462980 0.442430 -0.352832
O14   O     O_3   0.519740 0.589470 0.411120 -0.273427
O15   O     O_3   0.127110 0.350474 0.377870 -0.502708
P5    P     P_3+3 0.077475 0.716389 0.434862 0.586051
O16   O     O_3   0.632420 0.583650 0.524140 -0.327907
O17   O     O_3   0.111040 0.625070 0.435230 -0.435479
O18   O     O_2   0.221575 0.750151 0.462391 -0.214542
O19   O     O_3   0.089634 0.734545 0.373106 -0.478779
Ba2   Ba    Ba6+2 0.335820 0.533080 0.476290 1.696565
P6    P     P_3+3 0.659082 0.421955 0.654244 0.514130
C10   C     C_3   0.604683 0.291303 0.640201 0.432809
H18   H     H_    0.484601 0.311564 0.627301 0.060664
H19   H     H_    0.509049 0.232628 0.694998 0.277427
O20   O     O_3   0.557280 0.416300 0.475860 -0.337995
C11   C     C_3   0.492478 0.660798 0.634208 0.793767
H20   H     H_    0.407901 0.625409 0.614092 -0.021882
C12   C     C_3   0.409960 0.705640 0.677706 -0.045590
H21   H     H_    0.324748 0.746545 0.663956 0.084565
H22   H     H_    0.499918 0.733809 0.701900 0.164686
P7    P     P_3+3 0.556271 0.672327 0.539444 0.571358
O21   O     O_2   0.376710 0.670070 0.522470 -0.384339
O22   O     O_3   0.552805 0.705665 0.603116 -0.593628
H23   H     H_    0.076197 0.336796 0.739428 0.240700
C13   C     C_3   0.963175 0.703725 0.345446 0.357818
H24   H     H_    0.971984 0.645845 0.346975 0.048213
H25   H     H_    0.845869 0.727038 0.359566 0.139678
C14   C     C_3   0.970550 0.717445 0.291150 -0.728032
H26   H     H_    0.866108 0.696463 0.269866 0.264072
H27   H     H_    0.967577 0.774849 0.288320 0.292245
H28   H     H_    0.081626 0.691034 0.274641 0.213993
P8    P     P_3+3 0.529760 0.571678 0.345515 0.494225
C15   C     C_3   0.445871 0.702368 0.330938 0.792469
O23   O     O_2   0.362491 0.553858 0.323935 -0.454096
O24   O     O_3   0.569280 0.649364 0.320896 -0.618616
H29   H     H_    0.327743 0.680983 0.331726 0.041573
C16   C     C_3   0.436710 0.751034 0.289120 0.581387
H30   H     H_    0.419886 0.718000 0.252999 0.045338
C17   C     C_R   0.033936 0.443718 0.182256 0.633446
O25   O     O_2   0.079649 0.394842 0.206133 -0.490764
N1    N     N_R   0.935359 0.498773 0.204634 -0.175816
C18   C     C_R   0.878093 0.553193 0.177244 0.542100
C19   C     C_2   0.736398 0.507377 0.270211 -0.215136
C20   C     C_3   0.691432 0.503872 0.324078 0.126669
C21   C     C_1   0.976822 0.486458 0.344244 0.222736
C22   C     C_2   0.018100 0.488738 0.297346 -0.295023
C23   C     C_2   0.891944 0.499162 0.256899 0.128831
C24   C     C_R   0.018250 0.497642 0.103597 -0.140884
C25   C     C_R   0.079814 0.442783 0.131698 -0.203559
C26   C     C_R   0.189265 0.389678 0.109145 0.481912
C27   C     C_R   0.917750 0.553070 0.126645 -0.020281
C28   C     C_2   0.833481 0.512581 0.359289 0.219225
H31   H     H_    0.142532 0.480431 0.287595 0.205789
C29   C     C_2   0.355041 0.492391 0.643084 -0.526666
C30   C     C_R   0.162151 0.433182 0.975200 0.018439
C31   C     C_R   0.062632 0.557056 0.976240 0.097414
C32   C     C_R   0.131772 0.494411 0.950226 -0.002617
C33   C     C_R   0.196281 0.368115 0.945753 0.581175
C34   C     C_R   0.231057 0.367185 0.894886 -0.271943
C35   C     C_R   0.222949 0.429337 0.871420 -0.076397
C36   C     C_R   0.170028 0.492951 0.898891 -0.074366
C37   C     C_R   0.156078 0.555247 0.875239 -0.053466
C38   C     C_R   0.197181 0.553275 0.824583 0.552436
N2    N     N_R   0.244949 0.490116 0.797211 -0.170757
C39   C     C_R   0.261066 0.428740 0.820543 0.555371
C40   C     C_2   0.438189 0.470456 0.731135 -0.205932
C41   C     C_3   0.491201 0.483704 0.680296 0.336571
C42   C     C_1   0.210806 0.515850 0.658241 0.255796
C43   C     C_2   0.165207 0.513789 0.705210 0.436656
C44   C     C_2   0.285762 0.488977 0.744700 -0.036851
O26   O     O_2   0.309139 0.373501 0.797092 -0.594668
C45   C     C_R   0.148398 0.438785 0.028330 -0.062060
C46   C     C_R   0.056490 0.497095 0.052340 -0.027489
C47   C     C_R   0.004590 0.555230 0.025401 -0.004027
C48   C     C_R   0.230611 0.390721 0.058783 0.353520
H32   H     H_    0.528117 0.455171 0.758831 0.177686
H33   H     H_    0.261204 0.317189 0.873345 0.182383
O27   O     O_2   0.792954 0.602226 0.197000 -0.600759
C49   C     C_R   0.855517 0.606985 0.098484 -0.248766
H34   H     H_    0.641569 0.512054 0.241911 0.175318
H35   H     H_    0.772777 0.648244 0.115348 0.175438
C50   C     C_R   0.058218 0.619387 0.952431 -0.112619
C51   C     C_R   0.103788 0.618447 0.903069 -0.101050
O28   O     O_2   0.191213 0.607961 0.804918 -0.546778
C52   C     C_R   0.894591 0.608210 0.048291 0.488314
H36   H     H_    0.027258 0.670375 0.972069 0.187228
H37   H     H_    0.097199 0.667776 0.886666 0.175449
H38   H     H_    0.391592 0.503090 0.606785 0.219617
C53   C     C_R   0.410492 0.298783 0.526977 -0.005733
C54   C     C_R   0.542303 0.275833 0.497728 0.078046
C55   C     C_R   0.585971 0.202699 0.489139 0.358735
C56   C     C_R   0.496589 0.154071 0.509871 -0.063561
C57   C     C_R   0.356644 0.178634 0.535303 -0.367429
C58   C     C_R   0.310545 0.250721 0.542292 0.130391
C59   C     C_R   0.603301 0.043395 0.545237 -0.338378
C60   C     C_R   0.654676 0.971059 0.540001 0.571074
C61   C     C_R   0.645276 0.931800 0.492662 -0.074226
C62   C     C_R   0.586252 0.966328 0.451128 0.441833
C63   C     C_R   0.536400 0.038256 0.456988 -0.174939
C64   C     C_R   0.544912 0.077317 0.503913 0.131066
C65   C     C_R   0.840948 0.827478 0.463650 0.507662
C66   C     C_R   0.886531 0.754833 0.461354 0.161260
C67   C     C_R   0.649985 0.734855 0.504435 0.303933
C68   C     C_R   0.602275 0.807509 0.508265 0.415109
C69   C     C_R   0.696010 0.854599 0.487292 -0.161074
C70   C     C_R   0.789557 0.709696 0.480472 -0.547705
H39   H     H_    0.611034 0.073577 0.581460 0.149602
H40   H     H_    0.491469 0.063961 0.424780 0.215778
H41   H     H_    0.281329 0.141598 0.548292 0.210082
H42   H     H_    0.829168 0.654716 0.479948 0.181443
Cl1   Cl    Cl    0.339761 0.209469 0.365496 -0.565755
O29   O     O_3   0.041696 0.219685 0.391597 -0.643082
H43   H     H_    0.048344 0.167591 0.389655 0.373628
O30   O     O_3   0.856292 0.703597 0.592314 -0.745082
H44   H     H_    0.840447 0.727093 0.626666 0.351142
O31   O     O_3   0.035828 0.802326 0.557126 -0.676089
H45   H     H_    0.937137 0.827070 0.571488 0.361572
O32   O     O_3   0.798688 0.361001 0.353345 -0.764200
H46   H     H_    0.829705 0.312028 0.339234 0.384474
Cl2   Cl    Cl    0.655842 0.613488 0.661727 -0.568500
O33   O     O_3   0.330644 0.663007 0.706036 -0.695006
H47   H     H_    0.272933 0.695319 0.731778 0.375005
Cl3   Cl    Cl    0.488382 0.750365 0.389552 -0.565944
O34   O     O_3   0.579074 0.784501 0.288379 -0.692243
H48   H     H_    0.572691 0.808859 0.257600 0.352063
O35   O     O_3   0.304714 0.800925 0.294726 -0.736093
H49   H     H_    0.331612 0.836862 0.322393 0.412112
O36   O     O_3   0.260832 0.339352 0.137706 -0.646634
H50   H     H_    0.302202 0.297912 0.115525 0.370949
O37   O     O_3   0.180469 0.305878 0.965944 -0.699817
H51   H     H_    0.205650 0.265620 0.940487 0.333836
Cl4   Cl    Cl    0.414714 0.345945 0.039405 -0.576108
O38   O     O_3   0.013356 0.541009 0.717916 -0.637512
H52   H     H_    0.989182 0.525179 0.750321 0.321050
O39   O     O_3   0.815027 0.657237 0.020272 -0.764815
H53   H     H_    0.741724 0.689494 0.041639 0.327562
O40   O     O_3   0.804004 0.533786 0.408661 -0.703333
H54   H     H_    0.887264 0.564786 0.421068 0.320996
Cl5   Cl    Cl    0.427227 0.839930 0.540039 -0.520473
O41   O     O_3   0.715175 0.937754 0.580464 -0.737811
H55   H     H_    0.713643 0.972252 0.610625 0.327943
Cl6   Cl    Cl    0.750693 0.171311 0.452161 -0.525026
Cl7   Cl    Cl    0.574265 0.921309 0.390906 -0.509961
O42   O     O_3   0.943480 0.869687 0.444288 -0.646404
H56   H     H_    0.906916 0.919770 0.452158 0.338098
Cl8   Cl    Cl    0.370699 0.388416 0.544842 -0.607825

loop_
_geom_bond_atom_site_label_1
_geom_bond_atom_site_label_2
_geom_bond_distance
_ccdc_geom_bond_type
C48   Cl4   1.775759 S    
C32   C36   1.429873 A    
C21   C22   1.330311 D    
P7    O22   1.766523 S    
C34   C35   1.404318 A    
O3    P6    1.756983 S    
C33   O37   1.382571 S    
C2    H4    1.107025 S    
C66   C70   1.387582 A    
C59   H39   1.082861 S    
C28   O40   1.375300 S    
C67   C70   1.387854 A    
C6    O30   1.387364 S    
C5    Cl1   1.785468 S    
C57   C58   1.400248 A    
P5    O17   1.752841 S    
N2    C44   1.467101 S    
C19   C20   1.524630 S    
C7    O31   1.398006 S    
C4    C5    1.528861 S    
C31   C50   1.413963 A    
C61   C69   1.500746 S    
P8    O23   1.549399 D    
P3    O11   1.749585 S    
C24   C27   1.408072 A    
C43   O38   1.380131 S    
C62   Cl7   1.758199 S    
Ba1   O16   2.792315 S    
C5    H10   1.107719 S    
C2    H5    1.108693 S    
C27   C49   1.402587 A    
C49   C52   1.407958 A    
C22   C23   1.506796 S    
P1    Ba1   3.385500 S    
C9    H15   1.110895 S    
O12   Ba2   2.786207 S    
N2    C39   1.388058 Am   
C11   C12   1.531782 S    
C65   C66   1.410375 A    
C21   C28   1.327511 D    
C12   O33   1.400455 S    
C40   C41   1.511033 S    
C12   H22   1.113783 S    
P1    O1    1.534732 D    
P4    O15   1.751936 S    
C42   C43   1.342861 D    
C39   O26   1.221673 D    
C20   C28   1.503425 S    
C30   C32   1.416041 A    
O41   H55   0.991570 S    
O33   H47   0.993085 S    
C3    H23   1.108170 S    
C37   C51   1.403572 A    
N1    C18   1.385989 Am   
C26   O36   1.383196 S    
C54   C55   1.417764 A    
C47   C52   1.422981 A    
P2    O10   1.754752 S    
C6    C7    1.535588 S    
C14   H26   1.108681 S    
O10   C8    1.396210 S    
C16   O35   1.405953 S    
C1    H2    1.109378 S    
C59   C60   1.413206 A    
C50   H36   1.078509 S    
C53   Cl8   1.744292 S    
O13   Ba2   2.955099 S    
O5    C6    1.400918 S    
C22   H31   1.083075 S    
C5    O29   1.400751 S    
Ba1   O13   2.755653 S    
P4    O13   1.531465 S    
O7    Ba1   2.826393 S    
C37   C38   1.417612 A    
C17   N1    1.387521 Am   
C63   H40   1.083600 S    
C67   C68   1.412601 A    
P5    O18   1.545796 D    
N1    C23   1.468395 S    
C61   C62   1.413604 A    
C59   C64   1.401333 A    
C13   H24   1.112119 S    
C34   H33   1.083504 S    
C40   H32   1.085824 S    
C19   H34   1.085560 S    
C2    C3    1.520015 S    
C62   C63   1.403126 A    
C9    H17   1.106859 S    
C53   C58   1.401177 A    
Ba2   O21   2.826611 S    
H1    C10   1.112665 S    
C25   C26   1.418205 A    
C19   C23   1.361281 D    
O11   C2    1.403686 S    
O16   P7    1.779428 S    
P5    O19   1.745384 S    
O14   Ba2   2.747013 S    
C11   H20   1.108794 S    
C29   C42   1.322319 D    
P5    C66   1.847140 S    
P8    O24   1.756264 S    
C17   O25   1.221280 D    
C40   C44   1.354559 D    
O14   P8    1.768612 S    
P1    O2    1.531491 S    
C52   O39   1.382147 S    
O2    Ba1   2.954253 S    
C65   C69   1.430615 A    
C26   C48   1.417229 A    
C30   C45   1.433122 A    
P1    C42   1.859744 S    
C56   C64   1.488595 S    
C55   C56   1.417062 A    
C15   O24   1.404479 S    
C11   O22   1.400484 S    
C31   C47   1.435123 A    
C6    H11   1.110978 S    
C43   C44   1.525693 S    
C18   O27   1.221799 D    
O17   Ba2   2.758327 S    
C14   H28   1.110351 S    
C7    H12   1.114521 S    
C35   C39   1.419340 A    
C15   Cl3   1.779907 S    
C1    H19   1.110837 S    
O19   C13   1.406880 S    
C24   C46   1.429691 A    
P8    C20   1.866153 S    
C55   Cl6   1.765315 S    
C1    H3    1.110464 S    
O29   H43   0.992462 S    
P2    O20   1.558644 S    
C38   O28   1.221951 D    
O35   H49   0.992180 S    
P2    O7    1.531372 D    
C31   C32   1.418117 A    
P3    O8    1.759107 S    
O34   H48   0.992470 S    
P3    C58   1.849028 S    
C3    H7    1.110515 S    
P4    O12   1.534961 D    
O6    P6    1.750627 S    
C53   C54   1.399051 A    
C11   Cl2   1.764972 S    
C36   C37   1.408371 A    
C30   C33   1.420497 A    
O37   H51   0.991645 S    
O8    Ba1   2.757705 S    
C29   H38   1.082281 S    
C68   C69   1.420918 A    
C38   N2    1.387844 Am   
P6    C41   1.874146 S    
Ba1   Ba2   4.609502 S    
C10   H18   1.107220 S    
O30   H44   0.994366 S    
P2    C54   1.867531 S    
C68   Cl5   1.766305 S    
P2    Ba1   3.405939 S    
C70   H42   1.078599 S    
P7    O21   1.561335 D    
Ba2   O20   2.791563 S    
O2    Ba2   2.755999 S    
C45   C46   1.417588 A    
C56   C57   1.406674 A    
P4    C21   1.842677 S    
O40   H54   0.980813 S    
C4    H9    1.109802 S    
C29   C41   1.501396 S    
O1    Ba1   2.785551 S    
C13   C14   1.519006 S    
O32   H46   0.993302 S    
C8    C9    1.531510 S    
C4    H8    1.106047 S    
O38   H52   0.988819 S    
C63   C64   1.401667 A    
C9    H16   1.107801 S    
O4    P6    1.541419 D    
C24   C25   1.413914 A    
O31   H45   0.992146 S    
C57   H41   1.083225 S    
C33   C34   1.411219 A    
C7    H13   1.101595 S    
C18   C27   1.416597 A    
C16   O34   1.405201 S    
C35   C36   1.406845 A    
C60   O41   1.381119 S    
C15   H29   1.106549 S    
C49   H35   1.083627 S    
C45   C48   1.418866 A    
C60   C61   1.413199 A    
C8    O32   1.399383 S    
C16   H30   1.113939 S    
C17   C25   1.428886 A    
C51   H37   1.083394 S    
O16   Ba2   2.947007 S    
C65   O42   1.382860 S    
C8    H14   1.109174 S    
O39   H53   0.991662 S    
O36   H50   0.989836 S    
P3    O9    1.544260 D    
P1    O5    1.758602 S    
C3    H6    1.109369 S    
C12   H21   1.102013 S    
C14   H27   1.110497 S    
C1    C10   1.519483 S    
O6    C10   1.401973 S    
C13   H25   1.112354 S    
O42   H56   0.987853 S    
C15   C16   1.534737 S    
C4    O15   1.400765 S    
P7    C67   1.846193 S    
O3    Ba1   2.747636 S    
Ba1   O20   2.947799 S    
C46   C47   1.424754 A    
P4    Ba2   3.386252 S    
C50   C51   1.397061 A    
