data_mof_unit_13147.cif
_audit_creation_date              2012-12-11T17:36:22-0500
_audit_creation_method            fapswitch 2.2
_symmetry_space_group_name_H-M    P1
_symmetry_Int_Tables_number       1
_space_group_crystal_system       triclinic
_cell_length_a                    25.784088
_cell_length_b                    6.898891
_cell_length_c                    21.744654
_cell_angle_alpha                 89.999855
_cell_angle_beta                  96.076468
_cell_angle_gamma                 89.999954
_cell_volume                      3846.24192312

loop_
_atom_site_label
_atom_site_type_symbol
_atom_type_description
_atom_site_fract_x
_atom_site_fract_y
_atom_site_fract_z
_atom_type_partial_charge
O1    O     O_R   0.208650 0.594520 0.175450 -0.533157
O2    O     O_R   0.791350 0.405480 0.824550 -0.533257
O3    O     O_R   0.291350 0.094520 0.324550 -0.533156
O4    O     O_R   0.708650 0.905480 0.675450 -0.533255
O5    O     O_R   0.192980 0.260780 0.300160 -0.541699
O6    O     O_R   0.807020 0.739220 0.699840 -0.541693
O7    O     O_R   0.307020 0.760780 0.199840 -0.541699
O8    O     O_R   0.692980 0.239220 0.800160 -0.541696
C1    C     C_R   0.178968 0.432841 0.318632 0.709879
C2    C     C_R   0.821026 0.567160 0.681360 0.709879
C3    C     C_R   0.321032 0.932842 0.181368 0.709880
C4    C     C_R   0.678974 0.067160 0.818640 0.709867
O9    O     O_R   0.202550 0.264660 0.174420 -0.537672
O10   O     O_R   0.797450 0.735340 0.825580 -0.537602
O11   O     O_R   0.297450 0.764660 0.325580 -0.537672
O12   O     O_R   0.702550 0.235340 0.674420 -0.537603
O13   O     O_R   0.300990 0.096480 0.197920 -0.540101
O14   O     O_R   0.699010 0.903520 0.802080 -0.540101
O15   O     O_R   0.199010 0.596480 0.302080 -0.540101
O16   O     O_R   0.800990 0.403520 0.697920 -0.540103
C5    C     C_R   0.191120 0.433309 0.151104 0.726723
C6    C     C_R   0.808874 0.566700 0.848900 0.726695
C7    C     C_R   0.308880 0.933308 0.348896 0.726723
C8    C     C_R   0.691125 0.066700 0.651100 0.726704
O17   O     O_3   0.282290 0.427760 0.257860 -0.366447
O18   O     O_3   0.717710 0.572240 0.742140 -0.366431
O19   O     O_3   0.217710 0.927760 0.242140 -0.366447
O20   O     O_3   0.782290 0.072240 0.757860 -0.366430
V1    V     V_3+5 0.244010 0.152080 0.248540 1.430744
V2    V     V_3+5 0.755990 0.847920 0.751460 1.430759
V3    V     V_3+5 0.255990 0.652080 0.251460 1.430744
V4    V     V_3+5 0.744010 0.347920 0.748540 1.430755
C9    C     C_R   0.657818 0.061368 0.591677 -0.120665
C10   C     C_R   0.342199 0.938764 0.408309 -0.120841
C11   C     C_R   0.842182 0.561365 0.908323 -0.120660
C12   C     C_R   0.157801 0.438767 0.091691 -0.120841
C13   C     C_R   0.648134 0.126462 0.481359 0.475690
C14   C     C_R   0.351768 0.876064 0.518764 0.477519
C15   C     C_R   0.851864 0.626432 0.018642 0.475697
C16   C     C_R   0.148232 0.376092 0.981235 0.477519
C17   C     C_R   0.679047 0.115681 0.538069 -0.227368
C18   C     C_R   0.320890 0.885985 0.462012 -0.226743
C19   C     C_R   0.820951 0.615659 0.961932 -0.227379
C20   C     C_R   0.179110 0.386004 0.037987 -0.226745
C21   C     C_R   0.604597 0.017435 0.589218 -0.206363
C22   C     C_R   0.395455 0.982064 0.410719 -0.206581
C23   C     C_R   0.895404 0.517442 0.910781 -0.206363
C24   C     C_R   0.104544 0.482058 0.089282 -0.206581
C25   C     C_R   0.571135 0.029642 0.532841 0.042687
C26   C     C_R   0.428882 0.970585 0.467138 0.042096
C27   C     C_R   0.928865 0.529639 0.967159 0.042685
C28   C     C_R   0.071118 0.470587 0.032863 0.042096
C29   C     C_R   0.593841 0.084675 0.478415 -0.009082
C30   C     C_R   0.406125 0.916587 0.521628 -0.009680
C31   C     C_R   0.906157 0.584654 0.021586 -0.009083
C32   C     C_R   0.093875 0.416607 0.978371 -0.009682
C33   C     C_R   0.515900 0.991613 0.528967 0.091202
C34   C     C_R   0.484122 0.008493 0.471004 0.091571
C35   C     C_R   0.984100 0.491618 0.971032 0.091201
C36   C     C_R   0.015877 0.508488 0.028997 0.091570
C37   C     C_R   0.508675 0.062355 0.418703 -0.203382
C38   C     C_R   0.491339 0.937897 0.581277 -0.203085
C39   C     C_R   0.991323 0.562331 0.081298 -0.203383
C40   C     C_R   0.008662 0.437919 0.918722 -0.203085
C41   C     C_R   0.561796 0.098762 0.422370 -0.093239
C42   C     C_R   0.438190 0.902085 0.577647 -0.091033
C43   C     C_R   0.938202 0.598731 0.077632 -0.093239
C44   C     C_R   0.061811 0.402114 0.922352 -0.091033
H1    H     H_    0.577166 0.139550 0.379927 0.205083
H2    H     H_    0.422827 0.861125 0.620078 0.204753
H3    H     H_    0.922831 0.639505 0.120076 0.205083
H4    H     H_    0.077175 0.361167 0.879920 0.204754
H5    H     H_    0.409443 0.019307 0.367333 0.108570
H6    H     H_    0.590664 0.979050 0.632538 0.108709
H7    H     H_    0.090555 0.519289 0.132668 0.108569
H8    H     H_    0.909337 0.479071 0.867460 0.108708
H9    H     H_    0.279733 0.851212 0.459174 0.153996
H10   H     H_    0.720162 0.151165 0.540969 0.154069
H11   H     H_    0.220268 0.351239 0.040825 0.153995
H12   H     H_    0.779836 0.651135 0.959032 0.154043
H13   H     H_    0.487936 0.078922 0.373431 0.127727
H14   H     H_    0.512078 0.921284 0.626547 0.127853
H15   H     H_    0.012062 0.578889 0.126571 0.127727
H16   H     H_    0.987923 0.421314 0.873452 0.127854
C45   C     C_R   0.434395 0.802513 0.089092 -0.181336
C46   C     C_R   0.565646 0.197482 0.910970 -0.181418
C47   C     C_R   0.065608 0.302508 0.410911 -0.181344
C48   C     C_R   0.934352 0.697484 0.589026 -0.181368
H17   H     H_    0.458772 0.678041 0.082328 0.178321
H18   H     H_    0.541266 0.321947 0.917740 0.178318
H19   H     H_    0.041231 0.178035 0.417677 0.178323
H20   H     H_    0.958729 0.821952 0.582252 0.178345
C49   C     C_R   0.394721 0.786107 0.128391 -0.152342
C50   C     C_R   0.605304 0.213889 0.871650 -0.152193
C51   C     C_R   0.105281 0.286105 0.371611 -0.152340
C52   C     C_R   0.894693 0.713893 0.628345 -0.152183
H21   H     H_    0.389405 0.648857 0.151064 0.145291
H22   H     H_    0.610608 0.351134 0.848969 0.145380
H23   H     H_    0.110596 0.148855 0.348938 0.145291
H24   H     H_    0.889386 0.851143 0.651021 0.145398
C53   C     C_R   0.362901 0.946047 0.138924 -0.113642
C54   C     C_R   0.637122 0.053956 0.861106 -0.113771
C55   C     C_R   0.137100 0.446045 0.361077 -0.113642
C56   C     C_R   0.862878 0.553955 0.638895 -0.113828
C57   C     C_R   0.371385 0.121602 0.108274 -0.231307
C58   C     C_R   0.628657 0.878410 0.891771 -0.231005
C59   C     C_R   0.128616 0.621600 0.391727 -0.231304
C60   C     C_R   0.871348 0.378402 0.608236 -0.230923
H25   H     H_    0.347694 0.247774 0.115264 0.136275
H26   H     H_    0.652349 0.752246 0.884776 0.136231
H27   H     H_    0.152306 0.747773 0.384736 0.136275
H28   H     H_    0.847658 0.252233 0.615234 0.136283
C61   C     C_R   0.409973 0.136848 0.067385 0.426764
C62   C     C_R   0.590083 0.863161 0.932678 0.426739
C63   C     C_R   0.090029 0.636844 0.432617 0.426761
C64   C     C_R   0.909922 0.363148 0.567332 0.426739
C65   C     C_R   0.442346 0.977410 0.058450 0.010043
C66   C     C_R   0.557707 0.022588 0.941620 0.009932
C67   C     C_R   0.057657 0.477404 0.441554 0.010055
C68   C     C_R   0.942295 0.522582 0.558383 0.009900
C69   C     C_1   0.483118 0.992753 0.017306 0.013964
C70   C     C_1   0.516939 0.007230 0.982769 0.013779
C71   C     C_1   0.016885 0.492746 0.482699 0.013922
C72   C     C_1   0.983064 0.507223 0.517235 0.013667
S1    S     S_3+6 0.678926 0.197235 0.415577 0.005136
O21   O     O_2   0.736098 0.234462 0.432655 -0.338465
O22   O     O_2   0.672528 0.038746 0.367927 -0.316073
O23   O     O_3   0.650602 0.401036 0.385808 -0.500971
H29   H     H_    0.667627 0.426954 0.347889 0.386793
S2    S     S_3+6 0.320774 0.809261 0.584788 0.006787
O24   O     O_2   0.263085 0.782777 0.568369 -0.339922
O25   O     O_2   0.343916 0.622387 0.610505 -0.319961
O26   O     O_3   0.330697 0.984180 0.638628 -0.489397
H30   H     H_    0.315373 0.932858 0.675220 0.380758
S3    S     S_3+6 0.821070 0.697180 0.084426 0.005121
O27   O     O_2   0.763897 0.734402 0.067348 -0.338489
O28   O     O_2   0.827470 0.538679 0.132071 -0.316075
O29   O     O_3   0.849392 0.900978 0.114200 -0.500967
H31   H     H_    0.832366 0.926882 0.152120 0.386793
S4    S     S_3+6 0.179229 0.309310 0.915209 0.006787
O30   O     O_2   0.236918 0.282831 0.931629 -0.339922
O31   O     O_2   0.156088 0.122439 0.889488 -0.319959
O32   O     O_3   0.169303 0.484242 0.861374 -0.489396
H32   H     H_    0.184628 0.432931 0.824780 0.380758
O33   O     O_3   0.417667 0.311615 0.038623 -0.569907
C73   C     C_3   0.382258 0.323425 0.984608 0.086472
H33   H     H_    0.341229 0.324769 0.996340 0.164712
H34   H     H_    0.387678 0.199665 0.952924 0.138104
C74   C     C_3   0.391915 0.510251 0.950458 -0.639895
H35   H     H_    0.433188 0.517110 0.940220 0.221791
H36   H     H_    0.366055 0.515888 0.906287 0.211066
H37   H     H_    0.383344 0.637234 0.979029 0.220916
O34   O     O_3   0.582396 0.688383 0.961436 -0.570133
C75   C     C_3   0.617782 0.676621 0.015472 0.086282
H38   H     H_    0.612352 0.800419 0.047138 0.139386
H39   H     H_    0.658821 0.675239 0.003769 0.164542
C76   C     C_3   0.608098 0.489842 0.049632 -0.637294
H40   H     H_    0.616671 0.362819 0.021080 0.220536
H41   H     H_    0.633939 0.484220 0.093817 0.213578
H42   H     H_    0.566819 0.483041 0.059848 0.221243
O35   O     O_3   0.082335 0.811611 0.461379 -0.569915
C77   C     C_3   0.117743 0.823419 0.515395 0.086467
H43   H     H_    0.158772 0.824762 0.503664 0.164716
H44   H     H_    0.112321 0.699658 0.547079 0.138112
C78   C     C_3   0.108085 0.010244 0.549545 -0.639901
H45   H     H_    0.066812 0.017103 0.559782 0.221793
H46   H     H_    0.133944 0.015879 0.593717 0.211066
H47   H     H_    0.116658 0.137227 0.520975 0.220919
O36   O     O_3   0.917612 0.188349 0.538588 -0.570128
C79   C     C_3   0.882288 0.176697 0.484495 0.086190
H48   H     H_    0.887832 0.300358 0.452818 0.139331
H49   H     H_    0.841224 0.175671 0.496111 0.164623
C80   C     C_3   0.891923 0.989732 0.450406 -0.637361
H50   H     H_    0.883228 0.862868 0.478963 0.220582
H51   H     H_    0.866146 0.984197 0.406172 0.213538
H52   H     H_    0.933225 0.982554 0.440291 0.221270

loop_
_geom_bond_atom_site_label_1
_geom_bond_atom_site_label_2
_ccdc_geom_bond_type
O17   V3    S    
S3    O29   S    
C48   C52   A    
O1    C5    A    
C78   H45   S    
C47   H19   S    
O19   V1    S    
C9    C21   A    
O36   C79   S    
O3    C7    A    
C10   C18   A    
S4    O32   S    
C11   C23   A    
O23   H29   S    
O33   C73   S    
C25   C33   A    
C71   C72   T    
C5    C12   S    
C15   S3    S    
C80   H50   S    
O7    C3    A    
C6    C11   S    
C35   C40   A    
C76   H40   S    
C58   C62   A    
C36   C39   A    
C14   S2    S    
C57   C61   A    
S4    O31   D    
C23   H8    S    
C14   C18   A    
C74   H36   S    
C73   H34   S    
C58   H26   S    
O4    C8    A    
C51   H23   S    
C44   H4    S    
C43   H3    S    
C79   H48   S    
C50   H22   S    
O32   H32   S    
C77   C78   S    
C16   S4    S    
O1    V3    S    
O13   V1    S    
O2    V4    S    
C66   C70   S    
C61   O33   S    
O3    V1    S    
C65   C69   S    
O12   V4    S    
C40   H16   S    
C46   C50   A    
C45   C49   A    
C1    O15   A    
C15   C31   A    
C48   H20   S    
C2    O16   A    
C16   C32   A    
C47   C51   A    
O2    C6    A    
S1    O23   S    
C54   C58   A    
C10   C22   A    
C21   C25   A    
C48   C68   A    
C11   C19   A    
C62   O34   S    
C75   H39   S    
C1    C55   S    
C13   C29   A    
C34   C37   A    
O11   C7    A    
C38   H14   S    
O15   V3    S    
C35   C36   A    
O12   C8    A    
C53   C57   A    
C24   H7    S    
C47   C67   A    
C78   H46   S    
O10   V2    S    
C4    C54   S    
C51   C55   A    
O35   C77   S    
C13   S1    S    
C80   H51   S    
O17   V1    S    
C39   C43   A    
O7    V3    S    
C38   C42   A    
O19   V3    S    
C26   C34   A    
S3    O27   D    
S4    O30   D    
C75   C76   S    
C46   C66   A    
C46   H18   S    
C74   H37   S    
C49   C53   A    
C17   H10   S    
C45   H17   S    
O18   V4    S    
C23   C27   A    
C33   C38   A    
C19   H12   S    
C32   C44   A    
C77   H43   S    
C64   C68   A    
C39   H15   S    
C21   H6    S    
O8    V4    S    
C63   O35   S    
S2    O25   D    
O5    C1    A    
C37   C41   A    
C73   C74   S    
C49   H21   S    
C31   C43   A    
C14   C30   A    
O20   V4    S    
O8    C4    A    
C7    C10   S    
C75   H38   S    
O9    C5    A    
C3    C53   S    
C26   C30   A    
C45   C65   A    
C59   C63   A    
C69   C70   T    
C62   C66   A    
C61   C65   A    
O6    V2    S    
C16   C20   A    
O18   V2    S    
C78   H47   S    
C63   C67   A    
C52   C56   A    
S1    O21   D    
C12   C20   A    
S2    O26   S    
C27   C35   A    
C76   H41   S    
O5    V1    S    
C40   C44   A    
C56   C60   A    
C29   C41   A    
C73   H33   S    
O16   V4    S    
C80   H52   S    
O9    V1    S    
S3    O28   D    
C57   H25   S    
C3    O13   A    
C59   H27   S    
C20   H11   S    
O6    C2    A    
C15   C19   A    
O11   V3    S    
C30   C42   A    
C67   C71   S    
C76   H42   S    
C22   C26   A    
C8    C9    S    
C9    C17   A    
O10   C6    A    
C2    C56   S    
S2    O24   D    
C77   H44   S    
C37   H13   S    
C74   H35   S    
C60   C64   A    
C33   C34   A    
O26   H30   S    
C79   H49   S    
C41   H1    S    
C52   H24   S    
O20   V2    S    
C64   O36   S    
C12   C24   A    
C27   C31   A    
C13   C17   A    
C68   C72   S    
C25   C29   A    
O29   H31   S    
O14   V2    S    
C60   H28   S    
C24   C28   A    
C42   H2    S    
C50   C54   A    
C18   H9    S    
C28   C36   A    
C4    O14   A    
S1    O22   D    
C55   C59   A    
O34   C75   S    
C22   H5    S    
O4    V2    S    
C28   C32   A    
C79   C80   S    
