data_mof_unit_24591.cif
_audit_creation_date              2012-12-11T15:18:37-0500
_audit_creation_method            fapswitch 2.2
_symmetry_space_group_name_H-M    P1
_symmetry_Int_Tables_number       1
_space_group_crystal_system       triclinic
_cell_length_a                    6.932943
_cell_length_b                    19.85886
_cell_length_c                    23.799837
_cell_angle_alpha                 93.488305
_cell_angle_beta                  91.788274
_cell_angle_gamma                 87.629171
_cell_volume                      3266.54658314

loop_
_atom_site_label
_atom_site_type_symbol
_atom_type_description
_atom_site_fract_x
_atom_site_fract_y
_atom_site_fract_z
_atom_type_partial_charge
O1    O     O_R   0.620100 0.812200 0.810870 -0.537896
O2    O     O_R   0.379900 0.187800 0.189130 -0.538598
O3    O     O_R   0.296960 0.671650 0.794750 -0.541714
O4    O     O_R   0.703040 0.328350 0.205250 -0.541576
O5    O     O_R   0.120160 0.687800 0.689130 -0.539986
O6    O     O_R   0.879840 0.312200 0.310870 -0.539948
C1    C     C_R   0.471001 0.646362 0.804125 0.704245
C2    C     C_R   0.528986 0.353581 0.195826 0.704278
O7    O     O_R   0.290810 0.810670 0.817290 -0.542191
O8    O     O_R   0.709190 0.189330 0.182710 -0.542223
O9    O     O_R   0.113980 0.827820 0.711840 -0.534762
O10   O     O_R   0.886020 0.172180 0.288160 -0.534631
C3    C     C_R   0.459091 0.832174 0.834012 0.708784
C4    C     C_R   0.540852 0.167984 0.165853 0.707241
O11   O     O_R   0.626290 0.672180 0.788160 -0.535476
O12   O     O_R   0.373710 0.327820 0.211840 -0.535662
O13   O     O_3   0.451520 0.755460 0.715370 -0.367548
O14   O     O_3   0.548480 0.244540 0.284630 -0.367245
V1    V     V_3+5 0.179200 0.748980 0.756420 1.399780
V2    V     V_3+5 0.820800 0.251020 0.243580 1.399796
O15   O     O_R   0.783880 0.828350 0.705250 -0.538543
O16   O     O_R   0.216120 0.171650 0.294750 -0.538378
C5    C     C_R   0.947633 0.853060 0.694783 0.695585
C6    C     C_R   0.052366 0.146942 0.305219 0.695775
O17   O     O_R   0.790030 0.689320 0.682700 -0.544171
O18   O     O_R   0.209970 0.310680 0.317300 -0.544104
C7    C     C_R   0.959512 0.667814 0.665929 0.704218
C8    C     C_R   0.040486 0.332191 0.334066 0.704413
V3    V     V_3+5 0.678400 0.751010 0.743570 1.404796
V4    V     V_3+5 0.321600 0.248990 0.256430 1.403926
O19   O     O_3   0.955950 0.744540 0.784620 -0.365658
O20   O     O_3   0.044050 0.255460 0.215380 -0.366143
C9    C     C_R   0.866556 0.426415 0.389048 -0.230598
C10   C     C_R   0.133440 0.573603 0.610932 -0.230565
C11   C     C_R   0.028419 0.381827 0.383159 -0.083576
C12   C     C_R   0.971576 0.618189 0.616827 -0.083547
C13   C     C_R   0.177694 0.384951 0.424071 -0.220878
C14   C     C_R   0.822306 0.615074 0.575909 -0.220882
C15   C     C_R   0.165975 0.431400 0.470797 0.080362
C16   C     C_R   0.834029 0.568632 0.529177 0.080354
C17   C     C_R   0.004224 0.476476 0.476534 0.019619
C18   C     C_R   0.995778 0.523555 0.523441 0.019608
C19   C     C_R   0.852267 0.474709 0.435120 0.055504
C20   C     C_R   0.147735 0.525317 0.564855 0.055523
C21   C     C_R   0.315371 0.432974 0.511661 -0.192864
C22   C     C_R   0.684641 0.567061 0.488308 -0.192911
C23   C     C_R   0.308867 0.478757 0.559331 0.072587
C24   C     C_R   0.691141 0.521272 0.440639 0.072575
H1    H     H_    0.753822 0.423467 0.356679 0.120977
H2    H     H_    0.246176 0.576546 0.643301 0.120948
H3    H     H_    0.302703 0.350551 0.419837 0.121439
H4    H     H_    0.697298 0.649474 0.580145 0.121412
H5    H     H_    0.436660 0.397610 0.505592 0.118870
H6    H     H_    0.563358 0.602430 0.494370 0.118866
C25   C     C_R   0.935360 0.914958 0.662786 -0.060032
C26   C     C_R   0.064638 0.085044 0.337217 -0.059905
C27   C     C_R   0.755513 0.019680 0.647461 -0.160600
C28   C     C_R   0.244480 0.980321 0.352544 -0.161008
C29   C     C_R   0.811803 0.968188 0.682218 -0.156204
C30   C     C_R   0.188189 0.031813 0.317786 -0.156518
C31   C     C_R   0.013979 0.916895 0.608975 -0.218368
C32   C     C_R   0.986023 0.083109 0.391029 -0.218346
C33   C     C_R   0.969146 0.971853 0.574087 0.084316
C34   C     C_R   0.030856 0.028153 0.425918 0.084298
C35   C     C_R   0.824923 0.019853 0.592769 0.093263
C36   C     C_R   0.175076 0.980151 0.407236 0.093401
C37   C     C_R   0.048116 0.977670 0.519388 -0.002792
C38   C     C_R   0.951887 0.022336 0.480617 -0.002818
C39   C     C_R   0.780431 0.058777 0.498306 0.149989
C40   C     C_R   0.219573 0.941229 0.501700 0.150026
C41   C     C_R   0.734815 0.062959 0.555141 -0.211700
C42   C     C_R   0.265186 0.937046 0.444864 -0.211843
H7    H     H_    0.611500 0.094623 0.568712 0.133282
H8    H     H_    0.388501 0.905382 0.431294 0.133224
H9    H     H_    0.905568 0.127494 0.406874 0.126580
H10   H     H_    0.094438 0.872511 0.593130 0.126581
H11   H     H_    0.252302 0.032647 0.276886 0.105296
H12   H     H_    0.747683 0.967350 0.723117 0.105322
H13   H     H_    0.648153 0.057323 0.662255 0.112869
H14   H     H_    0.351836 0.942677 0.337749 0.112638
C43   C     C_R   0.503983 0.584497 0.835328 -0.081752
C44   C     C_R   0.495785 0.415286 0.164475 -0.081588
C45   C     C_R   0.708823 0.483051 0.845906 0.079212
C46   C     C_R   0.289554 0.516323 0.153677 0.078525
C47   C     C_R   0.634510 0.535036 0.813506 -0.186832
C48   C     C_R   0.365150 0.464718 0.186251 -0.187167
C49   C     C_R   0.440434 0.580791 0.890279 -0.240320
C50   C     C_R   0.558447 0.418693 0.109398 -0.240580
C51   C     C_R   0.511509 0.528739 0.925172 0.061697
C52   C     C_R   0.485835 0.470302 0.074283 0.061969
C53   C     C_R   0.648106 0.479745 0.902174 0.110591
C54   C     C_R   0.348915 0.519232 0.097236 0.111063
C55   C     C_R   0.456770 0.525232 0.982733 0.068355
C56   C     C_R   0.539618 0.473504 0.016600 0.068224
C57   C     C_R   0.672794 0.426314 0.991558 -0.197510
C58   C     C_R   0.322268 0.572048 0.007605 -0.197361
C59   C     C_R   0.723549 0.428996 0.935996 -0.214003
C60   C     C_R   0.271638 0.569457 0.063184 -0.214173
H15   H     H_    0.826211 0.390510 0.920375 0.132004
H16   H     H_    0.167759 0.607635 0.078638 0.133863
H17   H     H_    0.654392 0.377967 0.094500 0.110983
H18   H     H_    0.345289 0.621679 0.905323 0.109544
H19   H     H_    0.314330 0.460922 0.228565 0.112319
H20   H     H_    0.686141 0.539065 0.771314 0.112081
H21   H     H_    0.742887 0.386089 0.013768 0.125414
H22   H     H_    0.250638 0.611795 0.985180 0.121862
C61   C     C_R   0.385788 0.070937 0.112700 -0.208609
C62   C     C_R   0.611165 0.930470 0.886157 -0.206498
C63   C     C_R   0.530754 0.118370 0.116672 -0.084325
C64   C     C_R   0.469382 0.881870 0.883074 -0.078988
C65   C     C_R   0.666921 0.117537 0.074134 -0.229060
C66   C     C_R   0.340906 0.880083 0.927359 -0.244340
C67   C     C_R   0.656522 0.071298 0.026558 0.076317
C68   C     C_R   0.353578 0.925890 0.975129 0.079294
C69   C     C_R   0.508128 0.023831 0.023196 0.013631
C70   C     C_R   0.493403 0.976321 0.976577 0.016256
C71   C     C_R   0.376520 0.022830 0.067131 0.076092
C72   C     C_R   0.623747 0.977637 0.932365 0.071747
C73   C     C_R   0.791399 0.070272 0.982659 0.075180
C74   C     C_R   0.234768 0.921709 0.022254 0.084466
C75   C     C_R   0.770634 0.024198 0.935838 -0.232629
C76   C     C_R   0.242136 0.972017 0.066310 -0.223571
H23   H     H_    0.283163 0.070209 0.146115 0.117049
H24   H     H_    0.712208 0.931575 0.852371 0.115497
H25   H     H_    0.777880 0.154285 0.078308 0.132144
H26   H     H_    0.233875 0.841876 0.924358 0.131503
H27   H     H_    0.872525 0.023796 0.902143 0.125595
H28   H     H_    0.147269 0.969843 0.101489 0.123659
C77   C     C_3   0.858308 0.433996 0.819358 -0.389979
C78   C     C_3   0.063863 0.451198 0.839650 -0.280297
C79   C     C_3   0.212229 0.400359 0.814022 -0.768435
H29   H     H_    0.183671 0.348647 0.826170 0.226685
H30   H     H_    0.207097 0.401406 0.767379 0.225888
H31   H     H_    0.359067 0.413228 0.829729 0.227884
H32   H     H_    0.095867 0.502481 0.827021 0.202827
H33   H     H_    0.078399 0.451310 0.886251 0.200698
H34   H     H_    0.826081 0.381220 0.827530 0.169558
H35   H     H_    0.850942 0.436152 0.772858 0.173836
C80   C     C_3   0.140311 0.565395 0.180305 -0.390285
C81   C     C_3   0.934447 0.547351 0.161024 -0.278749
C82   C     C_3   0.785951 0.597592 0.187368 -0.770222
H36   H     H_    0.793444 0.596364 0.233996 0.225830
H37   H     H_    0.812252 0.649488 0.175234 0.225410
H38   H     H_    0.638888 0.584261 0.172221 0.228227
H39   H     H_    0.917303 0.547207 0.114472 0.200553
H40   H     H_    0.905038 0.495917 0.173840 0.202728
H41   H     H_    0.150094 0.563970 0.226847 0.174073
H42   H     H_    0.170715 0.618109 0.171428 0.168463
C83   C     C_3   0.961676 0.116016 0.984648 -0.344915
C84   C     C_3   0.900300 0.186885 0.966769 -0.313178
C85   C     C_3   0.068925 0.234096 0.972607 -0.770571
H43   H     H_    0.121161 0.239432 0.017205 0.230148
H44   H     H_    0.189457 0.214170 0.945896 0.231057
H45   H     H_    0.021055 0.284735 0.958919 0.213427
H46   H     H_    0.847688 0.183572 0.922113 0.196632
H47   H     H_    0.780691 0.208848 0.992886 0.192622
H48   H     H_    0.031324 0.118171 0.027355 0.178848
H49   H     H_    0.075217 0.094577 0.955925 0.176151
C86   C     C_3   0.114176 0.861175 0.030047 -0.379544
C87   C     C_3   0.912828 0.869482 0.002768 -0.281847
C88   C     C_3   0.796356 0.806826 0.008468 -0.768453
H50   H     H_    0.869501 0.761928 0.987106 0.223890
H51   H     H_    0.779403 0.797655 0.053593 0.225779
H52   H     H_    0.650823 0.814166 0.988608 0.227184
H53   H     H_    0.835735 0.913762 0.023793 0.206509
H54   H     H_    0.924365 0.878218 0.957398 0.204435
H55   H     H_    0.189483 0.814102 0.013188 0.168402
H56   H     H_    0.098772 0.854458 0.075750 0.172724
C89   C     C_3   0.469272 0.478102 0.604806 -0.357030
C90   C     C_3   0.635154 0.425155 0.595381 -0.297087
C91   C     C_3   0.783767 0.429045 0.643933 -0.777841
H57   H     H_    0.840009 0.480608 0.649872 0.237410
H58   H     H_    0.716236 0.415810 0.683227 0.217991
H59   H     H_    0.906474 0.392708 0.634837 0.222210
H60   H     H_    0.577372 0.373628 0.592411 0.190444
H61   H     H_    0.708579 0.433721 0.555806 0.205548
H62   H     H_    0.532286 0.528739 0.608584 0.180458
H63   H     H_    0.403075 0.469026 0.645505 0.169416
C92   C     C_3   0.530737 0.521918 0.395163 -0.357020
C93   C     C_3   0.364836 0.574858 0.404577 -0.297112
C94   C     C_3   0.216175 0.570925 0.356037 -0.777849
H64   H     H_    0.283648 0.584111 0.316720 0.217861
H65   H     H_    0.159920 0.519360 0.350140 0.237513
H66   H     H_    0.093478 0.607271 0.365118 0.222098
H67   H     H_    0.291451 0.566312 0.444163 0.205546
H68   H     H_    0.422592 0.626388 0.407521 0.190369
H69   H     H_    0.596934 0.530987 0.354462 0.169310
H70   H     H_    0.467737 0.471278 0.391392 0.180489
C95   C     C_3   0.624678 0.084893 0.458362 -0.779552
H71   H     H_    0.629513 0.140575 0.457079 0.198881
H72   H     H_    0.634583 0.059911 0.415533 0.220083
H73   H     H_    0.479867 0.073008 0.472985 0.218783
C96   C     C_3   0.375328 0.915115 0.541644 -0.779611
H74   H     H_    0.365420 0.940096 0.584473 0.220086
H75   H     H_    0.370498 0.859433 0.542927 0.198852
H76   H     H_    0.520137 0.927002 0.527022 0.218771

loop_
_geom_bond_atom_site_label_1
_geom_bond_atom_site_label_2
_ccdc_geom_bond_type
C73   C83   S    
C4    C63   S    
V4    O20   S    
C91   H57   S    
C33   C35   A    
C55   C56   A    
C52   C56   A    
C25   C29   A    
O13   V3    S    
C17   C18   A    
C27   H13   S    
C78   H32   S    
C61   H23   S    
C6    C26   S    
O4    C2    A    
C79   H31   S    
V1    O19   S    
C66   C68   A    
C50   H17   S    
C54   C60   A    
C15   C17   A    
C90   H61   S    
C94   H64   S    
C16   C22   A    
C91   H58   S    
C80   H41   S    
C2    C44   S    
C34   C38   A    
C11   C13   A    
C46   C48   A    
C75   H27   S    
O3    C1    A    
C63   C65   A    
C13   H3    S    
C27   C29   A    
C92   H69   S    
C90   C91   S    
C28   C30   A    
C69   C70   A    
C1    O11   A    
C83   H48   S    
C86   H56   S    
C31   C33   A    
C89   C90   S    
C85   H45   S    
C39   C41   A    
O7    C3    A    
C32   C34   A    
C57   H21   S    
C88   H51   S    
C67   C73   A    
O7    V1    S    
C36   C42   A    
C77   H35   S    
C8    C11   S    
O8    V2    S    
C38   C39   A    
C69   C71   A    
C58   C60   A    
C65   H25   S    
C74   C86   S    
C85   H43   S    
O3    V1    S    
O14   V4    S    
C87   H54   S    
C51   C53   A    
C83   H49   S    
C17   C19   A    
C66   H26   S    
C20   C23   A    
C28   H14   S    
C15   C21   A    
C26   C32   A    
C16   C18   A    
C21   H5    S    
C2    O12   A    
O5    C7    A    
C76   H28   S    
C61   C63   A    
C22   H6    S    
C95   H71   S    
C18   C20   A    
C62   H24   S    
C48   H19   S    
C29   H12   S    
C89   H62   S    
C59   H15   S    
C74   C76   A    
O11   V3    S    
C33   C37   A    
C90   H60   S    
C73   C75   A    
C31   H10   S    
O17   V3    S    
C30   H11   S    
C91   H59   S    
C22   C24   A    
C80   H42   S    
C10   H2    S    
C40   C42   A    
C37   C38   A    
C9    C19   A    
C62   C72   A    
C10   C20   A    
C81   C82   S    
C46   C80   S    
C42   H8    S    
O8    C4    A    
C94   H65   S    
C39   C95   S    
C41   H7    S    
C92   H70   S    
C96   H75   S    
C35   C41   A    
O15   V3    S    
C26   C30   A    
C72   C75   A    
C34   C36   A    
C95   H73   S    
C71   C76   A    
C3    C64   S    
C49   H18   S    
C52   C54   A    
C86   C87   S    
C96   H76   S    
O9    V1    S    
O10   V2    S    
O1    V3    S    
C77   H34   S    
C65   C67   A    
C68   C74   A    
C87   H53   S    
C53   C59   A    
C5    C25   S    
C43   C49   A    
C47   H20   S    
C93   H68   S    
C70   C72   A    
C45   C47   A    
C50   C52   A    
O18   V4    S    
C55   C58   A    
C60   H16   S    
C84   H46   S    
O15   C5    A    
O16   C6    A    
C32   H9    S    
C82   H38   S    
O1    C3    A    
C81   H40   S    
C79   H29   S    
C89   H63   S    
C88   H52   S    
O6    V2    S    
C93   C94   S    
C28   C36   A    
C77   C78   S    
V2    O20   S    
C94   H66   S    
C58   H22   S    
O16   V4    S    
C1    C43   S    
C78   H33   S    
C27   C35   A    
C79   H30   S    
C81   H39   S    
C68   C70   A    
C80   C81   S    
C57   C59   A    
C45   C77   S    
O5    V1    S    
C7    C12   S    
O17   C7    A    
C45   C53   A    
O10   C6    A    
O18   C8    A    
O2    V4    S    
C37   C40   A    
C19   C24   A    
C87   C88   S    
C82   H37   S    
C78   C79   S    
V3    O19   S    
C44   C48   A    
C82   H36   S    
C12   C14   A    
C14   C16   A    
C9    C11   A    
C62   C64   A    
C88   H50   S    
C40   C96   S    
C44   C50   A    
C25   C31   A    
C14   H4    S    
O9    C5    A    
O13   V1    S    
C10   C12   A    
C86   H55   S    
C23   C89   S    
O14   V2    S    
C85   H44   S    
C51   C55   A    
C56   C57   A    
O2    C4    A    
C64   C66   A    
C93   H67   S    
C92   C93   S    
O4    V2    S    
O6    C8    A    
C21   C23   A    
C13   C15   A    
C96   H74   S    
C9    H1    S    
C49   C51   A    
C84   C85   S    
C84   H47   S    
C46   C54   A    
C95   H72   S    
C83   C84   S    
O12   V4    S    
C61   C71   A    
C24   C92   S    
C43   C47   A    
C67   C69   A    
