data_mof_unit_36044.cif
_audit_creation_date              2013-03-05T15:51:56-0500
_audit_creation_method            fapswitch 2.2
_symmetry_space_group_name_H-M    P1
_symmetry_Int_Tables_number       1
_space_group_crystal_system       triclinic
_cell_length_a                    9.582152
_cell_length_b                    10.863136
_cell_length_c                    17.303878
_cell_angle_alpha                 92.014346
_cell_angle_beta                  85.077386
_cell_angle_gamma                 89.312885
_cell_volume                      1793.24268784

loop_
_atom_site_label
_atom_site_type_symbol
_atom_site_description
_atom_site_fract_x
_atom_site_fract_y
_atom_site_fract_z
_atom_type_partial_charge
O1    O     O_R   0.381190 0.680360 0.500010 -0.588893
O2    O     O_R   0.618760 0.680340 0.500000 -0.588116
C1    C     C_R   0.498527 0.737505 0.495217 0.877335
O3    O     O_R   0.367440 0.500030 0.613600 -0.564856
O4    O     O_R   0.605010 0.500010 0.613590 -0.550401
C2    C     C_R   0.480711 0.501120 0.649740 0.933515
Cu1   Cu    Cu3+1 0.359340 0.500010 0.500010 1.006797
Cu2   Cu    Cu3+1 0.640660 0.499990 0.499990 1.008271
O5    O     O_R   0.381240 0.319660 0.500000 -0.625990
O6    O     O_R   0.618810 0.319640 0.499990 -0.589741
O7    O     O_R   0.394990 0.499990 0.386410 -0.572875
O8    O     O_R   0.632560 0.499970 0.386400 -0.610252
C3    C     C_R   0.499172 0.262750 0.504503 0.830186
C4    C     C_R   0.519416 0.502557 0.350231 0.829052
C5    C     C_R   0.468206 0.502973 0.734496 -0.216586
C6    C     C_R   0.527942 0.599404 0.777399 -0.095495
C7    C     C_R   0.523075 0.593150 0.858141 -0.076775
C8    C     C_R   0.459007 0.494334 0.896048 0.107558
C9    C     C_R   0.392857 0.403807 0.854201 -0.132357
C10   C     C_R   0.400053 0.405238 0.773441 0.334969
C11   C     C_R   0.452943 0.570902 0.144227 -0.216204
C12   C     C_R   0.437759 0.574615 0.225251 0.351764
C13   C     C_R   0.645320 0.442225 0.224406 -0.210545
C14   C     C_R   0.660008 0.440412 0.143814 -0.043735
C15   C     C_R   0.563188 0.503590 0.103288 0.004688
C16   C     C_2   0.460596 0.484562 0.980078 -0.291094
C17   C     C_2   0.577079 0.499221 0.017821 0.312096
C18   C     C_R   0.533782 0.507456 0.265668 -0.131991
H1    H     H_    0.719854 0.390461 0.254537 0.164847
H2    H     H_    0.343561 0.327491 0.884076 0.188638
H3    H     H_    0.380883 0.623728 0.113011 0.187347
H4    H     H_    0.361594 0.464435 0.012380 0.166311
H5    H     H_    0.568535 0.665815 0.891996 0.190514
H6    H     H_    0.745372 0.387638 0.113066 0.184933
H7    H     H_    0.718098 0.885837 0.473982 0.172661
C19   C     C_R   0.229203 0.888465 0.492009 -0.151352
H8    H     H_    0.215757 0.802527 0.460804 0.218358
C20   C     C_R   0.106069 0.950924 0.519339 -0.233044
H9    H     H_    0.006424 0.907398 0.512875 0.170239
C21   C     C_R   0.111609 0.067149 0.555637 0.361110
C22   C     C_R   0.241579 0.124398 0.556576 -0.155396
H10   H     H_    0.243552 0.213023 0.586419 0.236400
C23   C     C_R   0.366592 0.065946 0.522692 0.048005
C24   C     C_R   0.362534 0.939943 0.501309 0.117440
C25   C     C_R   0.491891 0.872047 0.490659 -0.081733
C26   C     C_R   0.618773 0.934913 0.484346 -0.182901
H11   H     H_    0.718955 0.107954 0.479240 0.189050
C27   C     C_R   0.619835 0.061965 0.489834 -0.121815
C28   C     C_R   0.495370 0.128728 0.509057 -0.028658
H12   H     H_    0.855668 0.642536 0.585132 0.153585
C29   C     C_R   0.872989 0.333665 0.399863 -0.222019
H13   H     H_    0.764212 0.329496 0.393369 0.207421
C30   C     C_R   0.952483 0.248244 0.353048 -0.282024
H14   H     H_    0.899806 0.184429 0.316262 0.201573
C31   C     C_R   0.097226 0.245644 0.352830 0.329377
C32   C     C_R   0.160848 0.331851 0.399817 -0.228274
H15   H     H_    0.271376 0.328426 0.393634 0.225717
C33   C     C_R   0.083141 0.417489 0.450772 0.186979
C34   C     C_R   0.933699 0.417873 0.450805 0.261262
N1    N     N_R   0.852190 0.498790 0.499250 -0.197379
C35   C     C_R   0.917762 0.578323 0.546789 -0.006054
H16   H     H_    0.114424 0.642481 0.585027 0.150605
C36   C     C_R   0.065785 0.578291 0.546757 -0.023612
N2    N     N_R   0.148060 0.498710 0.499220 -0.196715
C37   C     C_2   0.593894 0.708332 0.740284 0.882575
O9    O     O_2   0.689254 0.760806 0.770012 -0.529499
O10   O     O_R   0.544699 0.753686 0.672925 -0.776418
H17   H     H_    0.597403 0.828873 0.654126 0.350559
N3    N     N_R   0.985748 0.127958 0.589843 0.136396
O11   O     O_R   0.870560 0.066700 0.602054 -0.345890
O12   O     O_R   0.986279 0.243846 0.611648 -0.322123
N4    N     N_R   0.329424 0.651406 0.265082 0.135008
O13   O     O_R   0.208113 0.661270 0.237150 -0.315185
O14   O     O_R   0.358826 0.726823 0.321271 -0.360682
N5    N     N_R   0.180002 0.156300 0.304526 0.144837
O15   O     O_R   0.120300 0.078591 0.259300 -0.295695
O16   O     O_R   0.315335 0.149520 0.306734 -0.360381
N6    N     N_R   0.714411 0.506050 0.977043 0.131551
O17   O     O_R   0.810862 0.571308 0.006772 -0.311132
O18   O     O_R   0.748543 0.435776 0.915686 -0.293786
N7    N     N_R   0.349598 0.301221 0.731555 0.112400
O19   O     O_R   0.435902 0.238740 0.682507 -0.378513
O20   O     O_R   0.230096 0.253199 0.754623 -0.295744

loop_
_geom_bond_atom_site_label_1
_geom_bond_atom_site_label_2
_geom_bond_distance
_ccdc_geom_bond_type
C31   C32   1.398189 A    
C16   H4    1.087543 S    
C22   H10   1.077530 S    
C9    C10   1.393869 A    
C8    C16   1.463004 S    
C23   C24   1.407168 A    
C17   N6    1.442826 S    
N7    O19   1.300180 A    
Cu1   Cu2   2.695618 S    
C30   H14   1.083068 S    
Cu1   O7    1.966083 S    
C11   H3    1.083589 S    
C16   C17   1.348974 D    
C13   H1    1.083056 S    
C19   H8    1.076607 S    
O4    C2    1.296654 A    
O7    C4    1.299284 A    
N6    O18   1.301695 A    
C5    C6    1.417307 A    
C32   H15   1.055385 S    
C35   C36   1.418333 A    
C8    C9    1.391719 A    
N3    O12   1.301662 A    
O5    C3    1.291126 A    
C2    C5    1.460626 S    
C6    C7    1.398004 A    
C37   O10   1.397357 S    
C13   C14   1.389001 A    
C31   N5    1.442376 S    
C34   N1    1.380128 A    
C12   C18   1.413575 A    
C11   C12   1.396187 A    
C22   C23   1.420201 A    
C7    H5    1.084232 S    
O3    Cu1   1.973714 S    
C12   N4    1.436851 S    
N7    O20   1.301241 A    
C30   C31   1.386576 A    
C33   N2    1.385252 A    
C5    C10   1.413943 A    
C26   C27   1.380332 A    
C21   N3    1.439470 S    
C29   H13   1.059237 S    
C14   C15   1.397745 A    
N4    O14   1.300952 A    
N6    O17   1.301164 A    
C23   C28   1.423033 A    
C33   C34   1.431882 A    
C25   C26   1.399591 A    
C1    C25   1.467354 S    
C14   H6    1.083259 S    
O10   H17   1.014076 S    
N1    C35   1.367363 A    
C29   C30   1.386307 A    
N5    O15   1.301652 A    
H16   C36   1.081790 S    
H11   C27   1.083155 S    
Cu2   O8    1.973714 S    
C7    C8    1.398435 A    
C13   C18   1.403383 A    
N5    O16   1.301899 A    
C3    C28   1.461507 S    
O3    C2    1.298284 A    
C27   C28   1.397585 A    
O8    C4    1.298024 A    
C19   C24   1.420202 A    
C29   C34   1.412914 A    
C24   C25   1.429568 A    
Cu1   O5    1.967862 S    
C11   C15   1.403253 A    
C21   C22   1.399782 A    
O1    Cu1   1.972817 S    
O2    Cu2   1.967862 S    
N4    O13   1.301310 A    
O6    C3    1.306624 A    
O4    Cu2   1.966083 S    
C15   C17   1.472507 S    
C4    C18   1.460819 S    
C19   C20   1.392350 A    
O2    C1    1.312481 A    
Cu2   N1    2.025737 S    
C20   C21   1.393902 A    
C9    H2    1.084105 S    
C20   H9    1.083141 S    
C32   C33   1.417876 A    
N3    O11   1.301242 A    
Cu1   N2    2.025951 S    
C36   N2    1.366712 A    
Cu2   O6    1.972817 S    
C37   O9    1.223539 D    
H12   C35   1.081932 S    
C6    C37   1.487856 S    
O1    C1    1.288700 A    
C10   N7    1.432321 S    
H7    C26   1.083525 S    
