data_mof_unit_56185.cif
_audit_creation_date              2012-10-26T20:37:33-0400
_audit_creation_method            fapswitch 2.2
_symmetry_space_group_name_H-M    P1
_symmetry_Int_Tables_number       1
_space_group_crystal_system       triclinic
_cell_length_a                    10.853783
_cell_length_b                    10.996403
_cell_length_c                    9.811419
_cell_angle_alpha                 91.110863
_cell_angle_beta                  101.864617
_cell_angle_gamma                 90.212708
_cell_volume                      1145.74977432

loop_
_atom_site_label
_atom_site_type_symbol
_atom_type_description
_atom_site_fract_x
_atom_site_fract_y
_atom_site_fract_z
_atom_type_partial_charge
C1    C     C_R   0.495604 0.266514 0.497921 0.581256
C2    C     C_2   0.122848 0.515339 0.418462 0.258897
C3    C     C_2   0.069021 0.586343 0.504979 -0.019720
C4    C     C_2   0.876372 0.523102 0.582620 0.007228
C5    C     C_2   0.929760 0.584083 0.489102 0.332760
C6    C     C_2   0.474436 0.935769 0.403287 -0.031184
C7    C     C_3   0.904473 0.737322 0.325400 -0.109035
C8    C     C_3   0.630668 0.658032 0.902530 -0.015020
C9    C     C_3   0.523523 0.280676 0.111396 -0.304397
C10   C     C_3   0.439015 0.613646 0.104008 -0.162793
C11   C     C_3   0.142207 0.677650 0.608527 -0.446764
C12   C     C_2   0.525419 0.864418 0.510016 0.258928
C13   C     C_3   0.955087 0.470677 0.713239 -0.451696
C14   C     C_3   0.072639 0.449528 0.188104 -0.092205
C15   C     C_3   0.363762 0.897802 0.290123 -0.448087
C16   C     C_3   0.572992 0.938683 0.735387 -0.136036
C17   C     C_3   0.655234 0.012513 0.260217 -0.125849
C18   C     C_3   0.325701 0.353149 0.834833 -0.389718
C19   C     C_2   0.517552 0.062631 0.406963 0.305676
C20   C     C_2   0.468693 0.137894 0.489468 -0.055915
C21   C     C_2   0.441963 0.419891 0.909593 0.182076
C22   C     C_2   0.482125 0.405415 0.065127 0.163837
C23   C     C_R   0.261794 0.504020 0.444204 0.532602
C24   C     C_R   0.502578 0.733960 0.501919 0.557986
C25   C     C_R   0.738153 0.506187 0.555825 0.592796
Cu1   Cu    Cu3+1 0.500020 0.500020 0.638640 0.951842
Cu2   Cu    Cu3+1 0.499980 0.499980 0.361360 0.961553
H1    H     H_    0.402954 0.104251 0.550365 0.020154
H2    H     H_    0.541836 0.224317 0.022520 0.079026
H3    H     H_    0.363892 0.634767 0.161303 0.140136
H4    H     H_    0.510517 0.687554 0.124037 0.123893
H5    H     H_    0.388271 0.616359 0.994361 0.054664
H6    H     H_    0.077164 0.740397 0.648367 0.116450
H7    H     H_    0.198472 0.631137 0.699630 0.149593
H8    H     H_    0.204845 0.733405 0.557770 0.119531
H9    H     H_    0.896045 0.420976 0.774048 0.160395
H10   H     H_    0.023992 0.405344 0.685191 0.136653
H11   H     H_    0.005781 0.544680 0.780924 0.110729
H12   H     H_    0.832553 0.778502 0.242686 0.112942
H13   H     H_    0.149452 0.386346 0.176054 0.132435
H14   H     H_    0.096030 0.544467 0.163955 0.092936
H15   H     H_    0.987936 0.421328 0.109715 0.151178
H16   H     H_    0.312509 0.978989 0.242994 0.120138
H17   H     H_    0.397344 0.847450 0.206448 0.122518
H18   H     H_    0.296183 0.840998 0.332622 0.110669
H19   H     H_    0.642341 0.910801 0.828773 0.112184
H20   H     H_    0.480942 0.894705 0.739046 0.089123
H21   H     H_    0.563323 0.038700 0.744109 0.134678
H22   H     H_    0.577857 0.981670 0.173574 0.094162
H23   H     H_    0.986909 0.715652 0.278663 0.113962
H24   H     H_    0.696611 0.934806 0.324370 0.151539
H25   H     H_    0.730449 0.051748 0.212815 0.128298
H26   H     H_    0.346889 0.288505 0.755397 0.159724
H27   H     H_    0.283936 0.299909 0.909343 0.070881
H28   H     H_    0.253956 0.419227 0.786260 0.130118
H29   H     H_    0.929939 0.805906 0.411641 0.109298
H30   H     H_    0.541310 0.710043 0.879660 0.092597
H31   H     H_    0.685564 0.671040 0.820524 0.172237
H32   H     H_    0.688232 0.697799 0.999879 0.082108
H33   H     H_    0.613430 0.286863 0.189186 0.216280
H34   H     H_    0.447939 0.234245 0.151794 0.143796
N1    N     N_2   0.498650 0.498660 0.846590 -0.050331
N2    N     N_2   0.498620 0.498630 0.152710 -0.201227
O1    O     O_R   0.500020 0.321960 0.617050 -0.515408
O2    O     O_3   0.612143 0.533584 0.923435 -0.467744
O3    O     O_3   0.044999 0.439569 0.321801 -0.558771
O4    O     O_3   0.621265 0.908912 0.615704 -0.570872
O5    O     O_3   0.613491 0.103431 0.343130 -0.558960
O6    O     O_R   0.499980 0.321920 0.382890 -0.488270
O7    O     O_R   0.320700 0.500020 0.574050 -0.532008
O8    O     O_R   0.320660 0.499980 0.339890 -0.538192
O9    O     O_R   0.500020 0.678080 0.617110 -0.526222
O10   O     O_R   0.499980 0.678040 0.382950 -0.530274
O11   O     O_R   0.679340 0.500020 0.660110 -0.485608
O12   O     O_R   0.679300 0.499980 0.425950 -0.415413
O13   O     O_3   0.852499 0.631244 0.370344 -0.514743

loop_
_geom_bond_atom_site_label_1
_geom_bond_atom_site_label_2
_ccdc_geom_bond_type
C19   C20   D    
C2    O3    S    
C7    O13   S    
C11   H6    S    
C23   O8    A    
C8    H30   S    
C18   C21   S    
Cu1   O9    S    
C10   H3    S    
C13   H10   S    
C10   N2    S    
C17   O5    S    
C9    H2    S    
C7    H12   S    
C14   H15   S    
C9    H33   S    
C16   H21   S    
C5    O13   S    
C11   H8    S    
C2    C3    D    
C14   O3    S    
C3    C5    S    
C15   H16   S    
C8    O2    S    
C16   O4    S    
C21   C22   S    
C6    C12   D    
C6    C19   S    
C23   O7    A    
C17   H24   S    
Cu1   Cu2   S    
Cu2   N2    S    
C7    H29   S    
C14   H14   S    
C9    H34   S    
C18   H28   S    
C17   H25   S    
Cu1   O11   S    
C13   H11   S    
C15   H17   S    
C4    C25   S    
C2    C23   S    
C8    H32   S    
Cu1   N1    S    
Cu1   O7    S    
C12   O4    S    
Cu2   O12   S    
C24   O10   A    
C21   N1    D    
C3    C11   S    
C18   H27   S    
C14   H13   S    
C1    O1    A    
C10   H5    S    
C19   O5    S    
Cu2   O8    S    
C24   O9    A    
C13   H9    S    
C25   O11   A    
C17   H22   S    
C4    C13   S    
N1    O2    S    
C12   C24   S    
C9    C22   S    
C16   H19   S    
C1    C20   S    
Cu1   O1    S    
C16   H20   S    
C20   H1    S    
C18   H26   S    
C8    H31   S    
C6    C15   S    
Cu2   O10   S    
C10   H4    S    
C11   H7    S    
C1    O6    A    
C22   N2    D    
C7    H23   S    
C4    C5    D    
C25   O12   A    
C15   H18   S    
Cu2   O6    S    
