data_mof_unit_16591.cif
_audit_creation_date              2012-12-11T15:07:31-0500
_audit_creation_method            fapswitch 2.2
_symmetry_space_group_name_H-M    P1
_symmetry_Int_Tables_number       1
_space_group_crystal_system       triclinic
_cell_length_a                    21.664016
_cell_length_b                    7.200336
_cell_length_c                    18.793905
_cell_angle_alpha                 89.999928
_cell_angle_beta                  95.274788
_cell_angle_gamma                 89.999941
_cell_volume                      2919.21258989

loop_
_atom_site_label
_atom_site_type_symbol
_atom_type_description
_atom_site_fract_x
_atom_site_fract_y
_atom_site_fract_z
_atom_type_partial_charge
O1    O     O_R   0.449650 0.506500 0.414480 -0.527990
O2    O     O_R   0.550350 0.006500 0.585520 -0.527990
O3    O     O_R   0.432010 0.173150 0.560250 -0.542676
O4    O     O_R   0.567990 0.673150 0.439750 -0.542675
C1    C     C_R   0.417486 0.344273 0.582839 0.682106
C2    C     C_R   0.582514 0.844273 0.417161 0.682103
O5    O     O_R   0.442320 0.176650 0.413480 -0.540527
O6    O     O_R   0.557680 0.676650 0.586520 -0.540527
O7    O     O_R   0.560730 0.008380 0.437700 -0.537469
O8    O     O_R   0.439270 0.508380 0.562300 -0.537469
C3    C     C_R   0.426469 0.345802 0.389504 0.687270
C4    C     C_R   0.573531 0.845802 0.610495 0.687269
O9    O     O_3   0.538840 0.339860 0.508120 -0.380588
O10   O     O_3   0.461160 0.839860 0.491880 -0.380587
V1    V     V_3+5 0.492800 0.064220 0.498490 1.377515
V2    V     V_3+5 0.507200 0.564220 0.501510 1.377514
C5    C     C_R   0.878156 0.985030 0.693283 -0.146845
C6    C     C_R   0.121842 0.485016 0.306717 -0.146844
H1    H     H_    0.963923 0.011275 0.758513 0.101322
H2    H     H_    0.036075 0.511247 0.241488 0.101322
H3    H     H_    0.801749 0.000068 0.578357 0.142991
H4    H     H_    0.198250 0.500063 0.421644 0.142991
H5    H     H_    0.899806 0.017639 0.645037 0.112154
H6    H     H_    0.100192 0.517618 0.354964 0.112154
C7    C     C_R   0.888482 0.941728 0.820830 -0.031348
C8    C     C_R   0.111518 0.441727 0.179170 -0.031348
C9    C     C_R   0.590508 0.807055 0.739005 -0.154551
C10   C     C_R   0.409491 0.307049 0.260995 -0.154550
C11   C     C_R   0.625820 0.795500 0.804061 -0.123350
C12   C     C_R   0.374179 0.295484 0.195940 -0.123349
C13   C     C_R   0.689200 0.827634 0.808795 -0.137150
C14   C     C_R   0.310798 0.327619 0.191206 -0.137150
C15   C     C_R   0.719755 0.875020 0.748013 0.041967
C16   C     C_R   0.280244 0.375017 0.251988 0.041966
C17   C     C_R   0.683316 0.889447 0.679703 -0.004204
C18   C     C_R   0.316684 0.389446 0.320297 -0.004205
C19   C     C_R   0.785602 0.908545 0.753622 0.071007
C20   C     C_R   0.214397 0.408546 0.246378 0.071008
C21   C     C_R   0.814220 0.951046 0.690905 0.077038
C22   C     C_R   0.185779 0.451042 0.309095 0.077038
C23   C     C_R   0.779161 0.964678 0.625783 -0.210701
C24   C     C_R   0.220838 0.464675 0.374218 -0.210705
C25   C     C_R   0.715205 0.940687 0.619267 0.234391
C26   C     C_R   0.284795 0.440686 0.380733 0.234397
C27   C     C_R   0.824534 0.903976 0.819173 -0.201487
C28   C     C_R   0.175467 0.403985 0.180826 -0.201487
C29   C     C_R   0.914823 0.981453 0.757733 -0.158974
C30   C     C_R   0.085176 0.481437 0.242267 -0.158974
C31   C     C_R   0.617311 0.852713 0.676371 -0.074189
C32   C     C_R   0.382689 0.352712 0.323629 -0.074188
H7    H     H_    0.806860 0.876172 0.869828 0.091153
H8    H     H_    0.193142 0.376196 0.130171 0.091151
H9    H     H_    0.541270 0.778069 0.737425 0.101583
H10   H     H_    0.458730 0.278064 0.262575 0.101584
H11   H     H_    0.713065 0.812923 0.861282 0.106507
H12   H     H_    0.286932 0.312896 0.138721 0.106507
H13   H     H_    0.603785 0.759163 0.851590 0.117789
H14   H     H_    0.396213 0.259138 0.148411 0.117788
C33   C     C_R   0.636749 0.018798 0.325470 -0.219955
C34   C     C_R   0.363252 0.518795 0.674532 -0.219961
C35   C     C_R   0.631604 0.856924 0.366840 -0.065607
C36   C     C_R   0.368396 0.356924 0.633160 -0.065609
C37   C     C_R   0.674019 0.710966 0.360452 -0.211869
C38   C     C_R   0.325980 0.210967 0.639547 -0.211866
C39   C     C_R   0.721282 0.726887 0.314209 0.091069
C40   C     C_R   0.278717 0.226888 0.685790 0.091070
C41   C     C_R   0.725795 0.889598 0.272973 0.055274
C42   C     C_R   0.274206 0.389598 0.727027 0.055272
C43   C     C_R   0.683221 0.035712 0.278551 0.089190
C44   C     C_R   0.316781 0.535709 0.721451 0.089190
C45   C     C_R   0.764367 0.583281 0.308626 -0.184826
C46   C     C_R   0.235631 0.083285 0.691372 -0.184822
C47   C     C_R   0.810946 0.599514 0.262056 -0.195867
C48   C     C_R   0.189052 0.099518 0.737942 -0.195862
C49   C     C_R   0.815468 0.760008 0.220381 0.086561
C50   C     C_R   0.184532 0.260010 0.779618 0.086561
C51   C     C_R   0.772974 0.906285 0.226073 0.054861
C52   C     C_R   0.227026 0.406284 0.773927 0.054859
C53   C     C_R   0.777510 0.069047 0.184869 0.091782
C54   C     C_R   0.222491 0.569045 0.815133 0.091783
C55   C     C_R   0.734505 0.212818 0.190580 -0.185689
C56   C     C_R   0.265498 0.712812 0.809424 -0.185685
C57   C     C_R   0.687852 0.196431 0.237043 -0.197300
C58   C     C_R   0.312151 0.696424 0.762962 -0.197296
C59   C     C_R   0.861707 0.776464 0.173119 -0.211886
C60   C     C_R   0.138293 0.276466 0.826880 -0.211886
C61   C     C_R   0.866814 0.938296 0.131681 -0.080090
C62   C     C_R   0.133186 0.438296 0.868319 -0.080091
C63   C     C_R   0.824674 0.084761 0.138465 -0.227333
C64   C     C_R   0.175327 0.584758 0.861537 -0.227332
H15   H     H_    0.604225 0.131993 0.329340 0.125368
H16   H     H_    0.395777 0.631989 0.670662 0.125369
H17   H     H_    0.670926 0.586178 0.392207 0.124022
H18   H     H_    0.329073 0.086181 0.607791 0.124023
H19   H     H_    0.761878 0.457783 0.340058 0.135559
H20   H     H_    0.238120 0.957788 0.659938 0.135555
H21   H     H_    0.843308 0.485891 0.258400 0.131361
H22   H     H_    0.156689 0.985897 0.741595 0.131359
H23   H     H_    0.894134 0.663068 0.169125 0.126763
H24   H     H_    0.105865 0.163073 0.830873 0.126763
H25   H     H_    0.827901 0.209719 0.106847 0.129207
H26   H     H_    0.172100 0.709714 0.893155 0.129207
H27   H     H_    0.737036 0.338422 0.159225 0.135863
H28   H     H_    0.262969 0.838413 0.840782 0.135859
H29   H     H_    0.655482 0.310036 0.240695 0.130730
H30   H     H_    0.344523 0.810026 0.759313 0.130728
O11   O     O_R   0.060820 0.290050 0.937800 -0.540187
O12   O     O_R   0.939180 0.790050 0.062200 -0.540188
O13   O     O_R   0.057690 0.616620 0.086540 -0.538252
O14   O     O_R   0.942310 0.116620 0.913460 -0.538252
C65   C     C_R   0.071679 0.448519 0.111609 0.682468
C66   C     C_R   0.928321 0.948519 0.888391 0.682468
O15   O     O_R   0.068010 0.619890 0.939770 -0.541376
O16   O     O_R   0.931990 0.119890 0.060230 -0.541376
O17   O     O_R   0.949640 0.787940 0.914460 -0.534394
O18   O     O_R   0.050360 0.287940 0.085540 -0.534394
C67   C     C_R   0.084098 0.451036 0.918663 0.697249
C68   C     C_R   0.915902 0.951036 0.081337 0.697250
O19   O     O_3   0.961210 0.453080 0.991940 -0.374875
O20   O     O_3   0.038790 0.953080 0.008060 -0.374875
V3    V     V_3+5 0.007200 0.728820 0.001500 1.410824
V4    V     V_3+5 0.992800 0.228820 0.998500 1.410824
N1    N     N_2   0.685544 0.977682 0.550587 -0.537188
H31   H     H_    0.653574 0.884087 0.529470 0.239392
C69   C     C_3   0.677017 0.172448 0.533256 -0.434365
H32   H     H_    0.658189 0.188427 0.476760 0.194664
H33   H     H_    0.722096 0.246871 0.539807 0.168561
H34   H     H_    0.645100 0.237074 0.568970 0.207550
N2    N     N_2   0.314456 0.477673 0.449414 -0.537188
H35   H     H_    0.346426 0.384077 0.470530 0.239391
C70   C     C_3   0.322981 0.672436 0.466749 -0.434376
H36   H     H_    0.341805 0.688406 0.523247 0.194662
H37   H     H_    0.277901 0.746859 0.460197 0.168563
H38   H     H_    0.354900 0.737070 0.431041 0.207556

loop_
_geom_bond_atom_site_label_1
_geom_bond_atom_site_label_2
_ccdc_geom_bond_type
C40   C42   A    
C37   C39   A    
O17   V3    S    
C25   N1    S    
C9    C11   A    
C23   C25   A    
O1    C3    A    
O12   V3    S    
C70   H38   S    
O2    C4    A    
C2    O7    A    
C4    C31   S    
C18   C32   A    
N1    H31   S    
C48   H22   S    
C47   H21   S    
C5    H5    S    
O18   V4    S    
C43   C57   A    
C2    C35   S    
C50   C52   A    
O13   C65   A    
C46   H20   S    
C52   C54   A    
N1    C69   S    
C45   H19   S    
C27   H7    S    
C7    C27   A    
C28   H8    S    
C34   C36   A    
C5    C21   A    
C35   C37   A    
C6    C22   A    
C64   H26   S    
C36   C38   A    
C7    C66   S    
C10   C32   A    
C49   C59   A    
C40   C46   A    
C39   C41   A    
C41   C51   A    
C17   C31   A    
C69   H34   S    
C58   H30   S    
C13   C15   A    
C65   O18   A    
C6    H6    S    
C12   C14   A    
C44   C58   A    
C7    C29   A    
C16   C18   A    
C8    C30   A    
O5    V1    S    
O6    V2    S    
C47   C49   A    
C24   C26   A    
C55   C57   A    
C51   C53   A    
C42   C52   A    
C33   C35   A    
C53   C63   A    
C59   C61   A    
O12   C68   A    
C61   C68   S    
C46   C48   A    
C45   C47   A    
C10   H10   S    
O3    C1    A    
C26   N2    S    
C39   C45   A    
C15   C19   A    
C57   H29   S    
C41   C43   A    
C38   C40   A    
O4    V2    S    
O5    C3    A    
C59   H23   S    
C34   C44   A    
O6    C4    A    
H1    C29   S    
O1    V2    S    
C33   H15   S    
O2    V1    S    
C49   C51   A    
O16   C68   A    
C48   C50   A    
C33   C43   A    
O15   C67   A    
C54   C56   A    
C11   H13   S    
C56   C58   A    
C61   C63   A    
C69   H32   S    
H3    C23   S    
C18   C26   A    
O4    C2    A    
C19   C27   A    
C70   H36   S    
C50   C60   A    
C17   C25   A    
O20   V3    S    
C53   C55   A    
N2    H35   S    
C55   H27   S    
O19   V4    S    
H2    C30   S    
C63   H25   S    
C16   C20   A    
C5    C29   A    
C62   C64   A    
C70   H37   S    
C6    C30   A    
C9    H9    S    
C37   H17   S    
C10   C12   A    
O7    V1    S    
C38   H18   S    
C1    O8    A    
C19   C21   A    
C3    C32   S    
O8    V2    S    
O14   V4    S    
C20   C22   A    
C60   H24   S    
O13   V3    S    
H4    C24   S    
C12   H14   S    
C22   C24   A    
C15   C17   A    
C14   H12   S    
C1    C36   S    
C60   C62   A    
C54   C64   A    
O14   C66   A    
C20   C28   A    
C8    C28   A    
O16   V4    S    
O15   V3    S    
C21   C23   A    
C11   C13   A    
O9    V2    S    
C69   H33   S    
C42   C44   A    
C56   H28   S    
O10   V1    S    
O3    V1    S    
O11   V4    S    
C13   H11   S    
C62   C67   S    
C34   H16   S    
C8    C65   S    
O11   C67   A    
C66   O17   A    
C9    C31   A    
C14   C16   A    
N2    C70   S    
