data_mof_unit_48656.cif
_audit_creation_date              2012-12-10T17:50:44-0500
_audit_creation_method            fapswitch 2.2
_symmetry_space_group_name_H-M    P1
_symmetry_Int_Tables_number       1
_space_group_crystal_system       triclinic
_cell_length_a                    14.721539
_cell_length_b                    14.664397
_cell_length_c                    15.853472
_cell_angle_alpha                 76.917322
_cell_angle_beta                  102.604118
_cell_angle_gamma                 114.725885
_cell_volume                      2998.36104542

loop_
_atom_site_label
_atom_site_type_symbol
_atom_type_description
_atom_site_fract_x
_atom_site_fract_y
_atom_site_fract_z
_atom_type_partial_charge
C1    C     C_R   0.880462 0.312215 0.514163 0.795920
C2    C     C_R   0.119582 0.687813 0.485460 0.792521
C3    C     C_R   0.781889 0.030426 0.512076 -0.205629
C4    C     C_R   0.217322 0.973414 0.460804 -0.198106
C5    C     C_R   0.849359 0.129959 0.518870 -0.175551
C6    C     C_R   0.150579 0.872118 0.465973 -0.207042
C7    C     C_R   0.708979 0.178548 0.509795 -0.249041
C8    C     C_R   0.290927 0.821585 0.481263 -0.250888
C9    C     C_R   0.639041 0.079966 0.498659 0.090727
C10   C     C_R   0.359959 0.923183 0.475570 0.088807
C11   C     C_R   0.677325 0.005108 0.501230 0.162645
C12   C     C_R   0.321473 0.999361 0.466616 0.165084
C13   C     C_R   0.532648 0.053845 0.485392 0.065238
C14   C     C_R   0.466018 0.950719 0.481417 0.064531
C15   C     C_R   0.507613 0.878920 0.482580 -0.220191
C16   C     C_R   0.490633 0.127614 0.474238 -0.219954
C17   C     C_R   0.611115 0.905959 0.492125 -0.228150
C18   C     C_R   0.387162 0.100622 0.464526 -0.229241
C19   C     C_R   0.710904 0.662278 0.350116 -0.411508
C20   C     C_R   0.286264 0.333278 0.646315 -0.407949
C21   C     C_R   0.795632 0.636132 0.374671 0.683781
C22   C     C_R   0.204470 0.363652 0.624976 0.669003
C23   C     C_R   0.999619 0.500211 0.659908 0.815319
C24   C     C_R   0.000467 0.499915 0.340088 0.819218
C25   C     C_R   0.716150 0.511350 0.489980 -0.092162
C26   C     C_R   0.284725 0.490043 0.511175 -0.090105
C27   C     C_R   0.628913 0.535318 0.468060 -0.017390
C28   C     C_R   0.371384 0.465055 0.532363 -0.018676
C29   C     C_R   0.629131 0.613880 0.397370 0.101598
C30   C     C_R   0.369723 0.384184 0.601196 0.100312
C31   C     C_R   0.541959 0.484440 0.512901 0.093499
C32   C     C_R   0.458311 0.515871 0.487503 0.096081
C33   C     C_R   0.464281 0.596642 0.417954 -0.241492
C34   C     C_R   0.535207 0.402427 0.581370 -0.240182
C35   C     C_R   0.547511 0.643697 0.373507 -0.182249
C36   C     C_R   0.450868 0.353648 0.624414 -0.176478
C37   C     C_3   0.970306 0.404432 0.040915 0.351940
C38   C     C_3   0.030818 0.596723 0.959122 0.351713
C39   C     C_3   0.904671 0.445715 0.965534 -0.050984
C40   C     C_3   0.096434 0.555436 0.034533 -0.050267
C41   C     C_1   0.998828 0.500880 0.749227 -0.190567
C42   C     C_1   0.001588 0.499663 0.250760 -0.157248
C43   C     C_3   0.063338 0.459234 0.992240 0.347192
C44   C     C_3   0.937776 0.541920 0.007797 0.351095
C45   C     C_3   0.998244 0.500834 0.916319 -0.077635
C46   C     C_3   0.002854 0.500293 0.083699 -0.081241
C47   C     C_1   0.998382 0.501226 0.824570 0.095518
C48   C     C_1   0.002413 0.499644 0.175432 0.104606
C49   C     C_R   0.812886 0.204736 0.516491 -0.051131
C50   C     C_R   0.187248 0.795672 0.476702 -0.046952
Cu1   Cu    Cu3+1 0.081740 0.475690 0.522610 0.976571
Cu2   Cu    Cu3+1 0.918260 0.524310 0.477390 0.982810
H1    H     H_    0.278374 0.548868 0.458583 0.144114
H2    H     H_    0.723418 0.454061 0.543811 0.144646
H3    H     H_    0.707663 0.719112 0.293863 0.151916
H4    H     H_    0.284404 0.269773 0.697523 0.152918
H5    H     H_    0.405351 0.625316 0.395541 0.127934
H6    H     H_    0.593754 0.373142 0.603095 0.130064
H7    H     H_    0.639517 0.848490 0.492502 0.150283
H8    H     H_    0.358450 0.159618 0.456581 0.150861
H9    H     H_    0.316180 0.760422 0.491943 0.149195
H10   H     H_    0.684806 0.237048 0.513694 0.145789
H11   H     H_    0.070799 0.853605 0.463408 0.144160
H12   H     H_    0.929596 0.148694 0.524282 0.168597
H13   H     H_    0.811391 0.973499 0.513693 0.133271
H14   H     H_    0.187658 0.031500 0.453650 0.134634
H15   H     H_    0.462432 0.801106 0.474062 0.141963
H16   H     H_    0.535239 0.207829 0.470759 0.147851
H17   H     H_    0.548086 0.704671 0.319834 0.142493
H18   H     H_    0.449194 0.291021 0.676669 0.142664
N1    N     N_R   0.795440 0.560790 0.443380 -0.214883
N2    N     N_R   0.204560 0.439210 0.556620 -0.212870
O1    O     O_R   0.977900 0.338120 0.529810 -0.538819
O2    O     O_R   0.022100 0.661880 0.470190 -0.562824
O3    O     O_R   0.839850 0.379180 0.491620 -0.597948
O4    O     O_R   0.160150 0.620820 0.508380 -0.597401
O5    O     O_R   0.069010 0.479460 0.640020 -0.552728
O6    O     O_R   0.930990 0.520540 0.359980 -0.514624
O7    O     O_R   0.930960 0.520530 0.601820 -0.586430
O8    O     O_R   0.069040 0.479470 0.398180 -0.593116
C51   C     C_3   0.799481 0.386039 0.921734 -0.860042
H19   H     H_    0.745686 0.353865 0.970269 0.252283
H20   H     H_    0.774486 0.436536 0.867257 0.223596
H21   H     H_    0.800927 0.323906 0.893824 0.220275
C52   C     C_3   0.201532 0.615250 0.078424 -0.863422
H22   H     H_    0.255439 0.647410 0.029984 0.251359
H23   H     H_    0.199927 0.677411 0.106180 0.221319
H24   H     H_    0.226510 0.564873 0.133041 0.223259
O9    O     O_3   0.118584 0.311157 0.665661 -0.565478
C53   C     C_3   0.141105 0.304352 0.757986 0.075511
H25   H     H_    0.097651 0.338745 0.780049 0.195576
H26   H     H_    0.222009 0.345768 0.783319 0.119290
C54   C     C_3   0.106674 0.193156 0.799672 -0.838013
H27   H     H_    0.148325 0.155607 0.779380 0.239715
H28   H     H_    0.121134 0.187501 0.871990 0.214783
H29   H     H_    0.024500 0.153130 0.779270 0.256611
O10   O     O_3   0.875363 0.676647 0.325843 -0.548071
C55   C     C_3   0.907325 0.782879 0.298414 0.039569
H30   H     H_    0.990677 0.817029 0.315132 0.172425
H31   H     H_    0.877373 0.821753 0.331556 0.107554
C56   C     C_3   0.882930 0.805433 0.199279 -0.814218
H32   H     H_    0.800396 0.770904 0.178071 0.240216
H33   H     H_    0.909947 0.888847 0.177934 0.205317
H34   H     H_    0.921163 0.774067 0.167197 0.266981
O11   O     O_3   0.943241 0.307763 0.093168 -0.571878
C57   C     C_3   0.911151 0.230860 0.040844 0.101025
H35   H     H_    0.954440 0.253408 0.984835 0.165496
H36   H     H_    0.829641 0.209803 0.015586 0.157799
C58   C     C_3   0.924531 0.137164 0.096953 -0.823565
H37   H     H_    0.878433 0.109454 0.151293 0.255947
H38   H     H_    0.899864 0.075972 0.056555 0.198304
H39   H     H_    0.005146 0.155770 0.124812 0.247588
O12   O     O_3   0.057999 0.693446 0.906955 -0.571559
C59   C     C_3   0.090300 0.770293 0.959384 0.092700
H40   H     H_    0.171989 0.791713 0.984017 0.158752
H41   H     H_    0.047634 0.747519 0.015847 0.165220
C60   C     C_3   0.076079 0.863760 0.903644 -0.810959
H42   H     H_    0.995209 0.844838 0.876600 0.248262
H43   H     H_    0.101164 0.924983 0.944087 0.198996
H44   H     H_    0.121380 0.891579 0.848742 0.256269
O13   O     O_3   0.877188 0.586023 0.026858 -0.568812
C61   C     C_3   0.820484 0.615045 0.949793 0.097946
H45   H     H_    0.749485 0.549189 0.934892 0.159176
H46   H     H_    0.862267 0.644542 0.892255 0.168130
C62   C     C_3   0.792501 0.698362 0.964765 -0.812603
H47   H     H_    0.861906 0.765155 0.981179 0.245030
H48   H     H_    0.747608 0.722093 0.904671 0.202477
H49   H     H_    0.746931 0.670145 0.019515 0.258653
O14   O     O_3   0.123878 0.414839 0.973552 -0.584498
C63   C     C_3   0.181779 0.387731 0.050665 0.098756
H50   H     H_    0.141045 0.359785 0.108811 0.170001
H51   H     H_    0.252868 0.454160 0.063902 0.161010
C64   C     C_3   0.209552 0.303630 0.037220 -0.831756
H52   H     H_    0.253028 0.329868 0.981190 0.251135
H53   H     H_    0.256428 0.282336 0.097012 0.207897
H54   H     H_    0.140055 0.235772 0.023644 0.243237

loop_
_geom_bond_atom_site_label_1
_geom_bond_atom_site_label_2
_ccdc_geom_bond_type
C40   C52   S    
C4    H14   S    
C54   H27   S    
C27   C29   A    
C26   N2    A    
C20   H4    S    
Cu2   O3    S    
C59   H40   S    
C20   C30   A    
C52   H22   S    
C40   C46   S    
C56   H32   S    
C21   N1    A    
C19   C21   A    
O12   C59   S    
Cu2   O2    S    
C58   H38   S    
C57   H35   S    
C19   H3    S    
C44   O13   S    
C24   C42   S    
C15   C17   A    
C9    C13   A    
Cu1   O8    S    
C38   C45   S    
C2    C50   S    
C24   O8    A    
C40   C43   S    
C44   C46   S    
C62   H49   S    
C25   N1    A    
C4    C12   A    
Cu2   O7    S    
C2    O2    A    
C8    H9    S    
C39   C45   S    
C45   C47   S    
C54   H28   S    
C13   C14   A    
C5    C49   A    
C3    H13   S    
Cu2   O6    S    
C22   N2    A    
C51   H20   S    
C36   H18   S    
C38   C44   S    
O10   C55   S    
C52   H23   S    
C37   C39   S    
C46   C48   S    
C27   C31   A    
Cu1   Cu2   S    
C1    O3    A    
C43   O14   S    
C25   H2    S    
C39   C51   S    
C4    C6    A    
C10   C14   A    
C58   H39   S    
O9    C53   S    
C38   O12   S    
C51   H19   S    
C6    C50   A    
C5    H12   S    
C6    H11   S    
C37   C43   S    
C63   H51   S    
Cu1   O5    S    
C7    H10   S    
C37   O11   S    
C64   H54   S    
C21   O10   S    
C53   H26   S    
C31   C32   A    
C28   C32   A    
C15   H15   S    
C41   C47   T    
C31   C34   A    
C16   C18   A    
C42   C48   T    
C23   O5    A    
C62   H48   S    
C9    C11   A    
C7    C49   A    
O13   C61   S    
C10   C12   A    
C17   H7    S    
C16   H16   S    
C18   H8    S    
C20   C22   A    
C54   H29   S    
C55   H31   S    
C64   H52   S    
C60   H44   S    
C63   C64   S    
C25   C27   A    
Cu1   N2    S    
C61   H46   S    
C19   C29   A    
C26   H1    S    
C8    C50   A    
C51   H21   S    
C2    O4    A    
C53   C54   S    
C64   H53   S    
O14   C63   S    
C52   H24   S    
C24   O6    A    
C7    C9    A    
C11   C17   A    
C33   H5    S    
C8    C10   A    
Cu1   O1    S    
C3    C5    A    
C59   H41   S    
C39   C44   S    
C56   H34   S    
C55   C56   S    
O11   C57   S    
C29   C35   A    
C26   C28   A    
C23   C41   S    
C30   C36   A    
C1    O1    A    
C32   C33   A    
C61   C62   S    
C60   H43   S    
C63   H50   S    
C37   C46   S    
C43   C45   S    
Cu2   N1    S    
C60   H42   S    
C38   C40   S    
C53   H25   S    
C62   H47   S    
C57   H36   S    
C28   C30   A    
C33   C35   A    
C22   O9    S    
C34   C36   A    
C59   C60   S    
C3    C11   A    
C35   H17   S    
C56   H33   S    
C55   H30   S    
C13   C16   A    
C12   C18   A    
Cu1   O4    S    
C34   H6    S    
C14   C15   A    
C23   O7    A    
C61   H45   S    
C58   H37   S    
C1    C49   S    
C57   C58   S    
