data_mof_unit_21981.cif
_audit_creation_date              2012-12-10T17:05:15-0500
_audit_creation_method            fapswitch 2.2
_symmetry_space_group_name_H-M    P1
_symmetry_Int_Tables_number       1
_space_group_crystal_system       triclinic
_cell_length_a                    10.771887
_cell_length_b                    11.032063
_cell_length_c                    9.951193
_cell_angle_alpha                 111.327128
_cell_angle_beta                  98.272505
_cell_angle_gamma                 92.901649
_cell_volume                      1083.29690952

loop_
_atom_site_label
_atom_site_type_symbol
_atom_type_description
_atom_site_fract_x
_atom_site_fract_y
_atom_site_fract_z
_atom_type_partial_charge
C1    C     C_R   0.490584 0.254102 0.440319 0.845881
C2    C     C_3   0.877576 0.498588 0.498440 0.101527
C3    C     C_3   0.926127 0.610756 0.449869 0.010868
C4    C     C_3   0.911847 0.361186 0.396777 -0.042553
C5    C     C_2   0.485140 0.113964 0.406916 -0.380332
C6    C     C_2   0.502281 0.069722 0.515832 -0.149697
C7    C     C_2   0.514932 0.886008 0.593027 -0.360111
C8    C     C_2   0.496425 0.930177 0.484154 -0.165858
C9    C     C_2   0.506479 0.518414 0.081758 0.299864
C10   C     C_2   0.476162 0.508427 0.923413 -0.097918
C11   C     C_R   0.260730 0.502905 0.501307 0.780043
C12   C     C_R   0.509335 0.745890 0.559674 0.848954
C13   C     C_R   0.739476 0.497008 0.498761 0.769533
C14   C     C_3   0.093490 0.519254 0.654299 -0.458538
C15   C     C_3   0.951119 0.520585 0.654787 -0.423425
C16   C     C_3   0.072618 0.622278 0.464941 -0.003604
C17   C     C_3   0.053926 0.371638 0.387447 -0.390734
C18   C     C_3   0.123021 0.504350 0.500852 0.094897
Cu1   Cu    Cu3+1 0.522160 0.521810 0.644910 0.915585
Cu2   Cu    Cu3+1 0.477840 0.478190 0.355090 0.918677
H1    H     H_    0.144244 0.611652 0.739708 0.177924
H2    H     H_    0.886743 0.577719 0.331602 0.157189
H3    H     H_    0.476498 0.863128 0.370234 0.184245
H4    H     H_    0.520795 0.136746 0.629848 0.182580
H5    H     H_    0.534400 0.953376 0.706816 0.148861
H6    H     H_    0.466894 0.046680 0.293080 0.146064
H7    H     H_    0.384733 0.465004 0.857253 0.138362
H8    H     H_    0.644997 0.593629 0.917953 0.209801
H9    H     H_    0.126492 0.436773 0.684097 0.179147
H10   H     H_    0.918151 0.441766 0.690671 0.166517
H11   H     H_    0.933702 0.611964 0.740134 0.200117
H12   H     H_    0.114722 0.712998 0.559005 0.164893
H13   H     H_    0.068829 0.359949 0.275882 0.187984
H14   H     H_    0.096393 0.289273 0.409539 0.125590
H15   H     H_    0.900592 0.294992 0.457458 0.119183
N1    N     N_2   0.444530 0.445420 0.137360 -0.123505
N2    N     N_2   0.555520 0.554510 0.862630 -0.293886
O1    O     O_R   0.511820 0.332340 0.577400 -0.570358
O2    O     O_R   0.474400 0.295500 0.332650 -0.578017
O3    O     O_R   0.336400 0.518400 0.622370 -0.591218
O4    O     O_R   0.298980 0.481560 0.377620 -0.574382
O5    O     O_R   0.525600 0.704500 0.667350 -0.567715
O6    O     O_R   0.488180 0.667660 0.422600 -0.591778
O7    O     O_R   0.701020 0.518440 0.622380 -0.587858
O8    O     O_R   0.663600 0.481600 0.377630 -0.595481
C19   C     C_3   0.827505 0.280325 0.245946 -0.380405
C20   C     C_3   0.819589 0.338493 0.127444 -0.815755
H16   H     H_    0.754732 0.414457 0.147843 0.269729
H17   H     H_    0.912721 0.379324 0.118889 0.231661
H18   H     H_    0.779522 0.260615 0.019692 0.229571
H19   H     H_    0.865201 0.184246 0.201494 0.192010
H20   H     H_    0.730472 0.256769 0.261675 0.214526
C21   C     C_3   0.113314 0.640474 0.329940 -0.913479
H21   H     H_    0.215073 0.676931 0.353110 0.261498
H22   H     H_    0.094021 0.548349 0.231858 0.241942
H23   H     H_    0.061594 0.715739 0.303494 0.221467
C22   C     C_3   0.612928 0.624132 0.173340 -0.827042
H24   H     H_    0.702911 0.602528 0.132978 0.167403
H25   H     H_    0.589154 0.719683 0.169367 0.199212
H26   H     H_    0.635862 0.637490 0.286472 0.275397
C23   C     C_3   0.333015 0.357763 0.041548 -0.190444
C24   C     C_3   0.297658 0.240453 0.080175 -0.746537
H27   H     H_    0.377611 0.180351 0.076842 0.245342
H28   H     H_    0.264778 0.269302 0.186324 0.264022
H29   H     H_    0.217577 0.177332 0.996328 0.183739
H30   H     H_    0.250842 0.414798 0.041563 0.153327
H31   H     H_    0.350445 0.310279 0.927795 0.135286
C25   C     C_3   0.876779 0.747552 0.516002 -0.430607
C26   C     C_3   0.905776 0.819834 0.682448 -0.839814
H32   H     H_    0.837366 0.781578 0.734781 0.250119
H33   H     H_    0.003789 0.814343 0.730090 0.239940
H34   H     H_    0.893280 0.924868 0.709100 0.237513
H35   H     H_    0.916050 0.812618 0.465761 0.206461
H36   H     H_    0.773319 0.738575 0.483395 0.196599

loop_
_geom_bond_atom_site_label_1
_geom_bond_atom_site_label_2
_ccdc_geom_bond_type
C10   H7    S    
C9    N1    D    
C2    C4    S    
C11   C18   S    
C15   H11   S    
C24   H27   S    
Cu1   O1    S    
C5    H6    S    
C16   H12   S    
C9    C10   S    
C14   C18   S    
C9    C22   S    
Cu2   O8    S    
C7    H5    S    
Cu1   O5    S    
C20   H18   S    
C6    H4    S    
C8    H3    S    
C17   C18   S    
C4    H15   S    
C7    C8    D    
C20   H17   S    
C4    C19   S    
C21   H21   S    
C13   O8    A    
C2    C15   S    
C2    C13   S    
C22   H24   S    
C5    C6    D    
C12   O5    A    
C17   H13   S    
H8    N2    S    
C10   N2    D    
C6    C8    S    
C4    C17   S    
C23   H30   S    
C14   H1    S    
C3    C25   S    
C11   O4    A    
C12   O6    A    
C2    C3    S    
C26   H32   S    
C21   H22   S    
N1    C23   S    
C23   C24   S    
C1    C5    S    
C7    C12   S    
C22   H25   S    
C19   C20   S    
C17   H14   S    
C1    O2    A    
C14   H9    S    
C25   H36   S    
C11   O3    A    
Cu2   N1    S    
C20   H16   S    
C19   H20   S    
Cu2   O6    S    
Cu2   O4    S    
Cu1   O7    S    
C15   H10   S    
C16   C18   S    
Cu1   O3    S    
C21   H23   S    
C26   H33   S    
Cu2   O2    S    
C23   H31   S    
C16   C21   S    
C3    H2    S    
C24   H28   S    
Cu1   N2    S    
C24   H29   S    
C25   H35   S    
C14   C15   S    
C19   H19   S    
C13   O7    A    
C1    O1    A    
C3    C16   S    
Cu1   Cu2   S    
C26   H34   S    
C25   C26   S    
C22   H26   S    
