data_mof_unit_15693.cif
_audit_creation_date              2013-03-05T15:48:56-0500
_audit_creation_method            fapswitch 2.2
_symmetry_space_group_name_H-M    P1
_symmetry_Int_Tables_number       1
_space_group_crystal_system       triclinic
_cell_length_a                    6.95399
_cell_length_b                    13.587156
_cell_length_c                    20.053409
_cell_angle_alpha                 104.005372
_cell_angle_beta                  90.058026
_cell_angle_gamma                 90.450524
_cell_volume                      1838.35513329

loop_
_atom_site_label
_atom_site_type_symbol
_atom_site_description
_atom_site_fract_x
_atom_site_fract_y
_atom_site_fract_z
_atom_type_partial_charge
O1    O     O_R   0.506780 0.600060 0.449950 -0.600446
O2    O     O_R   0.179840 0.597110 0.589410 -0.587994
O3    O     O_R   0.004570 0.399940 0.550050 -0.566198
C1    C     C_R   0.348441 0.618966 0.616710 1.022314
O4    O     O_R   0.177380 0.612160 0.452890 -0.601570
O5    O     O_R   0.002100 0.415100 0.412560 -0.592367
C2    C     C_R   0.346947 0.639013 0.436525 0.914127
O6    O     O_R   0.509250 0.584900 0.587440 -0.595791
O7    O     O_3   0.337570 0.435330 0.486930 -0.252976
V1    V     V_3+5 0.064650 0.512000 0.502430 1.209146
O8    O     O_R   0.672090 0.402890 0.410590 -0.600808
C3    C     C_R   0.840606 0.381119 0.383072 0.926968
O9    O     O_R   0.674540 0.387840 0.547110 -0.571514
C4    C     C_R   0.843650 0.360851 0.563788 1.046577
V2    V     V_3+5 0.564040 0.488000 0.497570 1.209035
O10   O     O_3   0.840990 0.564670 0.513070 -0.281937
C5    C     C_R   0.028244 0.130161 0.613913 -0.194887
H1    H     H_    0.112436 0.016029 0.699413 0.136279
H2    H     H_    0.114100 0.064247 0.591437 0.144628
C6    C     C_R   0.860641 0.280127 0.600981 -0.247093
C7    C     C_R   0.787934 0.310406 0.929815 -0.189763
C8    C     C_R   0.760300 0.384324 0.893721 0.347121
C9    C     C_R   0.785523 0.361367 0.822764 -0.173589
C10   C     C_R   0.841738 0.263729 0.785990 0.082946
C11   C     C_R   0.893513 0.192720 0.824634 0.062650
C12   C     C_R   0.865450 0.237581 0.712997 0.055154
C13   C     C_R   0.975343 0.150399 0.683106 0.107174
C14   C     C_R   0.032046 0.083656 0.722420 -0.144352
C15   C     C_R   0.985440 0.102482 0.791566 -0.145614
C16   C     C_R   0.787088 0.294188 0.668246 0.101714
C17   C     C_R   0.980024 0.196863 0.573948 0.190757
C18   C     C_R   0.856406 0.215092 0.896111 -0.213074
H3    H     H_    0.760266 0.328003 0.984589 0.153062
H4    H     H_    0.769818 0.422555 0.797983 0.189466
H5    H     H_    0.031483 0.048202 0.819699 0.158678
C19   C     C_3   0.677312 0.220508 0.228825 -0.107286
C20   C     C_3   0.775126 0.200679 0.293753 -0.115111
H6    H     H_    0.708549 0.161163 0.330421 0.123520
H7    H     H_    0.529185 0.196252 0.211100 0.118749
C21   C     C_3   0.849681 0.310896 0.312446 -0.086269
C22   C     C_3   0.752004 0.331550 0.248319 -0.131236
C23   C     C_3   0.938010 0.298585 0.206610 -0.137412
C24   C     C_3   0.035751 0.278690 0.271520 -0.090270
C25   C     C_3   0.961076 0.167650 0.251993 -0.117714
C26   C     C_3   0.863387 0.188372 0.187853 -0.093712
H8    H     H_    0.665561 0.399492 0.247204 0.117662
H9    H     H_    0.005286 0.338610 0.170354 0.144135
H10   H     H_    0.183896 0.302776 0.289309 0.122310
H11   H     H_    0.047536 0.099707 0.253122 0.123820
C27   C     C_3   0.536976 0.721818 0.730852 0.043902
C28   C     C_3   0.463093 0.832930 0.749371 -0.086255
H12   H     H_    0.545371 0.903181 0.749455 0.177963
H13   H     H_    0.684345 0.696442 0.714248 0.176030
C29   C     C_3   0.357670 0.811720 0.812360 -0.287460
C30   C     C_3   0.430954 0.701246 0.794436 -0.131658
C31   C     C_3   0.248824 0.667907 0.749726 0.175900
C32   C     C_3   0.180260 0.777913 0.767752 0.395754
C33   C     C_3   0.281222 0.799073 0.704496 -0.324089
C34   C     C_3   0.354737 0.688893 0.687093 -0.277305
H14   H     H_    0.493326 0.660924 0.831236 0.199155
H15   H     H_    0.218372 0.838125 0.667078 0.157577
C35   C     C_R   0.446949 0.885615 0.390153 -0.133467
H16   H     H_    0.437667 0.837152 0.484264 0.112329
H17   H     H_    0.500973 0.006425 0.306124 0.136931
H18   H     H_    0.489420 0.962265 0.416111 0.143100
C36   C     C_R   0.360982 0.715910 0.396930 -0.088277
C37   C     C_R   0.282209 0.685387 0.067415 0.180320
C38   C     C_R   0.262941 0.609331 0.103369 0.266514
C39   C     C_R   0.297423 0.631445 0.173961 -0.298593
C40   C     C_R   0.350725 0.730102 0.211292 0.075410
C41   C     C_R   0.382466 0.805594 0.174019 0.078589
C42   C     C_R   0.370963 0.756630 0.284490 0.116286
C43   C     C_R   0.425736 0.857440 0.318387 0.172409
C44   C     C_R   0.459455 0.929505 0.280583 -0.227175
C45   C     C_R   0.438377 0.904279 0.209690 -0.198069
C46   C     C_R   0.337323 0.686986 0.325581 -0.245025
C47   C     C_R   0.416376 0.814947 0.429100 -0.168654
C48   C     C_R   0.350485 0.782136 0.102021 -0.297496
H19   H     H_    0.296104 0.609182 0.304021 0.105582
H20   H     H_    0.278362 0.569440 0.198085 0.149696
H21   H     H_    0.464295 0.963735 0.183243 0.121474
O11   O     O_R   0.203580 0.914920 0.912610 -0.571195
O12   O     O_R   0.535710 0.887810 0.047120 -0.590083
O13   O     O_R   0.710730 0.084950 0.087430 -0.609469
C49   C     C_R   0.366005 0.861408 0.063898 0.991294
O14   O     O_R   0.533010 0.902850 0.910600 -0.555835
O15   O     O_R   0.708010 0.100090 0.949930 -0.596038
C50   C     C_R   0.364404 0.881508 0.883002 0.998630
O16   O     O_R   0.206300 0.899780 0.050100 -0.591198
O17   O     O_3   0.375170 0.064580 0.013100 -0.292241
V3    V     V_3+5 0.648200 0.988020 0.997570 1.241145
O18   O     O_R   0.038030 0.112330 0.952840 -0.598377
C51   C     C_R   0.869205 0.137621 0.935372 0.970423
O19   O     O_R   0.040730 0.097300 0.089360 -0.601153
C52   C     C_R   0.872284 0.118612 0.117041 0.907603
V4    V     V_3+5 0.148780 0.012220 0.002360 1.218148
O20   O     O_3   0.871930 0.935430 0.986900 -0.227012
I1    I     I_    0.083010 0.163340 0.471081 -0.452554
I2    I     I_    0.067882 0.540919 0.749215 -0.329323
N1    N     N_R   0.985561 0.809497 0.788015 0.223108
O21   O     O_R   0.904058 0.782421 0.839216 -0.361289
O22   O     O_R   0.895600 0.868583 0.756539 -0.491560
I3    I     I_    0.197077 0.657177 0.961835 -0.238736
I4    I     I_    0.178822 0.458184 0.055016 -0.397026
I5    I     I_    0.519233 0.372757 0.689774 -0.358739
I6    I     I_    0.684421 0.531812 0.946881 -0.278928

loop_
_geom_bond_atom_site_label_1
_geom_bond_atom_site_label_2
_geom_bond_distance
_ccdc_geom_bond_type
C25   H11   1.110415 S    
C29   C50   1.502371 S    
C30   C31   1.550893 S    
O15   V3    2.024670 S    
C43   C44   1.394440 A    
C35   C47   1.391844 A    
C46   H19   1.077208 S    
C42   C46   1.415436 A    
C32   C33   1.536174 S    
C37   I3    2.140375 S    
C6    C16   1.412731 A    
C12   C13   1.420540 A    
C27   C34   1.541105 S    
C19   C20   1.549649 S    
C10   C12   1.430295 A    
C20   C21   1.538705 S    
O14   V3    2.007037 S    
O5    C3    1.297067 A    
O14   C50   1.296437 A    
C7    H3    1.083859 S    
V2    O10   2.168279 S    
O18   V4    2.024395 S    
C31   C32   1.530379 S    
C22   C23   1.550258 S    
C17   I1    2.128130 S    
O18   C51   1.297247 A    
O8    V2    1.996059 S    
C21   C24   1.541596 S    
C38   C39   1.394278 A    
C22   H8    1.110284 S    
C35   C43   1.404101 A    
C40   C41   1.423856 A    
O1    V2    2.025150 S    
O13   V3    2.002867 S    
C24   H10   1.110458 S    
C1    O6    1.298939 A    
C30   H14   1.109807 S    
C11   C18   1.415832 A    
H16   C47   1.083560 S    
C18   C51   1.462282 S    
C7    C8    1.387112 A    
C19   C22   1.549424 S    
O19   C52   1.301131 A    
C37   C48   1.408199 A    
C11   C15   1.404025 A    
C7    C18   1.395478 A    
C27   H13   1.109341 S    
O11   V4    1.997466 S    
C44   C45   1.386724 A    
C37   C38   1.401541 A    
C5    C13   1.397926 A    
C4    C6    1.473444 S    
H1    C14   1.083090 S    
C10   C11   1.424015 A    
O4    C2    1.297392 A    
C49   O16   1.288452 A    
C45   H21   1.082423 S    
C33   C34   1.543943 S    
C8    I6    2.101045 S    
C32   N1    1.451992 S    
C28   H12   1.108645 S    
O13   C52   1.297319 A    
C3    C21   1.505761 S    
O2    C1    1.295019 A    
C24   C25   1.549378 S    
C20   H6    1.109575 S    
C9    C10   1.411294 A    
C9    H4    1.073003 S    
C36   C46   1.398223 A    
V4    O20   2.168360 S    
N1    O22   1.298707 A    
C27   C28   1.556371 S    
C19   C26   1.541907 S    
C28   C33   1.552141 S    
V3    O20   1.709117 S    
O19   V4    1.996201 S    
O3    C4    1.293180 A    
C48   C49   1.467340 S    
C21   C22   1.539381 S    
O12   C49   1.298906 A    
C12   C16   1.426019 A    
O6    V2    1.996824 S    
O9    V2    2.024527 S    
C16   I5    2.146004 S    
C5    C17   1.389934 A    
C23   C24   1.549451 S    
C26   C52   1.506093 S    
C25   C26   1.540027 S    
O7    V1    2.158549 S    
C36   C47   1.395163 A    
C29   C30   1.547000 S    
C14   C15   1.386987 A    
C35   H18   1.084100 S    
O1    C2    1.290573 A    
C19   H7    1.110509 S    
C38   I4    2.125090 S    
C42   C43   1.422621 A    
O5    V1    2.002868 S    
O8    C3    1.301157 A    
O17   V4    1.714209 S    
O12   V3    2.023065 S    
C15   H5    1.081411 S    
C27   C30   1.555208 S    
C31   C34   1.540519 S    
C28   C29   1.546221 S    
O16   V4    2.031567 S    
O7    V2    1.716265 S    
O4    V1    2.023037 S    
O3    V1    2.024668 S    
V1    O10   1.709086 S    
C29   C32   1.524209 S    
C2    C36   1.460039 S    
C41   C45   1.409865 A    
O17   V3    2.158562 S    
C33   H15   1.109630 S    
O11   C50   1.299320 A    
O15   C51   1.290552 A    
C1    C34   1.498963 S    
N1    O21   1.300568 A    
C5    H2    1.084095 S    
C23   H9    1.109633 S    
C39   C40   1.414418 A    
C20   C25   1.550548 S    
C13   C14   1.396577 A    
H17   C44   1.083444 S    
C8    C9    1.392608 A    
C39   H20   1.075650 S    
C40   C42   1.430767 A    
C31   I2    2.125481 S    
O9    C4    1.301782 A    
C23   C26   1.538812 S    
C41   C48   1.418129 A    
C6    C17   1.407773 A    
O2    V1    2.006889 S    
