data_mof_unit_17309.cif
_audit_creation_date              2013-03-05T16:12:48-0500
_audit_creation_method            fapswitch 2.2
_symmetry_space_group_name_H-M    P1
_symmetry_Int_Tables_number       1
_space_group_crystal_system       triclinic
_cell_length_a                    10.639901
_cell_length_b                    9.834398
_cell_length_c                    27.734262
_cell_angle_alpha                 90.017589
_cell_angle_beta                  90.064147
_cell_angle_gamma                 90.646607
_cell_volume                      2901.84379119

loop_
_atom_site_label
_atom_site_type_symbol
_atom_site_description
_atom_site_fract_x
_atom_site_fract_y
_atom_site_fract_z
_atom_type_partial_charge
O1    O     O_R   0.316770 0.614620 0.500000 -0.611871
O2    O     O_R   0.683230 0.385380 0.500000 -0.622992
O3    O     O_R   0.683230 0.614620 0.500000 -0.623807
O4    O     O_R   0.316770 0.385380 0.500000 -0.630548
C1    C     C_R   0.260490 0.499127 0.500069 0.911767
C2    C     C_R   0.739541 0.500859 0.500822 0.915312
O5    O     O_R   0.500030 0.614650 0.428760 -0.627820
O6    O     O_R   0.499970 0.385350 0.571240 -0.633951
O7    O     O_R   0.499970 0.614650 0.571240 -0.629348
O8    O     O_R   0.500030 0.385350 0.428760 -0.631095
C3    C     C_R   0.499817 0.499921 0.406016 0.909092
C4    C     C_R   0.499883 0.499975 0.593964 0.911692
Zn1   Zn    Zn3+2 0.500000 0.653120 0.500000 0.944117
Zn2   Zn    Zn3+2 0.500000 0.346880 0.500000 0.942179
C5    C     C_R   0.379174 0.480677 0.177904 0.622958
C6    C     C_R   0.612615 0.480116 0.822025 0.621940
O9    O     O_2   0.272920 0.480862 0.204300 -0.569171
O10   O     O_2   0.718787 0.478668 0.795594 -0.569708
N1    N     N_R   0.491612 0.493734 0.201331 -0.314903
N2    N     N_R   0.500592 0.494519 0.798608 -0.314469
C7    C     C_R   0.603038 0.502255 0.177454 0.629446
C8    C     C_R   0.389437 0.504190 0.822482 0.631328
C9    C     C_R   0.516541 0.374284 0.278298 0.314117
C10   C     C_R   0.471677 0.375716 0.721539 0.316644
C11   C     C_R   0.518731 0.377812 0.328514 -0.294473
C12   C     C_R   0.471663 0.379014 0.671308 -0.283552
C13   C     C_R   0.475288 0.619065 0.327951 -0.290269
C14   C     C_R   0.526010 0.618901 0.672083 -0.297301
C15   C     C_R   0.472229 0.619416 0.277628 0.326105
C16   C     C_R   0.526385 0.619575 0.722406 0.328051
C17   C     C_R   0.493051 0.495932 0.252758 0.087683
C18   C     C_R   0.499427 0.496824 0.747178 0.083962
C19   C     C_R   0.490889 0.482467 0.101706 -0.060041
C20   C     C_R   0.500976 0.482939 0.898227 -0.060082
C21   C     C_R   0.375375 0.468746 0.127012 -0.083371
C22   C     C_R   0.616139 0.468412 0.872921 -0.083590
C23   C     C_R   0.262625 0.441509 0.100635 0.160117
C24   C     C_R   0.728229 0.440655 0.899301 0.159781
C25   C     C_R   0.604841 0.499169 0.127309 -0.007152
C26   C     C_R   0.387504 0.500703 0.872629 -0.007460
C27   C     C_R   0.498265 0.499175 0.353384 -0.146395
C28   C     C_R   0.499381 0.499415 0.646563 -0.156527
H1    H     H_    0.459748 0.712963 0.347364 0.203267
H2    H     H_    0.546429 0.712203 0.652729 0.204288
C29   C     C_R   0.381957 0.486690 0.973993 0.071249
C30   C     C_R   0.609939 0.485784 0.025944 0.071275
C31   C     C_R   0.611801 0.471860 0.975141 -0.004378
C32   C     C_R   0.379718 0.472540 0.024792 -0.004257
C33   C     C_R   0.498334 0.480092 0.949192 0.086611
C34   C     C_R   0.493413 0.479841 0.050741 0.086559
C35   C     C_R   0.271581 0.509950 0.947235 -0.211326
C36   C     C_R   0.720930 0.508220 0.052710 -0.211409
C37   C     C_R   0.274410 0.516216 0.897428 -0.125673
C38   C     C_R   0.718318 0.514097 0.102521 -0.125831
O11   O     O_2   0.281377 0.518267 0.797468 -0.541130
O12   O     O_2   0.711535 0.514921 0.202467 -0.540824
C39   C     C_R   0.267248 0.447395 0.050066 -0.185135
C40   C     C_R   0.723616 0.446113 0.949869 -0.185017
H3    H     H_    0.450636 0.286674 0.651431 0.206968
H4    H     H_    0.536188 0.284920 0.348279 0.207471
H5    H     H_    0.187188 0.534275 0.878400 0.194628
H6    H     H_    0.806015 0.531488 0.121559 0.194531
H7    H     H_    0.182210 0.529101 0.964092 0.137647
H8    H     H_    0.810762 0.527019 0.035861 0.137456
H9    H     H_    0.182861 0.426284 0.030080 0.157778
H10   H     H_    0.807354 0.424224 0.969866 0.157967
C41   C     C_R   0.065166 0.505504 0.455599 0.099138
C42   C     C_R   0.935027 0.496422 0.545639 0.099084
C43   C     C_R   0.933911 0.507186 0.455830 0.100669
C44   C     C_R   0.066149 0.485327 0.545189 0.094332
C45   C     C_R   0.872201 0.503193 0.500812 -0.131605
C46   C     C_R   0.127919 0.496033 0.500280 -0.143101
C47   C     C_R   0.556949 0.072707 0.536326 -0.053093
C48   C     C_R   0.443426 0.927393 0.463597 -0.052848
C49   C     C_R   0.443182 0.071268 0.463646 -0.056490
C50   C     C_R   0.556762 0.928816 0.536366 -0.055107
H11   H     H_    0.602634 0.127781 0.565341 0.140562
H12   H     H_    0.398527 0.872540 0.434403 0.131014
H13   H     H_    0.397630 0.125180 0.434601 0.140823
H14   H     H_    0.602023 0.875085 0.565484 0.131069
N3    N     N_R   0.500000 0.857200 0.500000 -0.089368
N4    N     N_R   0.500000 0.142800 0.500000 -0.090916
N5    N     N_R   0.447422 0.745006 0.252617 0.239943
O13   O     O_R   0.390136 0.843401 0.274635 -0.342751
O14   O     O_R   0.489173 0.766426 0.209182 -0.346274
N6    N     N_R   0.554957 0.744655 0.747561 0.239703
O15   O     O_R   0.617714 0.841385 0.726024 -0.347589
O16   O     O_R   0.511088 0.767558 0.790530 -0.346580
C51   C     C_3   0.139461 0.402809 0.125994 -0.292425
C52   C     C_3   0.033077 0.346504 0.094264 -0.913059
H15   H     H_    0.997986 0.426378 0.069613 0.242514
H16   H     H_    0.065373 0.257222 0.073297 0.277174
H17   H     H_    0.953497 0.313119 0.117460 0.283843
H18   H     H_    0.159494 0.321637 0.152706 0.261687
H19   H     H_    0.102931 0.493486 0.145076 0.254021
C53   C     C_3   0.850689 0.402166 0.873949 -0.291856
C54   C     C_3   0.956478 0.347243 0.905696 -0.913117
H20   H     H_    0.992495 0.427673 0.930303 0.242706
H21   H     H_    0.923210 0.257692 0.926705 0.276962
H22   H     H_    0.035658 0.314611 0.882503 0.284053
H23   H     H_    0.829243 0.320406 0.847412 0.261962
H24   H     H_    0.888581 0.492749 0.854680 0.254268
N7    N     N_R   0.443108 0.249322 0.745786 0.235038
O17   O     O_R   0.376242 0.155875 0.724160 -0.340934
O18   O     O_R   0.491841 0.221432 0.787618 -0.356538
N8    N     N_R   0.539116 0.247181 0.253962 0.234689
O19   O     O_R   0.602821 0.152277 0.275299 -0.338031
O20   O     O_R   0.488169 0.220414 0.212321 -0.356365
C55   C     C_3   0.138948 0.511144 0.408236 -0.406870
C56   C     C_3   0.166436 0.657709 0.392977 -0.805232
H25   H     H_    0.078686 0.717215 0.390626 0.258502
H26   H     H_    0.230291 0.707935 0.419226 0.262972
H27   H     H_    0.212393 0.658416 0.357073 0.269239
H28   H     H_    0.228958 0.455946 0.411065 0.198455
H29   H     H_    0.088890 0.457087 0.378782 0.229680
C57   C     C_3   0.860740 0.503595 0.592928 -0.397054
C58   C     C_3   0.824416 0.649719 0.605117 -0.816546
H30   H     H_    0.905125 0.720681 0.600083 0.263605
H31   H     H_    0.746220 0.684235 0.582108 0.265443
H32   H     H_    0.793135 0.655316 0.643239 0.268452
H33   H     H_    0.774914 0.438580 0.590961 0.197464
H34   H     H_    0.912406 0.463220 0.624193 0.228780
C59   C     C_3   0.858938 0.512065 0.408681 -0.414843
C60   C     C_3   0.829267 0.369179 0.389894 -0.799739
H35   H     H_    0.916212 0.308730 0.386368 0.258060
H36   H     H_    0.763878 0.315127 0.414616 0.274009
H37   H     H_    0.784209 0.376232 0.353887 0.269969
H38   H     H_    0.769851 0.568046 0.413146 0.210642
H39   H     H_    0.908926 0.570710 0.380406 0.231461
C61   C     C_3   0.141104 0.458699 0.591469 -0.414741
C62   C     C_3   0.170049 0.589169 0.619381 -0.770987
H40   H     H_    0.233260 0.566057 0.650097 0.262084
H41   H     H_    0.217556 0.664838 0.595690 0.264702
H42   H     H_    0.083350 0.633455 0.634336 0.272074
H43   H     H_    0.093386 0.382726 0.614793 0.211640
H44   H     H_    0.231605 0.408726 0.583775 0.212463

loop_
_geom_bond_atom_site_label_1
_geom_bond_atom_site_label_2
_geom_bond_distance
_ccdc_geom_bond_type
C53   H24   1.111028 S    
C13   C15   1.396018 A    
C61   H43   1.107672 S    
C62   H42   1.105658 S    
N1    C17   1.426504 S    
C54   H20   1.109273 S    
C59   H38   1.108559 S    
C59   C60   1.528039 S    
C31   C33   1.407939 A    
C5    N1    1.365503 A    
C19   C25   1.412344 A    
C57   H34   1.102634 S    
C20   C26   1.412480 A    
N1    C7    1.360380 A    
C10   C12   1.393499 A    
C15   N5    1.443530 S    
C1    C46   1.410550 S    
C58   H31   1.104531 S    
N6    O16   1.300837 A    
C25   C38   1.396390 A    
N8    O19   1.301712 A    
C29   C35   1.409417 A    
Zn1   N3    2.007004 S    
C44   C61   1.534504 S    
C57   C58   1.530119 S    
C41   C46   1.410561 A    
C14   C28   1.397691 A    
C51   H18   1.111474 S    
C43   C45   1.410789 A    
O7    Zn1   2.011796 S    
C56   H25   1.109336 S    
C4    C28   1.458803 S    
C24   C40   1.404413 A    
C37   H5    1.083496 S    
C41   C55   1.531740 S    
C36   C38   1.382966 A    
C11   H4    1.083265 S    
C16   N6    1.443216 S    
C12   H3    1.083255 S    
O3    Zn1   1.990165 S    
C6    N2    1.365526 A    
O3    C2    1.275243 A    
C32   C34   1.408018 A    
C53   H23   1.111468 S    
C59   H39   1.106686 S    
O2    C2    1.278216 A    
C5    C21   1.416778 A    
C54   H21   1.110913 S    
C40   H10   1.072861 S    
C2    C45   1.411413 S    
C48   C49   1.414957 A    
C32   C39   1.407062 A    
C35   H7    1.078530 S    
C36   H8    1.078502 S    
C58   H32   1.110339 S    
C11   C27   1.397648 A    
N6    O15   1.301728 A    
C38   H6    1.083478 S    
C19   C34   1.414015 A    
C9    N8    1.443026 S    
C14   H2    1.083187 S    
C35   C37   1.383104 A    
C9    C17   1.415024 A    
C51   H19   1.111027 S    
O5    C3    1.292454 A    
C10   C18   1.415074 A    
C13   C27   1.397892 A    
C52   H16   1.110918 S    
N5    O13   1.301751 A    
C7    C25   1.391201 A    
C29   C33   1.419244 A    
O6    C4    1.291328 A    
C8    C26   1.391379 A    
C53   C54   1.531565 S    
N7    O18   1.300832 A    
C56   H27   1.109833 S    
C55   H28   1.108873 S    
C42   C57   1.534049 S    
C60   H37   1.109788 S    
C6    O10   1.347551 S    
N5    O14   1.300801 A    
N2    C8    1.360315 A    
C43   C59   1.532027 S    
O8    Zn2   2.011801 S    
C47   C50   1.415059 A    
O1    C1    1.278004 A    
O1    Zn1   1.981776 S    
Zn2   N4    2.007004 S    
C48   N3    1.366253 A    
C62   H40   1.109964 S    
C47   N4    1.365953 A    
C54   H22   1.110703 S    
C12   C28   1.397526 A    
C52   H17   1.110704 S    
C60   H36   1.108904 S    
N2    C18   1.426589 S    
C29   C32   1.415972 A    
C5    O9    1.347563 S    
C30   C31   1.415766 A    
C20   C33   1.414067 A    
O6    Zn2   2.011569 S    
C21   C23   1.427144 A    
C61   H44   1.106958 S    
C50   H14   1.080931 S    
C39   H9    1.072914 S    
O4    C1    1.274766 A    
C62   H41   1.110646 S    
C50   N3    1.366254 A    
C7    O12   1.350670 S    
C49   N4    1.365831 A    
C8    O11   1.350638 S    
C30   C34   1.419096 A    
C23   C51   1.532231 S    
C10   N7    1.442961 S    
C22   C24   1.427464 A    
C61   C62   1.526553 S    
C15   C17   1.416155 A    
C58   H30   1.109384 S    
C6    C22   1.416772 A    
C30   C36   1.409411 A    
C16   C18   1.415884 A    
C52   H15   1.109158 S    
N8    O20   1.300796 A    
C42   C45   1.412837 A    
C14   C16   1.395689 A    
C19   C21   1.421124 A    
C3    C27   1.459803 S    
C20   C22   1.421352 A    
C9    C11   1.393273 A    
O4    Zn2   1.990165 S    
O2    Zn2   1.981776 S    
O7    C4    1.292078 A    
C56   H26   1.107556 S    
O8    C3    1.291477 A    
C55   H29   1.107231 S    
C13   H1    1.083183 S    
O5    Zn1   2.011574 S    
C42   C44   1.400688 A    
C26   C37   1.396505 A    
C48   H12   1.080642 S    
C24   C53   1.532446 S    
N7    O17   1.301686 A    
C47   H11   1.081715 S    
C44   C46   1.412330 A    
C57   H33   1.110126 S    
C41   C43   1.396842 A    
C51   C52   1.531515 S    
C55   C56   1.527531 S    
C49   H13   1.081711 S    
C23   C39   1.404600 A    
C60   H35   1.109658 S    
C31   C40   1.406886 A    
