data_mof_unit_45018.cif
_audit_creation_date              2012-12-11T15:16:38-0500
_audit_creation_method            fapswitch 2.2
_symmetry_space_group_name_H-M    P1
_symmetry_Int_Tables_number       1
_space_group_crystal_system       triclinic
_cell_length_a                    25.094317
_cell_length_b                    7.237329
_cell_length_c                    21.904233
_cell_angle_alpha                 89.999669
_cell_angle_beta                  110.156208
_cell_angle_gamma                 90.000264
_cell_volume                      3734.5199118

loop_
_atom_site_label
_atom_site_type_symbol
_atom_type_description
_atom_site_fract_x
_atom_site_fract_y
_atom_site_fract_z
_atom_type_partial_charge
O1    O     O_R   0.554350 0.505270 0.581390 -0.530193
O2    O     O_R   0.445650 0.005270 0.418610 -0.530193
O3    O     O_R   0.553380 0.177580 0.454800 -0.538541
O4    O     O_R   0.446620 0.677580 0.545200 -0.538541
C1    C     C_R   0.565679 0.344661 0.438088 0.685836
C2    C     C_R   0.434322 0.844659 0.561913 0.685834
O5    O     O_R   0.560970 0.175640 0.583140 -0.534020
O6    O     O_R   0.439030 0.675640 0.416860 -0.534019
O7    O     O_R   0.453290 0.004120 0.547860 -0.539317
O8    O     O_R   0.546710 0.504120 0.452140 -0.539319
C3    C     C_R   0.576033 0.343883 0.607567 0.678437
C4    C     C_R   0.423967 0.843883 0.392433 0.678438
O9    O     O_3   0.464660 0.338800 0.488280 -0.373319
O10   O     O_3   0.535340 0.838800 0.511720 -0.373320
V1    V     V_3+5 0.506560 0.064420 0.502170 1.427130
V2    V     V_3+5 0.493440 0.564420 0.497830 1.427131
C5    C     C_R   0.148271 0.982809 0.288860 -0.150140
C6    C     C_R   0.851729 0.482826 0.711140 -0.150142
H1    H     H_    0.233793 0.980544 0.401116 0.134106
H2    H     H_    0.766206 0.480567 0.598884 0.134108
C7    C     C_R   0.120781 0.942534 0.172401 -0.036510
C8    C     C_R   0.879219 0.442536 0.827599 -0.036510
C9    C     C_R   0.396826 0.812776 0.273801 -0.154085
C10   C     C_R   0.603174 0.312763 0.726199 -0.154084
C11   C     C_R   0.357457 0.809621 0.211007 -0.102397
C12   C     C_R   0.642543 0.309604 0.788993 -0.102392
C13   C     C_R   0.300099 0.841642 0.199816 -0.153653
C14   C     C_R   0.699901 0.341630 0.800184 -0.153652
C15   C     C_R   0.280352 0.878495 0.251783 0.074901
C16   C     C_R   0.719648 0.378493 0.748216 0.074900
C17   C     C_R   0.321304 0.883453 0.316390 0.069176
C18   C     C_R   0.678695 0.383456 0.683610 0.069176
C19   C     C_R   0.221435 0.910289 0.241789 0.073804
C20   C     C_R   0.778565 0.410290 0.758211 0.073804
C21   C     C_R   0.205306 0.948172 0.296696 0.132890
C22   C     C_R   0.794693 0.448183 0.703304 0.132891
C23   C     C_R   0.246083 0.952125 0.359207 -0.192324
C24   C     C_R   0.753917 0.452141 0.640793 -0.192324
C25   C     C_R   0.303037 0.919909 0.369005 -0.189763
C26   C     C_R   0.696963 0.419921 0.630995 -0.189763
C27   C     C_R   0.177755 0.906736 0.179456 -0.208074
C28   C     C_R   0.822245 0.406731 0.820544 -0.208075
C29   C     C_R   0.106564 0.981239 0.227315 -0.161582
C30   C     C_R   0.893435 0.481253 0.772685 -0.161583
C31   C     C_R   0.379743 0.849895 0.326920 -0.084376
C32   C     C_R   0.620257 0.349893 0.673080 -0.084377
H3    H     H_    0.186514 0.879076 0.135504 0.099441
H4    H     H_    0.813486 0.379063 0.864495 0.099441
H5    H     H_    0.441078 0.785681 0.281080 0.125193
H6    H     H_    0.558923 0.285663 0.718919 0.125196
H7    H     H_    0.272318 0.836404 0.149851 0.117998
H8    H     H_    0.727682 0.336389 0.850148 0.118000
H9    H     H_    0.332790 0.924212 0.418408 0.111872
H10   H     H_    0.667209 0.424228 0.581592 0.111874
C33   C     C_R   0.108208 0.777762 0.865508 -0.129862
C34   C     C_R   0.891791 0.277742 0.134489 -0.129913
H11   H     H_    0.083630 0.656195 0.867318 0.125989
H12   H     H_    0.916364 0.156166 0.132672 0.125984
C35   C     C_R   0.143215 0.771756 0.827769 -0.145086
C36   C     C_R   0.856789 0.271733 0.172235 -0.145114
H13   H     H_    0.145191 0.645086 0.802311 0.160481
H14   H     H_    0.854809 0.145055 0.197687 0.160524
C37   C     C_R   0.176192 0.925043 0.823681 -0.051871
C38   C     C_R   0.823820 0.425033 0.176333 -0.051850
C39   C     C_R   0.172130 0.089859 0.857225 -0.004186
C40   C     C_R   0.827884 0.589855 0.142791 -0.004132
C41   C     C_R   0.136771 0.093477 0.895179 -0.202344
C42   C     C_R   0.863235 0.593480 0.104830 -0.202345
H15   H     H_    0.133650 0.219618 0.920387 0.154658
H16   H     H_    0.866355 0.719633 0.079624 0.154594
C43   C     C_R   0.104423 0.938682 0.899688 -0.068162
C44   C     C_R   0.895579 0.438677 0.100313 -0.068127
N1    N     N_R   0.268610 0.975824 0.808871 -0.242192
N2    N     N_R   0.731415 0.475912 0.191161 -0.242240
N3    N     N_R   0.302613 0.965471 0.773759 -0.239503
N4    N     N_R   0.697413 0.465565 0.226272 -0.239513
C45   C     C_R   0.284496 0.885934 0.713882 0.564462
C46   C     C_R   0.715519 0.385953 0.286135 0.564440
N5    N     N_R   0.231700 0.810164 0.691778 -0.255582
N6    N     N_R   0.768302 0.310100 0.308224 -0.255567
N7    N     N_R   0.197675 0.820321 0.726968 -0.254189
N8    N     N_R   0.802327 0.320248 0.273033 -0.254145
C47   C     C_R   0.215009 0.906848 0.785668 0.556855
C48   C     C_R   0.785005 0.406850 0.214348 0.556805
C49   C     C_R   0.323872 0.721167 0.638756 -0.148762
C50   C     C_R   0.676137 0.221179 0.361256 -0.148772
H17   H     H_    0.297785 0.603338 0.640224 0.175822
H18   H     H_    0.702223 0.103349 0.359789 0.175849
C51   C     C_R   0.360659 0.707102 0.603229 -0.139885
C52   C     C_R   0.639346 0.207109 0.396779 -0.139890
C53   C     C_R   0.395473 0.856202 0.600248 -0.067669
C54   C     C_R   0.604531 0.356208 0.399758 -0.067667
C55   C     C_R   0.392454 0.019749 0.633645 -0.197315
C56   C     C_R   0.607555 0.519762 0.366367 -0.197319
C57   C     C_R   0.355637 0.036302 0.669439 -0.005243
C58   C     C_R   0.644377 0.536321 0.330578 -0.005225
C59   C     C_R   0.321481 0.883009 0.673287 -0.053801
C60   C     C_R   0.678532 0.383026 0.326730 -0.053802
O11   O     O_R   0.953220 0.285790 0.047790 -0.536874
O12   O     O_R   0.046780 0.785790 0.952210 -0.536869
O13   O     O_R   0.939020 0.617570 0.916840 -0.534487
O14   O     O_R   0.060980 0.117570 0.083160 -0.534486
C61   C     C_R   0.923976 0.448740 0.892468 0.681697
C62   C     C_R   0.076024 0.948739 0.107531 0.681699
O15   O     O_R   0.946600 0.615450 0.045180 -0.540620
O16   O     O_R   0.053400 0.115450 0.954820 -0.540620
O17   O     O_R   0.054370 0.786770 0.081410 -0.531145
O18   O     O_R   0.945630 0.286770 0.918590 -0.531146
C63   C     C_R   0.934318 0.447075 0.061731 0.684803
C64   C     C_R   0.065682 0.947076 0.938268 0.684801
O19   O     O_3   0.035300 0.454160 0.011680 -0.372402
O20   O     O_3   0.964700 0.954160 0.988320 -0.372406
V3    V     V_3+5 0.993450 0.728620 0.997830 1.424738
V4    V     V_3+5 0.006550 0.228620 0.002170 1.424740
H19   H     H_    0.062943 0.010493 0.222466 0.110160
H20   H     H_    0.937056 0.510513 0.777535 0.110156
C65   C     C_2   0.201482 0.263859 0.851531 0.767789
O21   O     O_2   0.208407 0.303821 0.800531 -0.523376
O22   O     O_R   0.219385 0.386145 0.904140 -0.667536
H21   H     H_    0.238556 0.500235 0.894479 0.304025
C66   C     C_2   0.798539 0.763853 0.148500 0.767800
O23   O     O_2   0.791684 0.803894 0.199532 -0.523412
O24   O     O_R   0.780567 0.886046 0.095867 -0.667484
H22   H     H_    0.761422 0.000174 0.105550 0.304017
H23   H     H_    0.361539 0.579496 0.577772 0.132746
H24   H     H_    0.638463 0.079498 0.422232 0.132750
H25   H     H_    0.418405 0.137117 0.631041 0.151907
H26   H     H_    0.581605 0.637131 0.368970 0.151903
C67   C     C_2   0.352379 0.218864 0.698997 0.763729
O25   O     O_2   0.307381 0.274431 0.702150 -0.530240
O26   O     O_R   0.400665 0.330979 0.721076 -0.669438
H27   H     H_    0.393256 0.452286 0.739888 0.306146
C68   C     C_2   0.647641 0.718891 0.301028 0.763723
O27   O     O_2   0.692643 0.774468 0.297891 -0.530253
O28   O     O_R   0.599354 0.830998 0.278937 -0.669434
H28   H     H_    0.606766 0.952308 0.260129 0.306142
H29   H     H_    0.135894 0.012543 0.330610 0.125056
H30   H     H_    0.864105 0.512569 0.669391 0.125055
H31   H     H_    0.371515 0.781133 0.170447 0.138234
H32   H     H_    0.628486 0.281109 0.829552 0.138238

loop_
_geom_bond_atom_site_label_1
_geom_bond_atom_site_label_2
_ccdc_geom_bond_type
C40   C42   A    
C37   C39   A    
O12   C64   A    
C9    C31   A    
C33   C35   A    
C13   C15   A    
O13   V3    S    
O1    C3    A    
O2    C4    A    
O11   V4    S    
C5    C29   A    
O28   H28   S    
C51   H23   S    
C12   C14   A    
O5    C3    A    
N2    N4    A    
O16   V4    S    
O15   V3    S    
C21   C23   A    
N4    C46   A    
C12   H32   S    
C65   O22   S    
C46   N6    A    
C9    H5    S    
C2    C53   S    
O11   C63   A    
C43   C64   S    
C15   C19   A    
C50   H18   S    
C36   H14   S    
O18   V4    S    
C6    H30   S    
C38   C48   S    
H1    C23   S    
C29   H19   S    
C7    C29   A    
C7    C62   S    
C8    C30   A    
C17   C25   A    
C20   C28   A    
C34   C44   A    
C58   C60   A    
C46   C60   S    
C45   C59   S    
C61   O18   A    
C51   C53   A    
C20   C22   A    
O6    C4    A    
O5    V1    S    
C55   C57   A    
N1    N3    A    
C18   C32   A    
C2    O7    A    
O20   V3    S    
N7    C47   A    
C13   H7    S    
C45   N5    A    
C10   H6    S    
C23   C25   A    
C35   H13   S    
C16   C20   A    
C49   H17   S    
C16   C18   A    
O17   V3    S    
O24   H22   S    
N6    N8    A    
C50   C52   A    
N5    N7    A    
C49   C51   A    
C39   C41   A    
C8    C61   S    
C34   C36   A    
C37   C47   S    
C41   H15   S    
C38   C40   A    
O4    V2    S    
C56   C58   A    
C55   H25   S    
O14   V4    S    
C6    C30   A    
C53   C55   A    
H2    C24   S    
C52   C54   A    
C42   C44   A    
C54   C56   A    
C27   H3    S    
C40   C66   S    
O1    V2    S    
C28   H4    S    
O14   C62   A    
O2    V1    S    
N3    C45   A    
C66   O23   D    
C7    C27   A    
O4    C2    A    
N8    C48   A    
C33   H11   S    
C68   O27   D    
O26   H27   S    
O3    V1    S    
C57   C67   S    
C67   O25   D    
O16   C64   A    
O15   C63   A    
C44   C63   S    
C11   H31   S    
C35   C37   A    
O12   V3    S    
C10   C12   A    
N2    C48   A    
C4    C31   S    
O3    C1    A    
O22   H21   S    
C57   C59   A    
C58   C68   S    
C56   H26   S    
C11   C13   A    
C26   H10   S    
O13   C61   A    
C36   C38   A    
C19   C27   A    
C22   C24   A    
O7    V1    S    
C10   C32   A    
C1    O8    A    
C15   C17   A    
O8    V2    S    
C65   O21   D    
C24   C26   A    
C14   H8    S    
C25   H9    S    
C14   C16   A    
C19   C21   A    
C34   H12   S    
O19   V4    S    
C41   C43   A    
C18   C26   A    
C50   C60   A    
C66   O24   S    
C1    C54   S    
C49   C59   A    
C52   H24   S    
C9    C11   A    
C30   H20   S    
O6    V2    S    
C17   C31   A    
O9    V2    S    
C8    C28   A    
C68   O28   S    
C42   H16   S    
C39   C65   S    
O10   V1    S    
C3    C32   S    
C5    H29   S    
C5    C21   A    
C6    C22   A    
N1    C47   A    
C62   O17   A    
C33   C43   A    
C67   O26   S    
