data_mof_unit_24763.cif
_audit_creation_date              2012-12-11T15:56:02-0500
_audit_creation_method            fapswitch 2.2
_symmetry_space_group_name_H-M    P1
_symmetry_Int_Tables_number       1
_space_group_crystal_system       triclinic
_cell_length_a                    11.104178
_cell_length_b                    10.964387
_cell_length_c                    18.730343
_cell_angle_alpha                 90.088905
_cell_angle_beta                  89.53257
_cell_angle_gamma                 59.715147
_cell_volume                      1969.10818131

loop_
_atom_site_label
_atom_site_type_symbol
_atom_type_description
_atom_site_fract_x
_atom_site_fract_y
_atom_site_fract_z
_atom_type_partial_charge
C1    C     C_R   0.360177 0.768667 0.395840 0.541419
C2    C     C_R   0.231643 0.431777 0.204673 -0.159539
C3    C     C_R   0.233463 0.433892 0.279594 -0.021521
C4    C     C_R   0.386450 0.353160 0.388210 0.532118
C5    C     C_R   0.879251 0.738203 0.404951 -0.113328
C6    C     C_R   0.903097 0.772845 0.336691 -0.148133
C7    C     C_R   0.015172 0.673710 0.295086 -0.128425
C8    C     C_R   0.104479 0.536663 0.320893 0.048833
C9    C     C_R   0.359384 0.336703 0.313586 0.005997
C10   C     C_R   0.966891 0.291123 0.195751 0.015812
C11   C     C_R   0.981711 0.177645 0.237422 0.016130
C12   C     C_R   0.606456 0.147756 0.158689 0.039903
C13   C     C_R   0.937692 0.197484 0.308914 0.012014
C14   C     C_R   0.888676 0.434775 0.302174 -0.148159
C15   C     C_R   0.935548 0.414973 0.231889 -0.107965
C16   C     C_R   0.782558 0.376622 0.403659 0.530540
C17   C     C_3   0.923182 0.083944 0.225643 -0.260061
C18   C     C_3   0.883809 0.099411 0.303942 -0.291517
C19   C     C_R   0.874923 0.331604 0.339811 -0.002078
C20   C     C_R   0.355686 0.821681 0.171124 0.043208
C21   C     C_R   0.455249 0.832609 0.210501 0.029652
C22   C     C_R   0.450973 0.830244 0.285804 -0.044335
C23   C     C_R   0.349112 0.333922 0.164385 -0.004840
C24   C     C_R   0.249964 0.802928 0.280215 -0.158752
C25   C     C_R   0.263337 0.790764 0.207014 -0.175911
C26   C     C_3   0.608082 0.724448 0.211098 0.140140
C27   C     C_3   0.602517 0.730113 0.291698 -0.244841
C28   C     C_R   0.342520 0.771971 0.603360 0.545163
C29   C     C_R   0.346423 0.817687 0.321854 0.011206
C30   C     C_R   0.296765 0.302225 0.807297 0.016247
C31   C     C_R   0.401962 0.188790 0.769140 0.045253
C32   C     C_R   0.413425 0.192986 0.696797 0.028654
C33   C     C_R   0.196875 0.415586 0.694479 -0.167012
C34   C     C_R   0.475993 0.241524 0.272766 -0.153820
C35   C     C_R   0.185776 0.410174 0.769047 -0.163241
C36   C     C_3   0.555668 0.110487 0.780734 -0.276588
C37   C     C_3   0.570222 0.114083 0.700875 -0.270222
C38   C     C_R   0.320054 0.314424 0.659438 0.013794
C39   C     C_R   0.855932 0.314583 0.827685 0.015384
C40   C     C_R   0.368843 0.347968 0.594509 0.541859
C41   C     C_R   0.862369 0.420136 0.789613 0.045649
C42   C     C_R   0.853186 0.428084 0.717225 0.029742
C43   C     C_R   0.848643 0.210641 0.713893 -0.163537
C44   C     C_R   0.860864 0.201999 0.788802 -0.162679
C45   C     C_R   0.475858 0.244895 0.198901 -0.031138
C46   C     C_3   0.783969 0.576134 0.800628 -0.277593
C47   C     C_3   0.772740 0.586771 0.720366 -0.272853
C48   C     C_R   0.832013 0.331644 0.678503 0.017071
C49   C     C_R   0.292522 0.864954 0.821142 0.016920
C50   C     C_R   0.181584 0.873344 0.783058 0.038105
C51   C     C_R   0.188274 0.861560 0.709768 0.029134
C52   C     C_R   0.766144 0.374932 0.609285 0.546182
C53   C     C_R   0.403772 0.864376 0.708461 -0.164910
C54   C     C_R   0.399562 0.870492 0.782816 -0.157783
C55   C     C_3   0.112616 0.787577 0.791327 -0.283948
C56   C     C_R   0.070407 0.499733 0.387437 -0.049928
C57   C     C_3   0.120089 0.773523 0.710843 -0.268864
C58   C     C_R   0.305781 0.843922 0.671950 0.017107
C59   C     C_R   0.979085 0.286356 0.117236 0.576695
C60   C     C_R   0.326443 0.295492 0.092694 0.533265
C61   C     C_R   0.309051 0.893413 0.103172 0.546741
C62   C     C_R   0.888708 0.306560 0.902985 0.551596
C63   C     C_R   0.292514 0.284660 0.883605 0.543837
C64   C     C_R   0.831037 0.956025 0.071921 -0.096838
C65   C     C_R   0.273619 0.898225 0.896702 0.544803
C66   C     C_R   0.753124 0.098007 0.052853 -0.068657
C67   C     C_R   0.962869 0.601469 0.430372 -0.086803
C68   C     C_R   0.644432 0.194528 0.096924 -0.075432
C69   C     C_3   0.579894 0.519498 0.199143 -0.084698
C70   C     C_R   0.686218 0.004766 0.177600 -0.102219
C71   C     C_R   0.798566 0.909683 0.134630 -0.136726
Cr1   Cr    Cr6+3 0.601740 0.606840 0.505840 0.988953
Cr2   Cr    Cr6+3 0.291500 0.601560 0.495070 1.012565
Cr3   Cr    Cr6+3 0.606780 0.291630 0.499130 0.999662
Cr4   Cr    Cr6+3 0.062440 0.063060 0.008240 0.982603
Cr5   Cr    Cr6+3 0.062950 0.375000 0.998920 1.006370
Cr6   Cr    Cr6+3 0.374550 0.061770 0.992470 1.021316
H1    H     H_    0.571101 0.166930 0.298752 0.125132
H2    H     H_    0.948677 0.003138 0.335746 0.146816
H3    H     H_    0.169686 0.788553 0.304182 0.158793
H4    H     H_    0.859385 0.799650 0.149330 0.096780
H5    H     H_    0.191304 0.770320 0.177943 0.125917
H6    H     H_    0.670864 0.767680 0.189022 0.133541
H7    H     H_    0.623620 0.631673 0.318142 0.173818
H8    H     H_    0.655632 0.782985 0.315200 0.104728
H9    H     H_    0.117032 0.505488 0.665915 0.120026
H10   H     H_    0.095627 0.493242 0.796604 0.129278
H11   H     H_    0.595586 0.002254 0.801561 0.132879
H12   H     H_    0.793422 0.816134 0.437221 0.105983
H13   H     H_    0.591826 0.174423 0.809923 0.135973
H14   H     H_    0.616883 0.178849 0.685343 0.169968
H15   H     H_    0.941781 0.572919 0.482347 0.118672
H16   H     H_    0.618442 0.007890 0.675359 0.123475
H17   H     H_    0.843516 0.128206 0.684713 0.120424
H18   H     H_    0.870076 0.110744 0.816006 0.126449
H19   H     H_    0.849679 0.616561 0.822926 0.137244
H20   H     H_    0.682120 0.613958 0.828324 0.136861
H21   H     H_    0.663840 0.631583 0.702336 0.167700
H22   H     H_    0.831284 0.634164 0.696057 0.124665
H23   H     H_    0.834232 0.876976 0.316048 0.103212
H24   H     H_    0.490908 0.861420 0.680498 0.123243
H25   H     H_    0.481761 0.876273 0.810241 0.133327
H26   H     H_    0.004214 0.850707 0.812356 0.130623
H27   H     H_    0.916372 0.881980 0.038076 0.106583
H28   H     H_    0.179167 0.686017 0.819226 0.136247
H29   H     H_    0.192223 0.663895 0.692580 0.166335
H30   H     H_    0.016024 0.827319 0.685219 0.126997
H31   H     H_    0.776028 0.133394 0.003642 0.139405
H32   H     H_    0.585133 0.304099 0.081008 0.097525
H33   H     H_    0.129164 0.392506 0.406919 0.102754
H34   H     H_    0.033825 0.705996 0.243675 0.081605
H35   H     H_    0.659805 0.967046 0.225031 0.084089
H36   H     H_    0.135260 0.500408 0.177538 0.118692
H37   H     H_    0.509918 0.525357 0.155706 0.128281
H38   H     H_    0.518124 0.557556 0.249123 0.114223
H39   H     H_    0.658094 0.406451 0.206875 0.135430
H40   H     H_    0.850227 0.538024 0.324187 0.158723
H41   H     H_    0.929918 0.504036 0.204062 0.149796
H42   H     H_    0.999853 0.975483 0.209307 0.154683
H43   H     H_    0.832875 0.137595 0.190788 0.167446
H44   H     H_    0.770451 0.152366 0.314047 0.147141
O1    O     O_R   0.748670 0.497520 0.427970 -0.541733
O2    O     O_R   0.417470 0.174910 0.067830 -0.495806
O3    O     O_R   0.375160 0.946380 0.070880 -0.488255
O4    O     O_R   0.476470 0.723930 0.429450 -0.505784
O5    O     O_R   0.160500 0.919670 0.926690 -0.522246
O6    O     O_R   0.933140 0.190380 0.936050 -0.522181
O7    O     O_R   0.909010 0.403210 0.925030 -0.511501
O8    O     O_R   0.179590 0.361290 0.918480 -0.510269
O9    O     O_R   0.391360 0.170840 0.907510 -0.521517
O10   O     O_R   0.350950 0.942600 0.922260 -0.508421
O11   O     O_3   0.166650 0.166610 0.999880 -0.273272
O12   O     O_R   0.300170 0.471020 0.567120 -0.511419
O13   O     O_R   0.264730 0.744140 0.416740 -0.517500
O14   O     O_R   0.309440 0.472410 0.418220 -0.493786
O15   O     O_R   0.501630 0.260530 0.414310 -0.534236
O16   O     O_R   0.727920 0.305730 0.428950 -0.498563
O17   O     O_R   0.738670 0.496020 0.588600 -0.529362
O18   O     O_R   0.467190 0.722540 0.578350 -0.510226
O19   O     O_R   0.254720 0.742640 0.577370 -0.519790
O20   O     O_3   0.650457 0.591204 0.177609 -0.549364
O21   O     O_R   0.491630 0.259030 0.574940 -0.524701
O22   O     O_R   0.718640 0.304340 0.577850 -0.509988
O23   O     O_3   0.500010 0.500010 0.500020 -0.245319
O24   O     O_R   0.186620 0.923750 0.087000 -0.543037
O25   O     O_R   0.957350 0.194160 0.084660 -0.505659
O26   O     O_R   0.935120 0.407280 0.085350 -0.491070
O27   O     O_R   0.203800 0.365060 0.067090 -0.533222

loop_
_geom_bond_atom_site_label_1
_geom_bond_atom_site_label_2
_ccdc_geom_bond_type
C66   C68   A    
Cr3   O22   S    
C69   H39   S    
C26   H6    S    
C23   C45   A    
C22   C29   A    
C40   O21   A    
Cr5   O11   S    
C41   C42   A    
C16   O16   A    
C28   O19   A    
C5    C67   A    
C8    C56   A    
C7    C8    A    
C39   C41   A    
C53   C54   A    
Cr4   O24   S    
C12   C68   A    
C26   C27   S    
C47   H21   S    
C49   C65   S    
C13   C18   S    
C55   H28   S    
C61   O3    A    
C3    C9    A    
C36   C37   S    
C1    O4    A    
C10   C15   A    
C30   C31   A    
C2    H36   S    
C63   O9    A    
C20   C25   A    
C69   O20   S    
C49   C54   A    
C25   H5    S    
C55   H26   S    
C43   H17   S    
C47   H22   S    
Cr1   O23   S    
Cr6   O10   S    
C64   C71   A    
C20   C61   S    
C27   H8    S    
C61   O24   A    
C24   C29   A    
C16   O1    A    
C17   H43   S    
C35   H10   S    
C24   H3    S    
Cr1   O18   S    
C11   C17   S    
Cr2   O14   S    
Cr5   O26   S    
C53   H24   S    
C18   H2    S    
Cr3   O15   S    
C52   O17   A    
C41   C46   S    
C70   C71   A    
C51   C57   S    
C32   C38   A    
C26   O20   S    
C43   C48   A    
C4    O15   A    
Cr1   O17   S    
C57   H29   S    
Cr3   O21   S    
C21   C22   A    
C27   H7    S    
C28   O18   A    
C12   C70   A    
C56   H33   S    
C65   O10   A    
C21   C26   S    
C50   C51   A    
Cr4   O25   S    
C23   C60   S    
Cr3   O16   S    
C69   H37   S    
C52   O22   A    
C37   H14   S    
C24   C25   A    
C3    C8    S    
C51   C58   A    
C13   C19   A    
Cr6   O9    S    
C36   H11   S    
Cr6   O11   S    
C6    H23   S    
C60   O2    A    
C43   C44   A    
Cr6   O2    S    
Cr5   O8    S    
C31   C32   A    
C14   H40   S    
C1    C29   S    
C17   C18   S    
C37   H16   S    
C34   C45   A    
C42   C48   A    
C32   C37   S    
C20   C21   A    
C6    C7    A    
C70   H35   S    
C4    O14   A    
C30   C35   A    
C57   H30   S    
C46   H20   S    
Cr2   O12   S    
C22   C27   S    
C55   C57   S    
C9    C34   A    
Cr5   O7    S    
C62   O7    A    
C1    O13   A    
Cr4   O11   S    
C36   H13   S    
C64   H27   S    
C39   C62   S    
Cr3   O23   S    
C46   C47   S    
C69   H38   S    
C68   H32   S    
Cr1   O1    S    
C14   C15   A    
C14   C19   A    
C54   H25   S    
C50   C55   S    
C66   H31   S    
C12   C45   S    
C53   C58   A    
C39   C44   A    
Cr2   O19   S    
C28   C58   S    
C56   C67   A    
C40   O12   A    
C33   C38   A    
C15   H41   S    
Cr1   O4    S    
Cr4   O5    S    
C65   O5    A    
C2    C3    A    
Cr6   O3    S    
C34   H1    S    
C38   C40   S    
C11   C13   A    
C5    C6    A    
C16   C19   S    
C67   H15   S    
C33   C35   A    
C7    H34   S    
C10   C59   S    
Cr4   O6    S    
C42   C47   S    
C63   O8    A    
C10   C11   A    
C17   H42   S    
C18   H44   S    
C59   O25   A    
C62   O6    A    
C48   C52   S    
C46   H19   S    
Cr2   O13   S    
Cr5   O27   S    
C49   C50   A    
C2    C23   A    
C44   H18   S    
C31   C36   S    
C60   O27   A    
C4    C9    S    
C30   C63   S    
C33   H9    S    
C5    H12   S    
C64   C66   A    
C71   H4    S    
Cr2   O23   S    
C59   O26   A    
