data_mof_unit_21303.cif
_audit_creation_date              2012-12-10T20:26:30-0500
_audit_creation_method            fapswitch 2.2
_symmetry_space_group_name_H-M    P1
_symmetry_Int_Tables_number       1
_space_group_crystal_system       triclinic
_cell_length_a                    10.747801
_cell_length_b                    10.681472
_cell_length_c                    9.864416
_cell_angle_alpha                 89.720895
_cell_angle_beta                  90.059425
_cell_angle_gamma                 90.135959
_cell_volume                      1132.44077435

loop_
_atom_site_label
_atom_site_type_symbol
_atom_type_description
_atom_site_fract_x
_atom_site_fract_y
_atom_site_fract_z
_atom_type_partial_charge
C1    C     C_R   0.504765 0.259877 0.500236 0.885049
C2    C     C_R   0.568946 0.584221 0.071636 -0.133085
C3    C     C_R   0.569027 0.584166 0.927618 -0.131001
C4    C     C_R   0.262680 0.504497 0.499991 0.933744
C5    C     C_R   0.439337 0.408092 0.929095 0.333962
C6    C     C_3   0.303925 0.378758 0.922922 -0.525278
C7    C     C_3   0.303970 0.378756 0.076768 -0.526162
C8    C     C_R   0.504118 0.740087 0.499614 0.884613
C9    C     C_R   0.737383 0.498888 0.499958 0.932662
C10   C     C_2   0.932442 0.525491 0.388649 -0.152348
C11   C     C_2   0.869086 0.492462 0.499604 -0.317798
C12   C     C_R   0.527117 0.128649 0.499814 -0.168588
C13   C     C_2   0.066375 0.518965 0.386371 -0.151969
C14   C     C_2   0.131584 0.521059 0.501367 -0.335807
C15   C     C_R   0.540977 0.062992 0.621378 0.142941
C16   C     C_R   0.539140 0.065426 0.376005 -0.185666
C17   C     C_R   0.538578 0.936031 0.375476 -0.210053
C18   C     C_R   0.525556 0.871344 0.498684 -0.107287
C19   C     C_R   0.538768 0.935154 0.620499 0.068714
C20   C     C_3   0.465359 0.926716 0.748714 -0.508967
C21   C     C_3   0.469206 0.068797 0.751070 0.216789
C22   C     C_R   0.439611 0.407770 0.071547 0.267155
Cl1   Cl    Cl    0.562878 0.127530 0.886202 -0.647250
H1    H     H_    0.885603 0.554458 0.295977 0.172317
H2    H     H_    0.089818 0.538310 0.599498 0.150059
H3    H     H_    0.539137 0.114641 0.279692 0.201948
H4    H     H_    0.538549 0.888001 0.278987 0.180462
H5    H     H_    0.370202 0.888477 0.732431 0.176048
H6    H     H_    0.518732 0.880784 0.831680 0.234764
H7    H     H_    0.376529 0.113717 0.740165 0.099458
H8    H     H_    0.622643 0.653760 0.125688 0.150052
H9    H     H_    0.622860 0.653603 0.872984 0.154150
H10   H     H_    0.248236 0.456178 0.878014 0.212928
H11   H     H_    0.285594 0.284870 0.879173 0.214827
H12   H     H_    0.248887 0.456720 0.119762 0.208305
H13   H     H_    0.285184 0.285048 0.121916 0.219017
H14   H     H_    0.912370 0.457379 0.591441 0.153363
H15   H     H_    0.110969 0.511669 0.288265 0.165528
N1    N     N_R   0.499170 0.499140 0.142800 -0.119913
N2    N     N_R   0.499170 0.499180 0.857150 -0.117716
O1    O     O_R   0.500020 0.316790 0.614690 -0.594931
O2    O     O_R   0.500000 0.316760 0.385350 -0.617928
O3    O     O_R   0.319080 0.500020 0.614640 -0.630774
O4    O     O_R   0.319070 0.499980 0.385300 -0.617644
O5    O     O_R   0.500000 0.683240 0.614650 -0.621765
O6    O     O_R   0.499980 0.683210 0.385310 -0.630967
O7    O     O_R   0.680930 0.500020 0.614700 -0.611094
O8    O     O_R   0.680920 0.499980 0.385360 -0.617063
Zn1   Zn    Zn3+2 0.500010 0.500020 0.653130 0.968747
Zn2   Zn    Zn3+2 0.499990 0.499980 0.346870 0.953453

loop_
_geom_bond_atom_site_label_1
_geom_bond_atom_site_label_2
_ccdc_geom_bond_type
C2    H8    S    
C6    H10   S    
C6    C7    S    
C4    O3    A    
C7    C22   S    
C20   H5    S    
C21   H7    S    
O6    Zn2   S    
C19   C20   S    
C12   C15   A    
O5    Zn1   S    
O8    Zn2   S    
C2    C3    A    
O7    Zn1   S    
C13   C14   D    
C15   C19   A    
C9    C11   S    
C13   H15   S    
C5    C6    S    
C1    C12   S    
O2    Zn2   S    
C22   N1    A    
C1    O1    A    
C3    N2    A    
C9    O7    A    
C20   H6    S    
C21   Cl1   S    
C14   H2    S    
C4    C14   S    
C3    H9    S    
C8    O6    A    
C10   C11   D    
O4    Zn2   S    
N2    Zn1   S    
C17   H4    S    
C12   C16   A    
C1    O2    A    
C15   C21   S    
N1    Zn2   S    
C20   C21   S    
C9    O8    A    
C17   C18   A    
C18   C19   A    
C7    H13   S    
C5    N2    A    
O1    Zn1   S    
C11   H14   S    
C8    O5    A    
O3    Zn1   S    
C4    O4    A    
C10   H1    S    
C7    H12   S    
C2    N1    A    
C10   C13   S    
C8    C18   S    
C5    C22   A    
C6    H11   S    
C16   C17   A    
C16   H3    S    
