data_mof_unit_28185.cif
_audit_creation_date              2012-10-26T19:44:40-0400
_audit_creation_method            fapswitch 2.2
_symmetry_space_group_name_H-M    P1
_symmetry_Int_Tables_number       1
_space_group_crystal_system       triclinic
_cell_length_a                    19.382756
_cell_length_b                    11.727217
_cell_length_c                    10.45069
_cell_angle_alpha                 89.999879
_cell_angle_beta                  89.999914
_cell_angle_gamma                 89.999984
_cell_volume                      2375.50230124

loop_
_atom_site_label
_atom_site_type_symbol
_atom_type_description
_atom_site_fract_x
_atom_site_fract_y
_atom_site_fract_z
_atom_type_partial_charge
C1    C     C_R   0.500000 0.283283 0.500000 0.609094
C2    C     C_1   0.500000 0.940283 0.500000 0.034446
C3    C     C_1   0.500000 0.500000 0.072011 0.158344
C4    C     C_1   0.500000 0.500000 0.927989 0.158333
C5    C     C_R   0.253616 0.567441 0.590078 0.193234
C6    C     C_R   0.746384 0.567437 0.409920 0.193236
C7    C     C_R   0.746384 0.432561 0.590079 0.193233
C8    C     C_R   0.253616 0.432559 0.409923 0.193235
C9    C     C_R   0.181616 0.552164 0.601733 0.115478
C10   C     C_R   0.818385 0.552160 0.398265 0.115478
C11   C     C_R   0.818384 0.447838 0.601735 0.115477
C12   C     C_R   0.500000 0.716717 0.500000 0.609094
C13   C     C_R   0.181616 0.447836 0.398268 0.115478
C14   C     C_R   0.145431 0.500000 0.500001 -0.085119
C15   C     C_R   0.854569 0.499999 0.500000 -0.085119
C16   C     C_R   0.290410 0.500000 0.500000 -0.056757
C17   C     C_R   0.709590 0.500000 0.500000 -0.056757
C18   C     C_R   0.930313 0.499999 0.500001 0.421918
C19   C     C_R   0.069687 0.500000 0.500001 0.421918
C20   C     C_R   0.366859 0.500000 0.500000 0.630112
C21   C     C_R   0.633141 0.500000 0.500000 0.630109
C22   C     C_1   0.500000 0.161917 0.500000 0.084177
C23   C     C_1   0.500000 0.838083 0.500000 0.084176
C24   C     C_1   0.500000 0.059717 0.500000 0.034447
Cu1   Cu    Cu3+1 0.500000 0.500000 0.625300 1.153139
Cu2   Cu    Cu3+1 0.500000 0.500000 0.374700 1.153158
H1    H     H_    0.363855 0.682698 0.842048 0.367335
H2    H     H_    0.636159 0.682697 0.157925 0.367338
H3    H     H_    0.636140 0.317311 0.842047 0.367332
H4    H     H_    0.363851 0.317298 0.157947 0.367336
H5    H     H_    0.113270 0.746881 0.646352 0.355616
H6    H     H_    0.886730 0.746875 0.353635 0.355616
H7    H     H_    0.886729 0.253122 0.646363 0.355616
H8    H     H_    0.113271 0.253118 0.353648 0.355617
N1    N     N_1   0.500000 0.500000 0.186410 -0.169884
N2    N     N_1   0.500000 0.500000 0.813590 -0.169895
N3    N     N_R   0.034305 0.599744 0.499955 -0.147400
N4    N     N_R   0.965695 0.400256 0.499962 -0.147398
N5    N     N_R   0.965694 0.599743 0.500039 -0.147400
N6    N     N_R   0.034306 0.400256 0.500046 -0.147397
O1    O     O_R   0.500000 0.337200 0.605810 -0.485912
O2    O     O_2   0.246916 0.769705 0.717697 -0.187417
O3    O     O_3   0.333771 0.621495 0.808086 -0.452553
O4    O     O_2   0.649276 0.731675 0.405450 -0.312108
O5    O     O_2   0.753085 0.769697 0.282291 -0.187430
O6    O     O_3   0.666230 0.621485 0.191909 -0.452555
O7    O     O_2   0.649276 0.268324 0.594545 -0.312121
O8    O     O_2   0.753084 0.230300 0.717704 -0.187417
O9    O     O_3   0.666229 0.378511 0.808089 -0.452551
O10   O     O_2   0.350724 0.268323 0.405461 -0.312116
O11   O     O_2   0.246916 0.230295 0.282304 -0.187423
O12   O     O_R   0.500000 0.662800 0.394190 -0.485905
O13   O     O_3   0.333771 0.378505 0.191915 -0.452555
O14   O     O_2   0.080663 0.504513 0.771984 -0.156654
O15   O     O_2   0.185753 0.587937 0.858170 -0.107364
O16   O     O_3   0.101682 0.719795 0.733474 -0.388388
O17   O     O_2   0.919337 0.504501 0.228018 -0.156654
O18   O     O_2   0.814247 0.587923 0.141826 -0.107367
O19   O     O_3   0.898319 0.719785 0.266516 -0.388387
O20   O     O_2   0.919336 0.495496 0.771984 -0.156654
O21   O     O_2   0.814245 0.412071 0.858173 -0.107361
O22   O     O_3   0.898318 0.280212 0.733482 -0.388388
O23   O     O_R   0.500000 0.662800 0.605810 -0.485912
O24   O     O_2   0.080663 0.495489 0.228017 -0.156653
O25   O     O_2   0.185754 0.412062 0.141831 -0.107366
O26   O     O_3   0.101681 0.280206 0.266528 -0.388389
O27   O     O_R   0.500000 0.337200 0.394190 -0.485910
O28   O     O_R   0.400140 0.500000 0.605850 -0.450969
O29   O     O_R   0.599860 0.500000 0.394150 -0.450961
O30   O     O_R   0.599860 0.500000 0.605850 -0.450973
O31   O     O_R   0.400140 0.500000 0.394150 -0.450968
O32   O     O_2   0.350724 0.731677 0.594539 -0.312119
S1    S     S_3+6 0.296388 0.677903 0.677350 0.091200
S2    S     S_3+6 0.703612 0.677897 0.322642 0.091198
S3    S     S_3+6 0.703612 0.322100 0.677355 0.091200
S4    S     S_3+6 0.296388 0.322097 0.322651 0.091198
S5    S     S_3+6 0.137157 0.589228 0.746154 0.176178
S6    S     S_3+6 0.862843 0.589218 0.253843 0.176177
S7    S     S_3+6 0.862842 0.410778 0.746157 0.176178
S8    S     S_3+6 0.137157 0.410772 0.253847 0.176178

loop_
_geom_bond_atom_site_label_1
_geom_bond_atom_site_label_2
_ccdc_geom_bond_type
O3    S1    S    
C15   C18   S    
C4    N2    T    
O20   S7    D    
C8    C13   A    
C18   N5    A    
H8    O26   S    
C10   S6    S    
H3    O9    S    
C7    C11   A    
C12   C23   S    
H2    O6    S    
Cu2   O27   S    
Cu2   O12   S    
C10   C15   A    
O15   S5    D    
C8    S4    S    
Cu1   O23   S    
C5    C16   A    
C19   N3    A    
C11   C15   A    
H7    O22   S    
C7    C17   A    
O9    S3    S    
C20   O31   A    
H5    O16   S    
O14   S5    D    
C13   S8    S    
C1    C22   S    
C8    C16   A    
O25   S8    D    
C13   C14   A    
Cu2   O31   S    
O24   S8    D    
O8    S3    D    
Cu1   O28   S    
O17   S6    D    
O19   S6    S    
C12   O12   A    
C6    S2    S    
H4    O13   S    
O22   S7    S    
O11   S4    D    
Cu1   O1    S    
C12   O23   A    
C7    S3    S    
Cu1   Cu2   S    
C17   C21   S    
O16   S5    S    
C21   O29   A    
O5    S2    D    
C9    C14   A    
C5    C9    A    
O10   S4    D    
C3    N1    T    
C16   C20   S    
C9    S5    S    
O4    S2    D    
C11   S7    S    
C1    O1    A    
C2    C24   S    
C22   C24   T    
O13   S4    S    
C3    C4    S    
O6    S2    S    
C6    C17   A    
O2    S1    D    
C14   C19   S    
C20   O28   A    
O32   S1    D    
C6    C10   A    
O26   S8    S    
C21   O30   A    
C18   N4    A    
O7    S3    D    
N3    N5    A    
N4    N6    A    
O21   S7    D    
C1    O27   A    
C5    S1    S    
C19   N6    A    
O18   S6    D    
Cu1   N2    S    
H1    O3    S    
Cu2   N1    S    
C2    C23   T    
Cu2   O29   S    
Cu1   O30   S    
H6    O19   S    
