data_mof_unit_55977.cif
_audit_creation_date              2012-12-11T17:41:36-0500
_audit_creation_method            fapswitch 2.2
_symmetry_space_group_name_H-M    P1
_symmetry_Int_Tables_number       1
_space_group_crystal_system       triclinic
_cell_length_a                    15.528297
_cell_length_b                    14.841445
_cell_length_c                    14.878322
_cell_angle_alpha                 109.665141
_cell_angle_beta                  121.433001
_cell_angle_gamma                 59.297318
_cell_volume                      2504.04421951

loop_
_atom_site_label
_atom_site_type_symbol
_atom_type_description
_atom_site_fract_x
_atom_site_fract_y
_atom_site_fract_z
_atom_type_partial_charge
C1    C     C_R   0.749219 0.997906 0.792089 -0.116107
C2    C     C_R   0.154799 0.221608 0.978921 -0.109936
C3    C     C_R   0.679719 0.671919 0.845267 -0.157022
C4    C     C_R   0.260526 0.144674 0.990194 -0.160251
C5    C     C_R   0.691649 0.739865 0.939560 0.123367
C6    C     C_R   0.280205 0.037762 0.964776 0.092954
C7    C     C_R   0.799289 0.724495 0.019737 -0.172171
C8    C     C_R   0.192606 0.009033 0.924987 -0.153661
C9    C     C_R   0.892384 0.642961 0.005555 -0.120268
C10   C     C_R   0.086957 0.086150 0.912622 -0.126175
C11   C     C_R   0.879339 0.576821 0.911356 -0.088777
C12   C     C_R   0.195451 0.064880 0.227486 -0.130894
C13   C     C_R   0.067988 0.192396 0.939999 -0.099529
C14   C     C_R   0.586908 0.846008 0.050797 -0.231466
C15   C     C_R   0.393198 0.927475 0.872406 -0.223634
C16   C     C_R   0.244104 0.290779 0.491394 -0.118969
C17   C     C_R   0.801584 0.726332 0.561436 -0.128197
C18   C     C_R   0.488924 0.920692 0.061759 0.070259
C19   C     C_R   0.495004 0.880800 0.868639 0.040712
C20   C     C_R   0.388963 0.956874 0.968714 0.032317
C21   C     C_R   0.591182 0.824625 0.953508 0.030734
C22   C     C_2   0.151494 0.397870 0.615845 -0.207057
C23   C     C_R   0.212605 0.300026 0.567269 0.148102
C24   C     C_2   0.978810 0.654858 0.540761 -0.224493
C25   C     C_2   0.134432 0.490742 0.601323 -0.106947
C26   C     C_2   0.039591 0.584165 0.611161 -0.099833
C27   C     C_2   0.827251 0.135096 0.901474 -0.224821
C28   C     C_2   0.012437 0.054624 0.161266 -0.223090
C29   C     C_R   0.091404 0.741057 0.246047 -0.133479
C30   C     C_R   0.812164 0.123469 0.354159 -0.108450
C31   C     C_R   0.197291 0.667295 0.302233 -0.213492
C32   C     C_R   0.712104 0.209857 0.346374 -0.171709
C33   C     C_R   0.284866 0.635640 0.276586 -0.068150
C34   C     C_R   0.863797 0.727205 0.521149 0.153481
C35   C     C_R   0.708589 0.289721 0.430403 -0.067306
C36   C     C_R   0.263852 0.679645 0.191859 0.538294
C37   C     C_R   0.808227 0.280701 0.524543 0.514943
C38   C     C_R   0.156871 0.753930 0.136805 -0.127280
C39   C     C_R   0.908036 0.194143 0.530043 -0.143770
C40   C     C_R   0.593135 0.215853 0.486638 -0.137689
C41   C     C_R   0.405315 0.769150 0.443430 -0.122533
C42   C     C_R   0.071013 0.783487 0.162870 -0.232775
C43   C     C_R   0.910064 0.115995 0.445515 -0.206118
C44   C     C_R   0.400814 0.458216 0.337115 -0.232191
C45   C     C_R   0.502617 0.297770 0.427927 0.062703
C46   C     C_R   0.595987 0.481113 0.419774 -0.245827
C47   C     C_R   0.502803 0.376692 0.388574 0.061485
C48   C     C_R   0.494392 0.570212 0.395715 0.047477
C49   C     C_R   0.601374 0.383009 0.414766 0.036285
C50   C     C_R   0.395249 0.554843 0.337216 0.037260
C51   C     C_2   0.854649 0.111652 0.994838 -0.099441
C52   C     C_2   0.952907 0.121255 0.086961 -0.106078
C53   C     C_R   0.408053 0.979563 0.711490 -0.127088
C54   C     C_R   0.589866 0.951324 0.264958 -0.121147
C55   C     C_R   0.409775 0.288823 0.409609 -0.136902
C56   C     C_R   0.495884 0.674094 0.445940 0.082056
C57   C     C_R   0.590167 0.693843 0.515759 -0.133154
C58   C     C_R   0.591341 0.907617 0.788339 -0.148976
C59   C     C_R   0.405099 0.020934 0.193511 -0.127315
C60   C     C_R   0.243228 0.199129 0.583717 -0.143878
C61   C     C_R   0.801545 0.816634 0.468681 -0.154508
C62   C     C_R   0.749694 0.091044 0.701534 -0.150180
C63   C     C_R   0.194935 0.972924 0.317433 -0.135659
C64   C     C_R   0.775507 0.078315 0.802370 0.141767
C65   C     C_R   0.130739 0.028450 0.229688 0.158026
C66   C     C_R   0.499286 0.919885 0.792987 0.065019
C67   C     C_R   0.494639 0.961205 0.168933 0.052809
C68   C     C_R   0.773090 0.591514 0.831169 -0.111571
H1    H     H_    0.758279 0.966643 0.853773 0.090341
H2    H     H_    0.326931 0.167997 0.018598 0.119244
H3    H     H_    0.811559 0.775864 0.092721 0.100038
H4    H     H_    0.206025 0.927125 0.902485 0.127293
H5    H     H_    0.974879 0.630774 0.067569 0.132010
H6    H     H_    0.020069 0.062874 0.880571 0.124536
H7    H     H_    0.660418 0.806707 0.118268 0.123362
H8    H     H_    0.316403 0.958747 0.803569 0.124433
H9    H     H_    0.009333 0.584862 0.662788 0.130099
H10   H     H_    0.175721 0.495458 0.563601 0.126370
H11   H     H_    0.009944 0.652652 0.489011 0.128320
H12   H     H_    0.167215 0.123726 0.179491 0.095495
H13   H     H_    0.108883 0.394095 0.652859 0.139475
H14   H     H_    0.988075 0.838500 0.117676 0.129317
H15   H     H_    0.987660 0.049277 0.451058 0.127137
H16   H     H_    0.231797 0.352942 0.457938 0.089740
H17   H     H_    0.829578 0.676076 0.618124 0.089594
H18   H     H_    0.024650 0.764426 0.266199 0.116677
H19   H     H_    0.813946 0.062651 0.288842 0.113228
H20   H     H_    0.211357 0.635004 0.366447 0.133553
H21   H     H_    0.637214 0.215217 0.274083 0.135206
H22   H     H_    0.139700 0.787699 0.071995 0.143034
H23   H     H_    0.976721 0.010005 0.164736 0.129280
H24   H     H_    0.984430 0.186741 0.601035 0.136000
H25   H     H_    0.324091 0.449538 0.301065 0.124101
H26   H     H_    0.672338 0.487836 0.447414 0.147158
H27   H     H_    0.679187 0.189485 0.507057 0.109607
H28   H     H_    0.318672 0.785944 0.402378 0.115340
H29   H     H_    0.322590 0.993515 0.680931 0.083736
H30   H     H_    0.675341 0.909849 0.276902 0.090220
H31   H     H_    0.324721 0.330671 0.355801 0.085270
H32   H     H_    0.675795 0.638177 0.539527 0.103755
H33   H     H_    0.676911 0.857461 0.832927 0.112919
H34   H     H_    0.858044 0.184575 0.898263 0.128465
H35   H     H_    0.319246 0.038686 0.143622 0.128867
H36   H     H_    0.230894 0.177567 0.637316 0.103147
H37   H     H_    0.831387 0.849001 0.441186 0.092999
H38   H     H_    0.759526 0.147529 0.681245 0.111440
H39   H     H_    0.164439 0.947795 0.351203 0.097707
H40   H     H_    0.986718 0.167577 0.083189 0.130831
H41   H     H_    0.821901 0.064527 0.999029 0.123827
H42   H     H_    0.409469 0.588795 0.192167 0.320564
H43   H     H_    0.735532 0.397098 0.607013 0.307118
H44   H     H_    0.951589 0.514052 0.900596 0.112373
H45   H     H_    0.985993 0.252249 0.930223 0.108420
H46   H     H_    0.762966 0.540325 0.758172 0.139025
H47   H     H_    0.139855 0.303884 0.999236 0.109208
H48   H     H_    0.598039 0.681130 0.782476 0.119364
N1    N     N_R   0.705410 0.966550 0.689210 -0.045849
N2    N     N_R   0.556610 0.796750 0.548620 -0.040468
N3    N     N_R   0.556610 0.951620 0.703500 -0.040062
N4    N     N_R   0.443390 0.048380 0.296500 -0.043352
N5    N     N_R   0.294590 0.131500 0.522480 -0.044180
N6    N     N_R   0.705410 0.868500 0.477520 -0.038399
N7    N     N_R   0.705410 0.023370 0.632390 -0.042972
N8    N     N_R   0.294590 0.976630 0.367610 -0.040578
N9    N     N_R   0.294590 0.033450 0.310790 -0.043350
N10   N     N_R   0.294590 0.188320 0.465660 -0.045845
N11   N     N_R   0.705410 0.811680 0.534340 -0.042371
N12   N     N_R   0.556610 0.157790 0.497330 -0.040013
N13   N     N_R   0.443390 0.842210 0.502670 -0.044799
N14   N     N_R   0.443390 0.997080 0.657540 -0.039324
N15   N     N_R   0.556610 0.002920 0.342460 -0.038110
N16   N     N_R   0.443390 0.203250 0.451380 -0.039163
Ni1   Ni    Ni4+2 0.629830 0.882720 0.617850 0.216470
Ni2   Ni    Ni4+2 0.370170 0.117280 0.382150 0.213124
Ni3   Ni    Ni4+2 0.629830 0.013030 0.487540 0.218885
Ni4   Ni    Ni4+2 0.370170 0.986970 0.512460 0.210445
O1    O     O_3   0.343103 0.651572 0.158540 -0.764812
O2    O     O_3   0.811790 0.352282 0.612969 -0.794605

loop_
_geom_bond_atom_site_label_1
_geom_bond_atom_site_label_2
_ccdc_geom_bond_type
N9    Ni2   S    
C41   N13   A    
C63   C65   A    
C59   N4    A    
C45   C55   A    
C29   C42   A    
N4    N15   A    
C43   H15   S    
C14   C18   A    
C3    C68   A    
C42   H14   S    
N1    Ni1   S    
C33   C36   A    
C4    H2    S    
C63   N8    A    
C47   C49   A    
C15   C19   A    
C54   N15   A    
C46   C49   A    
N3    Ni1   S    
C17   H17   S    
C14   C21   A    
C35   C37   A    
C24   C26   D    
C38   C42   A    
N15   Ni3   S    
C3    H48   S    
C7    H3    S    
C41   H28   S    
C40   N12   A    
C16   H16   S    
N3    N14   A    
C56   C57   A    
C19   C66   S    
C48   C56   S    
N6    N11   A    
C2    C13   A    
C62   C64   A    
C44   H25   S    
C59   C67   A    
C58   C66   A    
C22   C25   D    
C35   C49   S    
C31   C33   A    
C10   H6    S    
C61   H37   S    
C36   O1    S    
N4    Ni2   S    
C44   C47   A    
C48   C50   A    
C15   H8    S    
C51   H41   S    
C23   C60   A    
C9    H5    S    
N12   N16   A    
C62   N7    A    
C25   C26   S    
C27   C51   D    
C45   C47   S    
C15   C20   A    
C37   C39   A    
C46   C48   A    
C8    H4    S    
C26   H9    S    
N8    Ni4   S    
C25   H10   S    
C22   H13   S    
C4    C6    A    
N12   Ni3   S    
C5    C7    A    
C17   N11   A    
C39   C43   A    
C12   N9    A    
C53   H29   S    
C33   C50   S    
C57   H32   S    
C34   C61   A    
C24   C34   S    
C51   C52   S    
N7    Ni3   S    
C61   N6    A    
C2    C4    A    
C32   C35   A    
C41   C56   A    
N13   Ni4   S    
C2    H47   S    
C24   H11   S    
C32   H21   S    
C46   H26   S    
C58   H33   S    
C1    N1    A    
C53   C66   A    
C9    C11   A    
C52   H40   S    
C29   H18   S    
N2    Ni1   S    
C62   H38   S    
N16   Ni2   S    
C16   C23   A    
C37   O2    S    
C30   C43   A    
C17   C34   A    
C40   H27   S    
C63   H39   S    
C1    C64   A    
C39   H24   S    
C11   C68   A    
C44   C50   A    
C7    C9    A    
C31   H20   S    
C19   C21   A    
C11   H44   S    
H42   O1    S    
N14   Ni4   S    
N11   Ni1   S    
C3    C5    A    
C10   C13   A    
C6    C8    A    
C54   C67   A    
C6    C20   S    
C12   C65   A    
C38   H22   S    
C27   H34   S    
C59   H35   S    
C14   H7    S    
C36   C38   A    
C28   C65   S    
C18   C67   S    
N5    N10   A    
C29   C31   A    
N2    N13   A    
C30   C32   A    
C28   C52   D    
C12   H12   S    
C58   N3    A    
C28   H23   S    
C18   C20   A    
N5    Ni4   S    
N1    N7    A    
C60   N5    A    
C1    H1    S    
N6    Ni3   S    
C27   C64   S    
C5    C21   S    
C40   C45   A    
N10   Ni2   S    
C8    C10   A    
C55   N16   A    
C55   H31   S    
C22   C23   S    
C54   H30   S    
C53   N14   A    
C30   H19   S    
C60   H36   S    
C16   N10   A    
N8    N9    A    
C13   H45   S    
H43   O2    S    
C68   H46   S    
C57   N2    A    
