data_mof_unit_23172.cif
_audit_creation_date              2012-12-11T15:39:37-0500
_audit_creation_method            fapswitch 2.2
_symmetry_space_group_name_H-M    P1
_symmetry_Int_Tables_number       1
_space_group_crystal_system       triclinic
_cell_length_a                    17.398677
_cell_length_b                    24.291632
_cell_length_c                    15.133616
_cell_angle_alpha                 90.029032
_cell_angle_beta                  126.053224
_cell_angle_gamma                 90.065579
_cell_volume                      5171.05467911

loop_
_atom_site_label
_atom_site_type_symbol
_atom_type_description
_atom_site_fract_x
_atom_site_fract_y
_atom_site_fract_z
_atom_type_partial_charge
C1    C     C_R   0.309410 0.375949 0.906773 -0.114051
C2    C     C_R   0.681046 0.365164 0.091926 -0.129406
C3    C     C_R   0.816370 0.867580 0.909110 -0.131184
C4    C     C_R   0.150481 0.848785 0.092080 -0.112249
C5    C     C_R   0.312372 0.638455 0.999334 -0.139822
C6    C     C_R   0.613761 0.685317 0.000692 -0.109076
C7    C     C_R   0.888273 0.185365 0.000773 -0.122012
C8    C     C_R   0.119482 0.184088 0.000554 -0.137268
C9    C     C_R   0.552513 0.500973 0.356859 0.305506
C10   C     C_R   0.525452 0.501753 0.702498 0.312406
C11   C     C_R   0.043793 0.000395 0.352361 0.314515
C12   C     C_R   0.039449 0.999120 0.716535 0.286822
C13   C     C_R   0.199316 0.500680 0.631730 0.022970
C14   C     C_R   0.826925 0.501806 0.285779 0.042648
C15   C     C_R   0.673249 0.001810 0.714612 0.039269
C16   C     C_R   0.303021 0.001041 0.366041 0.035818
C17   C     C_R   0.073788 0.552833 0.468889 0.150167
C18   C     C_R   0.979080 0.553174 0.381782 0.145400
C19   C     C_R   0.521686 0.053401 0.618631 0.144440
C20   C     C_R   0.427462 0.053117 0.530321 0.199722
C21   C     C_R   0.120322 0.502835 0.516162 0.054081
C22   C     C_R   0.929159 0.503546 0.340305 0.046147
C23   C     C_R   0.571124 0.003701 0.659978 0.040305
C24   C     C_R   0.381232 0.003139 0.481825 0.057574
C25   C     C_R   0.077853 0.454214 0.455700 -0.170196
C26   C     C_R   0.981751 0.454614 0.367026 -0.179876
C27   C     C_R   0.518120 0.954805 0.632183 -0.177492
C28   C     C_R   0.422552 0.954478 0.542283 -0.173490
C29   C     C_3   0.959496 0.603364 0.423051 -0.502328
C30   C     C_3   0.063010 0.603039 0.518368 -0.460268
C31   C     C_3   0.439282 0.103634 0.482548 -0.494295
C32   C     C_3   0.542333 0.103882 0.579026 -0.494070
C33   C     C_R   0.155485 0.685221 0.903999 -0.108854
C34   C     C_R   0.707142 0.769350 0.098125 -0.131804
C35   C     C_R   0.795411 0.269249 0.904809 -0.128916
C36   C     C_R   0.206888 0.270818 0.095572 -0.130477
C37   C     C_R   0.738832 0.308832 0.905132 -0.140361
C38   C     C_R   0.253540 0.316626 0.094094 -0.187265
C39   C     C_R   0.108539 0.731085 0.904491 -0.187820
C40   C     C_R   0.760011 0.811539 0.097593 -0.167224
C41   C     C_R   0.752244 0.321978 0.003391 0.136022
C42   C     C_R   0.237010 0.333203 0.995607 0.142876
C43   C     C_R   0.145596 0.759222 0.002832 0.132123
C44   C     C_R   0.743688 0.827149 0.998865 0.139633
C45   C     C_R   0.402187 0.624466 0.090891 -0.183864
C46   C     C_R   0.555309 0.652494 0.909691 -0.253536
C47   C     C_R   0.945296 0.152213 0.091267 -0.217243
C48   C     C_R   0.057842 0.151765 0.909533 -0.189817
C49   C     C_R   0.835495 0.305327 0.102730 -0.170013
C50   C     C_R   0.158608 0.311852 0.896896 -0.154222
C51   C     C_R   0.216987 0.734548 0.101900 -0.170982
C52   C     C_R   0.660727 0.809649 0.899879 -0.166896
C53   C     C_R   0.263893 0.688915 0.101227 -0.109475
C54   C     C_R   0.607563 0.767474 0.900362 -0.145225
C55   C     C_R   0.892338 0.265880 0.102365 -0.140968
C56   C     C_R   0.111741 0.266190 0.898238 -0.119575
C57   C     C_R   0.240449 0.668365 0.001461 0.153077
C58   C     C_R   0.637903 0.742854 0.999837 0.161026
C59   C     C_R   0.864538 0.242672 0.002714 0.157816
C60   C     C_R   0.142746 0.241914 0.998308 0.162243
C61   C     C_R   0.477170 0.536595 0.528644 0.590838
C62   C     C_R   0.484171 0.536322 0.443681 0.590297
C63   C     C_R   0.114870 0.030194 0.630785 0.609216
C64   C     C_R   0.115201 0.031222 0.539640 0.585505
C65   C     C_R   0.552853 0.503156 0.450012 -0.559441
C66   C     C_R   0.539089 0.503845 0.619712 -0.563497
C67   C     C_R   0.048761 0.999123 0.448983 -0.560424
C68   C     C_R   0.048152 0.997154 0.628973 -0.555670
C69   C     C_R   0.615253 0.470411 0.540921 0.601407
C70   C     C_R   0.608250 0.470765 0.627015 0.597101
C71   C     C_R   0.982634 0.966104 0.447817 0.600640
C72   C     C_R   0.981708 0.965375 0.537288 0.588739
C73   C     C_R   0.542718 0.454506 0.299676 -0.119845
C74   C     C_R   0.500321 0.454964 0.731284 -0.091994
C75   C     C_R   0.039287 0.954302 0.297258 -0.073014
C76   C     C_R   0.016615 0.953340 0.750276 -0.037787
C77   C     C_R   0.248491 0.545724 0.695291 -0.014811
C78   C     C_R   0.767860 0.546928 0.250209 -0.124589
C79   C     C_R   0.732462 0.046905 0.750554 -0.116205
C80   C     C_R   0.253874 0.046236 0.302642 -0.087932
C81   C     C_R   0.544374 0.546356 0.299139 -0.031350
C82   C     C_R   0.508300 0.547330 0.741674 -0.052364
C83   C     C_R   0.036139 0.046488 0.295431 -0.083978
C84   C     C_R   0.013246 0.045864 0.745062 -0.069399
C85   C     C_R   0.245050 0.454620 0.695324 -0.132664
C86   C     C_R   0.771423 0.455390 0.262928 -0.087667
C87   C     C_R   0.728424 0.955409 0.736608 -0.088754
C88   C     C_R   0.256348 0.954669 0.303129 -0.113197
C89   C     C_R   0.310987 0.625954 0.908439 0.707606
C90   C     C_R   0.644697 0.652854 0.090994 0.671154
C91   C     C_R   0.856420 0.153063 0.909842 0.664180
C92   C     C_R   0.149555 0.151730 0.091228 0.704154
C93   C     C_R   0.401252 0.375535 0.089972 -0.107335
C94   C     C_R   0.590901 0.366477 0.909643 -0.092353
C95   C     C_R   0.904961 0.872280 0.091485 -0.107965
C96   C     C_R   0.058107 0.848075 0.909905 -0.141185
C97   C     C_R   0.310977 0.362878 0.997274 0.046866
C98   C     C_R   0.677708 0.349909 0.001741 0.051853
C99   C     C_R   0.817803 0.855506 0.999667 0.050506
C100  C     C_R   0.120612 0.816678 0.001589 0.058483
H1    H     H_    0.251279 0.371273 0.821610 0.099178
H2    H     H_    0.731367 0.351630 0.174628 0.091510
H3    H     H_    0.765335 0.853359 0.826992 0.090640
H4    H     H_    0.189479 0.835641 0.176176 0.088716
H5    H     H_    0.939761 0.639455 0.368470 0.212186
H6    H     H_    0.073752 0.594853 0.597251 0.230569
H7    H     H_    0.429641 0.095845 0.404143 0.211041
H8    H     H_    0.561566 0.139794 0.634019 0.213977
H9    H     H_    0.912020 0.595284 0.448274 0.217151
H10   H     H_    0.102799 0.638975 0.518676 0.214424
H11   H     H_    0.399197 0.139376 0.482111 0.223505
H12   H     H_    0.590592 0.096141 0.554805 0.217914
H13   H     H_    0.129187 0.666636 0.826246 0.190489
H14   H     H_    0.728599 0.754672 0.176684 0.206505
H15   H     H_    0.776924 0.256183 0.826515 0.206401
H16   H     H_    0.228112 0.256283 0.174142 0.199423
H17   H     H_    0.680360 0.325178 0.827468 0.156208
H18   H     H_    0.308798 0.335090 0.171376 0.125343
H19   H     H_    0.048781 0.746661 0.826896 0.127604
H20   H     H_    0.818856 0.827593 0.175438 0.158309
H21   H     H_    0.852925 0.318732 0.180682 0.109659
H22   H     H_    0.139381 0.326108 0.818684 0.117796
H23   H     H_    0.243639 0.753035 0.179978 0.121690
H24   H     H_    0.641375 0.824469 0.821896 0.108412
H25   H     H_    0.324292 0.674123 0.179071 0.154067
H26   H     H_    0.549800 0.750840 0.822489 0.120899
H27   H     H_    0.950490 0.249558 0.180186 0.123315
H28   H     H_    0.058166 0.247426 0.820660 0.125952
H29   H     H_    0.429858 0.629323 0.175404 0.162988
H30   H     H_    0.508881 0.665762 0.825662 0.145220
H31   H     H_    0.991226 0.164857 0.175822 0.152338
H32   H     H_    0.011108 0.165139 0.825618 0.156671
H33   H     H_    0.554479 0.412344 0.327674 0.141746
H34   H     H_    0.492457 0.414082 0.699200 0.111328
H35   H     H_    0.054223 0.912355 0.326788 0.109911
H36   H     H_    0.023019 0.910617 0.735590 0.135417
H37   H     H_    0.245007 0.586840 0.666115 0.159379
H38   H     H_    0.786067 0.589437 0.252006 0.156719
H39   H     H_    0.714692 0.089386 0.749613 0.155795
H40   H     H_    0.259444 0.087891 0.330600 0.174108
H41   H     H_    0.558792 0.588664 0.326890 0.122699
H42   H     H_    0.514055 0.590198 0.727175 0.134778
H43   H     H_    0.045038 0.089063 0.320782 0.138524
H44   H     H_    0.016127 0.088166 0.724990 0.130334
H45   H     H_    0.234544 0.412556 0.667052 0.097748
H46   H     H_    0.797045 0.414249 0.290194 0.091653
H47   H     H_    0.702515 0.914337 0.708233 0.091298
H48   H     H_    0.267364 0.912533 0.330956 0.091228
H49   H     H_    0.428253 0.369680 0.174144 0.095799
H50   H     H_    0.560130 0.355318 0.826426 0.093950
H51   H     H_    0.932420 0.867229 0.175925 0.118853
H52   H     H_    0.012014 0.834002 0.826277 0.105400
H53   H     H_    0.113824 0.415002 0.484333 0.128300
H54   H     H_    0.947085 0.415752 0.329732 0.125090
H55   H     H_    0.552317 0.915919 0.669448 0.124165
H56   H     H_    0.386390 0.915280 0.512972 0.126558
N1    N     N_R   0.394180 0.396910 0.943210 -0.044628
N2    N     N_R   0.605820 0.396910 0.056790 -0.042367
N3    N     N_R   0.894180 0.896910 0.943210 -0.041573
N4    N     N_R   0.105820 0.896910 0.056790 -0.042919
N5    N     N_R   0.450950 0.603070 0.056740 -0.074141
N6    N     N_R   0.549050 0.603070 0.943260 -0.076483
N7    N     N_R   0.950950 0.103070 0.056740 -0.076008
N8    N     N_R   0.049050 0.103070 0.943260 -0.078693
N9    N     N_R   0.525650 0.471570 0.206150 -0.067451
N10   N     N_R   0.474350 0.471570 0.793850 -0.067332
N11   N     N_R   0.025650 0.971570 0.206150 -0.067224
N12   N     N_R   0.974350 0.971570 0.793850 -0.063556
N13   N     N_R   0.319480 0.528420 0.793810 -0.053195
N14   N     N_R   0.680520 0.528420 0.206190 -0.041297
N15   N     N_R   0.819480 0.028420 0.793810 -0.037245
N16   N     N_R   0.180520 0.028420 0.206190 -0.046849
N17   N     N_R   0.525640 0.528390 0.206120 -0.063046
N18   N     N_R   0.474360 0.528390 0.793880 -0.065266
N19   N     N_R   0.025640 0.028390 0.206120 -0.062010
N20   N     N_R   0.974360 0.028390 0.793880 -0.061668
N21   N     N_R   0.319490 0.471590 0.793840 -0.050302
N22   N     N_R   0.680510 0.471590 0.206160 -0.045762
N23   N     N_R   0.819490 0.971590 0.793840 -0.042816
N24   N     N_R   0.180510 0.971590 0.206160 -0.048100
N25   N     N_R   0.394130 0.603080 0.943110 -0.107017
N26   N     N_R   0.605870 0.603080 0.056890 -0.100608
N27   N     N_R   0.894130 0.103080 0.943110 -0.103754
N28   N     N_R   0.105870 0.103080 0.056890 -0.103579
N29   N     N_R   0.450990 0.396900 0.056840 -0.044698
N30   N     N_R   0.549010 0.396900 0.943160 -0.046056
N31   N     N_R   0.950990 0.896900 0.056840 -0.047439
N32   N     N_R   0.049010 0.896900 0.943160 -0.047922
Ni1   Ni    Ni4+2 0.434860 0.434850 0.869700 0.214000
Ni2   Ni    Ni4+2 0.565140 0.434850 0.130300 0.229813
Ni3   Ni    Ni4+2 0.934860 0.934850 0.869700 0.237470
Ni4   Ni    Ni4+2 0.065140 0.934850 0.130300 0.206160
Ni5   Ni    Ni4+2 0.565130 0.565140 0.130240 0.267980
Ni6   Ni    Ni4+2 0.434870 0.565140 0.869760 0.238535
Ni7   Ni    Ni4+2 0.065130 0.065140 0.130240 0.251720
Ni8   Ni    Ni4+2 0.934870 0.065140 0.869760 0.268058
F1    F     F_    0.406154 0.566036 0.518991 -0.657827
F2    F     F_    0.420059 0.565740 0.352495 -0.664733
F3    F     F_    0.177981 0.061369 0.719535 -0.641118
F4    F     F_    0.179608 0.062817 0.539542 -0.654342
F5    F     F_    0.681540 0.438499 0.545465 -0.647056
F6    F     F_    0.667327 0.438965 0.716242 -0.654929
F7    F     F_    0.915504 0.936932 0.357614 -0.653842
F8    F     F_    0.911944 0.936335 0.531340 -0.647230
F9    F     F_    0.241986 0.638193 0.802798 -0.762791
F10   F     F_    0.681261 0.671051 0.193260 -0.742796
F11   F     F_    0.819626 0.171403 0.807677 -0.746363
F12   F     F_    0.194085 0.169160 0.195576 -0.756697

loop_
_geom_bond_atom_site_label_1
_geom_bond_atom_site_label_2
_ccdc_geom_bond_type
N2    N30   A    
C70   F6    S    
C79   H39   S    
C45   H29   S    
C77   H37   S    
C83   N19   A    
C51   H23   S    
C96   N32   A    
C93   H49   S    
C19   C20   A    
C50   H22   S    
C86   N22   A    
C82   H42   S    
N15   N23   A    
C52   H24   S    
C76   H36   S    
C95   N31   A    
N29   Ni2   S    
C30   H10   S    
C65   C69   A    
C69   F5    S    
N11   Ni4   S    
C12   C68   S    
C33   C39   A    
N12   Ni3   S    
N3    N31   A    
N14   N22   A    
N32   Ni3   S    
C34   C40   A    
C29   H9    S    
C35   C37   A    
N1    N29   A    
C38   C42   A    
C55   C59   A    
N2    Ni2   S    
N22   Ni2   S    
C44   C99   S    
C95   C99   A    
C94   N30   A    
C94   C98   A    
C79   N15   A    
C96   H52   S    
C2    H2    S    
C78   H38   S    
C78   N14   A    
C14   C78   A    
C12   C84   A    
C35   C59   A    
C7    C59   S    
C45   N5    A    
C90   F10   S    
C61   C66   A    
C41   C49   A    
C89   F9    S    
C82   N18   A    
C11   C67   S    
C8    C60   S    
C35   H15   S    
C8    C92   A    
C23   C27   A    
C6    C46   A    
C2    N2    A    
C72   F8    S    
C47   N7    A    
N16   N24   A    
C15   C23   S    
C7    C91   A    
C16   C24   S    
C30   H6    S    
C3    N3    A    
C17   C30   S    
C29   H5    S    
C69   C70   A    
C9    C73   A    
C87   H47   S    
C19   C32   S    
C86   H46   S    
N13   N21   A    
C52   C54   A    
C88   N24   A    
N1    Ni1   S    
C10   C66   S    
C27   H55   S    
C13   C77   A    
N10   N18   A    
N21   Ni1   S    
C25   H53   S    
C64   C67   A    
C90   N26   A    
C43   C100  S    
C62   F2    S    
C74   N10   A    
C73   N9    A    
N24   Ni4   S    
C42   C97   S    
C1    C97   A    
C74   H34   S    
C18   C29   S    
C53   C57   A    
C19   C23   A    
C39   C43   A    
C11   C83   A    
C25   C26   A    
C80   H40   S    
C5    C45   A    
C10   C82   A    
C17   C21   A    
C56   C60   A    
C47   H31   S    
C51   C53   A    
C81   N17   A    
C71   F7    S    
C8    C48   A    
C29   C30   S    
N8    N28   A    
N19   Ni7   S    
N3    Ni3   S    
C54   H26   S    
C31   C32   S    
N7    Ni7   S    
C68   C72   A    
C49   H21   S    
C81   H41   S    
N6    Ni6   S    
C17   C18   A    
C88   H48   S    
N5    Ni5   S    
N26   Ni5   S    
N20   Ni8   S    
C34   C58   A    
N25   Ni6   S    
C14   C86   A    
N31   Ni4   S    
C53   H25   S    
C42   C50   A    
C85   N21   A    
C40   H20   S    
C55   H27   S    
N18   Ni6   S    
C1    H1    S    
C64   F4    S    
C12   C76   A    
C92   N28   A    
C20   C31   S    
C26   H54   S    
C95   H51   S    
C80   N16   A    
C61   F1    S    
N27   Ni8   S    
C36   H16   S    
C93   C97   A    
C73   H33   S    
C16   C88   A    
C54   C58   A    
C3    H3    S    
N12   N20   A    
C21   C25   A    
C63   C68   A    
C33   C57   A    
C32   H12   S    
C62   C65   A    
C89   N25   A    
C91   N27   A    
C18   C22   A    
C31   H7    S    
C6    C90   A    
C32   H8    S    
C24   C28   A    
C85   H45   S    
N15   Ni8   S    
C36   C60   A    
C49   C55   A    
C4    N4    A    
C46   H30   S    
N14   Ni5   S    
C91   F11   S    
N8    Ni8   S    
C4    H4    S    
N6    N26   A    
N13   Ni6   S    
C48   N8    A    
C15   C79   A    
C92   F12   S    
C34   H14   S    
N28   Ni7   S    
C7    C47   A    
C33   H13   S    
C4    C100  A    
C5    C57   S    
N10   Ni1   S    
C14   C22   S    
N30   Ni1   S    
C1    N1    A    
N16   Ni7   S    
C71   C72   A    
C11   C75   A    
C50   C56   A    
C13   C21   S    
N17   Ni5   S    
C10   C74   A    
C44   C52   A    
C66   C70   A    
C75   H35   S    
C43   C51   A    
C39   H19   S    
C96   C100  A    
C36   C38   A    
C37   H17   S    
C63   F3    S    
C76   N12   A    
C31   H11   S    
C67   C71   A    
C6    C58   S    
C56   H28   S    
N7    N27   A    
C37   C41   A    
C61   C62   A    
C9    C65   S    
N9    Ni2   S    
N4    Ni4   S    
C87   N23   A    
C63   C64   A    
C38   H18   S    
C3    C99   A    
C94   H50   S    
C40   C44   A    
N11   N19   A    
N23   Ni3   S    
C2    C98   A    
C77   N13   A    
C22   C26   A    
C15   C87   A    
C13   C85   A    
C27   C28   A    
C28   H56   S    
C84   H44   S    
C41   C98   S    
C48   H32   S    
C83   H43   S    
C75   N11   A    
C16   C80   A    
C84   N20   A    
N9    N17   A    
C46   N6    A    
C20   C24   A    
N5    N25   A    
C5    C89   A    
C9    C81   A    
N4    N32   A    
C93   N29   A    
