data_mof_unit_28492.cif
_audit_creation_date              2012-10-26T17:13:02-0400
_audit_creation_method            fapswitch 2.2
_symmetry_space_group_name_H-M    P1
_symmetry_Int_Tables_number       1
_space_group_crystal_system       triclinic
_cell_length_a                    16.742817
_cell_length_b                    16.748978
_cell_length_c                    16.728087
_cell_angle_alpha                 68.33316
_cell_angle_beta                  68.254198
_cell_angle_gamma                 68.24942
_cell_volume                      3897.97379933

loop_
_atom_site_label
_atom_site_type_symbol
_atom_type_description
_atom_site_fract_x
_atom_site_fract_y
_atom_site_fract_z
_atom_type_partial_charge
C1    C     C_R   0.319626 0.966062 0.451910 0.012548
C2    C     C_R   0.323227 0.450225 0.960470 0.022024
C3    C     C_R   0.535555 0.407671 0.013808 -0.026421
C4    C     C_R   0.018613 0.454245 0.586475 -0.031610
C5    C     C_R   0.010580 0.536633 0.408881 -0.025145
C6    C     C_3   0.250163 0.098357 0.837807 -0.286135
C7    C     C_3   0.798718 0.904353 0.177227 -0.339346
C8    C     C_3   0.098519 0.837409 0.249667 -0.284797
C9    C     C_3   0.906214 0.178605 0.798413 -0.336860
C10   C     C_3   0.838720 0.251508 0.096925 -0.284150
C11   C     C_3   0.185778 0.795307 0.893826 -0.321795
C12   C     C_3   0.134741 0.017513 0.765207 -0.310393
C13   C     C_R   0.057797 0.672979 0.545954 -0.005682
C14   C     C_3   0.875763 0.944254 0.326150 -0.272022
C15   C     C_3   0.766691 0.135101 0.016245 -0.309857
C16   C     C_3   0.332884 0.874438 0.937824 -0.270659
C17   C     C_3   0.016935 0.765886 0.133209 -0.326781
C18   C     C_3   0.947873 0.325262 0.875060 -0.270529
C19   C     C_3   0.406700 0.249278 0.662907 -0.308884
C20   C     C_3   0.566558 0.780162 0.304075 -0.326628
C21   C     C_3   0.248847 0.663720 0.405879 -0.309804
C22   C     C_3   0.781912 0.304571 0.566236 -0.324564
C23   C     C_3   0.664198 0.406468 0.250017 -0.309975
C24   C     C_R   0.959263 0.323493 0.451113 0.020370
C25   C     C_3   0.322502 0.606323 0.779652 -0.324782
C26   C     C_3   0.269169 0.811139 0.594395 -0.294638
C27   C     C_3   0.734084 0.209767 0.422525 -0.301538
C28   C     C_3   0.593782 0.273066 0.810660 -0.293814
C29   C     C_3   0.420601 0.735351 0.209526 -0.301434
C30   C     C_3   0.807708 0.594428 0.271805 -0.300203
C31   C     C_3   0.211341 0.424723 0.735657 -0.293592
C32   C     C_R   0.454666 0.988528 0.454274 -0.004236
C33   C     C_R   0.542299 0.033713 0.538967 -0.007561
C34   C     C_R   0.989411 0.454135 0.454590 -0.002911
C35   C     C_R   0.035010 0.538957 0.541766 -0.007940
C36   C     C_R   0.453456 0.453404 0.991680 -0.005870
C37   C     C_R   0.538784 0.541602 0.035419 -0.007096
C38   C     C_R   0.028014 0.828022 0.564860 0.540938
C39   C     C_R   0.677898 0.050056 0.545040 0.006090
C40   C     C_R   0.973552 0.171932 0.434688 0.582919
C41   C     C_R   0.828010 0.564903 0.028010 0.538584
C42   C     C_R   0.171990 0.434696 0.973223 0.577598
C43   C     C_R   0.564894 0.027971 0.828011 0.539972
C44   C     C_R   0.434828 0.973143 0.171962 0.582755
C45   C     C_R   0.434636 0.171214 0.974790 0.557427
C46   C     C_R   0.565391 0.828798 0.025994 0.577859
C47   C     C_R   0.974413 0.434778 0.171355 0.565484
C48   C     C_R   0.025933 0.565425 0.828768 0.573734
C49   C     C_R   0.171227 0.975126 0.434465 0.556897
C50   C     C_R   0.966283 0.451600 0.319845 0.011669
C51   C     C_R   0.828804 0.025936 0.565404 0.578033
C52   C     C_R   0.408117 0.971793 0.409475 -0.031856
C53   C     C_R   0.589323 0.045697 0.586185 -0.027581
C54   C     C_R   0.973113 0.409024 0.407968 -0.034295
C55   C     C_R   0.047061 0.586191 0.588721 -0.027598
C56   C     C_R   0.408726 0.407012 0.974689 -0.035643
C57   C     C_R   0.586119 0.588915 0.046802 -0.027370
C58   C     C_R   0.269031 0.963275 0.400635 -0.031175
C59   C     C_R   0.730733 0.041564 0.599241 -0.032929
C60   C     C_R   0.963003 0.400709 0.269169 -0.027060
C61   C     C_R   0.051889 0.545090 0.677210 0.006574
C62   C     C_R   0.042189 0.599319 0.730484 -0.032308
C63   C     C_R   0.400787 0.268879 0.963258 -0.028574
C64   C     C_R   0.599213 0.730659 0.041891 -0.032728
C65   C     C_R   0.599360 0.045439 0.728537 -0.038427
C66   C     C_R   0.399769 0.960314 0.270935 -0.028518
C67   C     C_R   0.728505 0.599263 0.045808 -0.041561
C68   C     C_R   0.271037 0.399469 0.960514 -0.017192
C69   C     C_R   0.045653 0.728639 0.599164 -0.037336
C70   C     C_R   0.961380 0.270733 0.399553 -0.028985
C71   C     C_R   0.452093 0.089632 0.695063 0.162296
C72   C     C_R   0.451458 0.318951 0.967895 0.011747
C73   C     C_R   0.545819 0.934451 0.297444 0.159155
C74   C     C_R   0.089153 0.695596 0.451453 0.161870
C75   C     C_R   0.936536 0.297185 0.545603 0.159309
C76   C     C_R   0.695240 0.451837 0.090313 0.162489
C77   C     C_R   0.295264 0.543991 0.940225 0.161462
C78   C     C_R   0.285292 0.965311 0.544003 0.166833
C79   C     C_R   0.708279 0.065094 0.450382 0.172847
C80   C     C_R   0.543610 0.284833 0.966710 0.167460
C81   C     C_R   0.450603 0.708549 0.064779 0.173785
C82   C     C_R   0.961685 0.544418 0.287322 0.165689
C83   C     C_R   0.545080 0.677740 0.050612 0.005529
C84   C     C_R   0.067915 0.450542 0.707323 0.171624
C85   C     C_R   0.309805 0.961767 0.311084 -0.195571
C86   C     C_R   0.690868 0.037841 0.690112 -0.180745
C87   C     C_R   0.962133 0.311074 0.309704 -0.197217
C88   C     C_R   0.037936 0.690213 0.690786 -0.181113
C89   C     C_R   0.311554 0.309875 0.960695 -0.191275
C90   C     C_R   0.690046 0.690777 0.038133 -0.181769
C91   C     C_R   0.672902 0.029032 0.410189 -0.000570
C92   C     C_R   0.319711 0.008629 0.576546 0.010599
C93   C     C_R   0.032098 0.409978 0.672002 -0.000142
C94   C     C_R   0.546404 0.057363 0.672803 -0.005531
C95   C     C_R   0.005344 0.577847 0.320739 -0.009487
C96   C     C_R   0.410865 0.672759 0.028921 -0.001340
C97   C     C_R   0.576298 0.319023 0.010183 0.011341
C98   C     C_R   0.590221 0.967582 0.331433 -0.009070
C99   C     C_R   0.404038 0.067716 0.654780 0.028775
C100  C     C_R   0.331136 0.588896 0.970430 0.007862
C101  C     C_R   0.654828 0.403601 0.068761 0.029005
C102  C     C_R   0.969947 0.331190 0.589822 -0.008272
C103  C     C_R   0.066810 0.655362 0.403606 0.029501
C104  C     C_R   0.719155 0.007993 0.327042 0.159469
C105  C     C_R   0.451367 0.957413 0.323966 0.021055
C106  C     C_R   0.268449 0.048092 0.648244 0.136046
C107  C     C_R   0.011447 0.326839 0.718277 0.159027
C108  C     C_R   0.044875 0.649277 0.268690 0.124595
C109  C     C_R   0.328918 0.719569 0.005914 0.152616
C110  C     C_R   0.648789 0.268055 0.048409 0.136925
C111  C     C_R   0.677635 0.978919 0.286677 0.150136
C112  C     C_R   0.309795 0.081403 0.685001 0.167605
C113  C     C_R   0.288512 0.677464 0.977844 0.161112
C114  C     C_R   0.685477 0.309460 0.081776 0.167982
C115  C     C_R   0.981745 0.286618 0.677097 0.149982
C116  C     C_R   0.672768 0.546144 0.058199 -0.005176
C117  C     C_R   0.079521 0.685587 0.309336 0.171026
C118  C     C_R   0.544150 0.991159 0.413045 -0.025303
C119  C     C_R   0.451943 0.035351 0.578049 -0.038763
C120  C     C_R   0.993108 0.412781 0.543748 -0.024909
C121  C     C_R   0.035185 0.578415 0.451742 -0.037270
C122  C     C_R   0.412563 0.542893 0.993968 -0.029471
C123  C     C_R   0.577733 0.451205 0.037214 -0.038214
C124  C     C_R   0.587093 0.016440 0.454450 -0.031506
C125  C     C_R   0.408637 0.011431 0.536098 -0.027453
C126  C     C_R   0.454441 0.586283 0.018059 -0.032724
Cu1   Cu    Cu3+1 0.995180 0.995180 0.424630 0.882841
Cu2   Cu    Cu3+1 0.004820 0.004820 0.575370 0.882446
Cu3   Cu    Cu3+1 0.995180 0.424630 0.995180 0.882660
Cu4   Cu    Cu3+1 0.004820 0.575370 0.004820 0.887710
Cu5   Cu    Cu3+1 0.424630 0.995180 0.995180 0.882451
Cu6   Cu    Cu3+1 0.575370 0.004820 0.004820 0.883995
H1    H     H_    0.270137 0.964486 0.271137 0.159196
H2    H     H_    0.205803 0.053557 0.869205 0.097590
H3    H     H_    0.253657 0.377139 0.780416 0.141665
H4    H     H_    0.195599 0.490927 0.746062 0.152451
H5    H     H_    0.249513 0.426391 0.665033 0.116607
H6    H     H_    0.675570 0.991527 0.157658 0.272611
H7    H     H_    0.792588 0.870561 0.134593 0.125263
H8    H     H_    0.811055 0.853363 0.239729 0.148678
H9    H     H_    0.856619 0.932623 0.139614 0.133417
H10   H     H_    0.174143 0.731250 0.193458 0.273675
H11   H     H_    0.153824 0.868866 0.226987 0.152098
H12   H     H_    0.056852 0.847796 0.315930 0.179749
H13   H     H_    0.058038 0.871112 0.201050 0.097776
H14   H     H_    0.993015 0.158094 0.675436 0.272659
H15   H     H_    0.732182 0.026837 0.732024 0.159597
H16   H     H_    0.873018 0.135026 0.793084 0.124785
H17   H     H_    0.854749 0.241381 0.809360 0.157344
H18   H     H_    0.934008 0.142545 0.856798 0.132128
H19   H     H_    0.733842 0.194289 0.175142 0.272812
H20   H     H_    0.847994 0.318103 0.055655 0.181472
H21   H     H_    0.871491 0.203875 0.055319 0.095585
H22   H     H_    0.872069 0.228243 0.150936 0.151862
H23   H     H_    0.156406 0.680572 0.994537 0.259254
H24   H     H_    0.148200 0.784705 0.857880 0.122497
H25   H     H_    0.250180 0.806283 0.846027 0.166210
H26   H     H_    0.964462 0.271304 0.270031 0.159397
H27   H     H_    0.144833 0.855537 0.917616 0.126892
H28   H     H_    0.143753 0.073621 0.628132 0.261606
H29   H     H_    0.090298 0.982702 0.764155 0.112257
H30   H     H_    0.094157 0.064972 0.806328 0.163216
H31   H     H_    0.187268 0.967701 0.796850 0.138955
H32   H     H_    0.828523 0.033873 0.216563 0.257331
H33   H     H_    0.931681 0.971684 0.313136 0.153475
H34   H     H_    0.900984 0.886802 0.297366 0.105850
H35   H     H_    0.848840 0.920145 0.399586 0.180452
H36   H     H_    0.629855 0.143122 0.072767 0.261478
H37   H     H_    0.026367 0.732151 0.732320 0.157316
H38   H     H_    0.807548 0.093641 0.063741 0.161724
H39   H     H_    0.798540 0.187789 0.967228 0.140012
H40   H     H_    0.765815 0.091640 0.980182 0.112560
H41   H     H_    0.219929 0.832038 0.024767 0.257107
H42   H     H_    0.322270 0.930343 0.964237 0.158721
H43   H     H_    0.304744 0.900239 0.879836 0.106580
H44   H     H_    0.405949 0.844738 0.914634 0.178064
H45   H     H_    0.067604 0.628409 0.144753 0.273516
H46   H     H_    0.978044 0.765229 0.092272 0.123295
H47   H     H_    0.066789 0.803406 0.089064 0.165251
H48   H     H_    0.272057 0.270619 0.961828 0.158020
H49   H     H_    0.970609 0.800970 0.184545 0.133486
H50   H     H_    0.038231 0.216483 0.827054 0.256977
H51   H     H_    0.974728 0.311313 0.931708 0.151792
H52   H     H_    0.890382 0.296842 0.899114 0.105957
H53   H     H_    0.923844 0.398713 0.848860 0.182645
H54   H     H_    0.437458 0.164205 0.778401 0.257377
H55   H     H_    0.383333 0.304517 0.694351 0.117627
H56   H     H_    0.359566 0.259679 0.625303 0.175231
H57   H     H_    0.473856 0.251300 0.615871 0.125992
H58   H     H_    0.661454 0.846792 0.240372 0.262412
H59   H     H_    0.731958 0.732113 0.026904 0.160700
H60   H     H_    0.605152 0.730057 0.265219 0.125007
H61   H     H_    0.494732 0.790869 0.313128 0.142640
H62   H     H_    0.580166 0.752874 0.370633 0.132477
H63   H     H_    0.163405 0.779427 0.435825 0.258434
H64   H     H_    0.303919 0.695238 0.382887 0.114593
H65   H     H_    0.259708 0.625963 0.358670 0.175567
H66   H     H_    0.250731 0.616901 0.473110 0.127003
H67   H     H_    0.848420 0.241163 0.661421 0.262651
H68   H     H_    0.731912 0.265722 0.604275 0.122946
H69   H     H_    0.792752 0.313759 0.494311 0.141475
H70   H     H_    0.194902 0.176067 0.731527 0.273627
H71   H     H_    0.754334 0.370962 0.580186 0.134228
H72   H     H_    0.779271 0.437310 0.164046 0.259111
H73   H     H_    0.696046 0.383652 0.304872 0.115318
H74   H     H_    0.626810 0.359003 0.260988 0.174958
H75   H     H_    0.616936 0.473452 0.252227 0.125883
H76   H     H_    0.198791 0.637306 0.872639 0.275976
H77   H     H_    0.292324 0.616125 0.726703 0.125045
H78   H     H_    0.383105 0.548748 0.775311 0.148963
H79   H     H_    0.341854 0.667118 0.768292 0.148804
H80   H     H_    0.179975 0.918080 0.648980 0.273916
H81   H     H_    0.222138 0.152572 0.871666 0.148280
H82   H     H_    0.238584 0.765581 0.656149 0.127271
H83   H     H_    0.342982 0.784035 0.578513 0.140837
H84   H     H_    0.244964 0.813915 0.539845 0.142350
H85   H     H_    0.766402 0.145428 0.328214 0.274361
H86   H     H_    0.779926 0.251301 0.376044 0.138491
H87   H     H_    0.740803 0.195400 0.489988 0.146553
H88   H     H_    0.664163 0.247788 0.421014 0.118503
H89   H     H_    0.649811 0.181579 0.916185 0.272730
H90   H     H_    0.659017 0.256981 0.761073 0.128523
H91   H     H_    0.563715 0.346381 0.791386 0.142140
H92   H     H_    0.317030 0.060639 0.848348 0.183870
H93   H     H_    0.549995 0.237829 0.809217 0.143024
H94   H     H_    0.327744 0.768834 0.142895 0.273804
H95   H     H_    0.373727 0.781497 0.250752 0.138670
H96   H     H_    0.488098 0.741479 0.195998 0.146472
H97   H     H_    0.418416 0.665661 0.247471 0.119033
H98   H     H_    0.895767 0.672758 0.221866 0.251023
H99   H     H_    0.758051 0.653317 0.293895 0.115107
H100  H     H_    0.800558 0.534520 0.329085 0.134490
H101  H     H_    0.791536 0.588198 0.216124 0.156434
H102  H     H_    0.149615 0.329168 0.764457 0.274062
N1    N     N_2   0.255565 0.137140 0.743626 -0.483211
N2    N     N_2   0.288641 0.810401 0.007872 -0.536248
N3    N     N_2   0.062238 0.675550 0.173684 -0.519288
N4    N     N_2   0.017700 0.285102 0.807741 -0.534594
N5    N     N_2   0.411573 0.164971 0.731109 -0.480193
N6    N     N_2   0.593414 0.862113 0.256597 -0.486793
N7    N     N_2   0.164326 0.731749 0.410388 -0.480472
N8    N     N_2   0.863825 0.257015 0.593365 -0.486694
N9    N     N_2   0.731908 0.411360 0.165211 -0.479519
N10   N     N_2   0.258337 0.588929 0.865754 -0.501736
N11   N     N_2   0.243008 0.898466 0.608717 -0.499670
N12   N     N_2   0.718355 0.975568 0.195793 -0.521310
N13   N     N_2   0.758827 0.128980 0.395703 -0.455058
N14   N     N_2   0.608013 0.244088 0.898448 -0.498688
N15   N     N_2   0.395310 0.760014 0.127882 -0.454692
N16   N     N_2   0.896835 0.606649 0.240733 -0.476888
N17   N     N_2   0.131747 0.396468 0.758221 -0.457460
N18   N     N_2   0.135823 0.743345 0.254376 -0.482565
N19   N     N_2   0.977810 0.196133 0.718144 -0.522656
N20   N     N_2   0.744946 0.255356 0.136514 -0.483477
N21   N     N_2   0.199452 0.720066 0.970458 -0.526013
N22   N     N_2   0.173558 0.065680 0.675574 -0.514812
N23   N     N_2   0.808823 0.013525 0.285261 -0.535430
N24   N     N_2   0.676920 0.173300 0.064892 -0.514885
O1    O     O_R   0.124540 0.978640 0.385460 -0.523107
O2    O     O_R   0.124540 0.385460 0.978640 -0.502837
O3    O     O_R   0.021360 0.875460 0.614540 -0.514491
O4    O     O_R   0.978640 0.124540 0.385460 -0.504916
O5    O     O_R   0.013780 0.867370 0.487190 -0.524237
O6    O     O_R   0.986220 0.132630 0.512810 -0.483156
O7    O     O_R   0.867370 0.487190 0.013780 -0.524432
O8    O     O_R   0.132630 0.512810 0.986220 -0.507815
O9    O     O_R   0.487190 0.013780 0.867370 -0.525060
O10   O     O_R   0.512810 0.986220 0.132630 -0.483412
O11   O     O_R   0.512810 0.132630 0.986220 -0.507564
O12   O     O_R   0.875460 0.021360 0.614540 -0.509907
O13   O     O_R   0.487190 0.867370 0.013780 -0.473243
O14   O     O_R   0.986220 0.512810 0.132630 -0.475771
O15   O     O_R   0.013780 0.487190 0.867370 -0.472749
O16   O     O_R   0.132630 0.986220 0.512810 -0.508084
O17   O     O_R   0.867370 0.013780 0.487190 -0.473495
O18   O     O_R   0.978640 0.385460 0.124540 -0.526730
O19   O     O_R   0.021360 0.614540 0.875460 -0.523326
O20   O     O_R   0.385460 0.124540 0.978640 -0.522942
O21   O     O_R   0.614540 0.875460 0.021360 -0.509248
O22   O     O_R   0.614540 0.021360 0.875460 -0.514355
O23   O     O_R   0.385460 0.978640 0.124540 -0.505251
O24   O     O_R   0.875460 0.614540 0.021360 -0.505066

loop_
_geom_bond_atom_site_label_1
_geom_bond_atom_site_label_2
_ccdc_geom_bond_type
C17   H46   S    
C32   C125  A    
H94   N15   S    
C6    N1    S    
C27   H87   S    
C46   O13   A    
C12   N22   S    
C80   C97   A    
C77   N10   S    
C40   O6    A    
C79   N13   S    
C44   C66   S    
C8    H13   S    
C61   C84   A    
C50   C54   A    
C64   C90   A    
C91   C104  A    
Cu3   O2    S    
C86   H15   S    
C10   H22   S    
C66   C85   A    
Cu3   O15   S    
C28   H93   S    
C24   C70   A    
C65   C86   A    
C44   O10   A    
C71   C94   A    
C106  C112  A    
C48   O19   A    
C98   C111  A    
C45   O11   A    
C7    N12   S    
H50   N4    S    
C101  C123  A    
C40   C70   S    
C22   H71   S    
C11   H25   S    
C113  N21   S    
C18   H51   S    
C22   H68   S    
C4    C93   A    
C108  N3    S    
H85   N13   S    
C16   H42   S    
C110  N24   S    
C2    C68   A    
C28   H91   S    
C7    H8    S    
Cu5   O9    S    
C16   N2    S    
C24   C54   A    
C5    C121  A    
C27   H86   S    
C78   N11   S    
C77   C100  A    
C26   H84   S    
C28   N14   S    
C89   H48   S    
C30   H100  S    
C25   H79   S    
H36   N24   S    
C32   C52   A    
Cu5   O20   S    
C42   O2    A    
C102  C115  A    
C41   O7    A    
C19   H55   S    
C47   C60   S    
C37   C123  A    
C74   N7    S    
H23   N21   S    
C47   O14   A    
C117  N18   S    
C43   O22   A    
C56   C72   A    
C75   C102  A    
C11   N21   S    
C57   C83   A    
C88   H37   S    
C31   H5    S    
C7    H9    S    
C21   H66   S    
C79   C91   A    
C61   C62   A    
C26   N11   S    
C109  C113  A    
C42   O8    A    
C10   H20   S    
C48   O15   A    
C17   H47   S    
C12   H30   S    
H63   N7    S    
C38   C69   S    
C27   H88   S    
C30   H101  S    
H32   N23   S    
C92   C125  A    
C84   N17   S    
C42   C68   S    
C101  C114  A    
C103  C117  A    
C40   O4    A    
C22   N8    S    
Cu6   O22   S    
C70   C87   A    
C10   H21   S    
C20   H62   S    
C81   C83   A    
C60   C87   A    
C3    C123  A    
C98   C118  A    
C57   C116  A    
C6    H92   S    
C90   H59   S    
C51   C59   S    
C33   C53   A    
C73   C98   A    
C114  N20   S    
C107  N4    S    
C9    H18   S    
H10   N18   S    
C1    C78   A    
H70   N1    S    
C106  N22   S    
C35   C121  A    
C76   N9    S    
H58   N6    S    
C73   N6    S    
C41   C67   S    
C41   O24   A    
C38   O3    A    
Cu1   O17   S    
Cu6   O11   S    
C81   C96   A    
C47   O18   A    
H80   N11   S    
C74   C103  A    
C78   C92   A    
C20   N6    S    
C62   C88   A    
C45   C63   S    
C67   C90   A    
C49   C58   S    
C30   N16   S    
C15   H38   S    
C46   C64   S    
C26   H83   S    
C39   C79   A    
C30   H99   S    
C122  C126  A    
C36   C122  A    
C67   C116  A    
C64   C83   A    
C43   O9    A    
C36   C56   A    
C27   N13   S    
C19   H56   S    
Cu6   O10   S    
Cu4   O14   S    
C3    C97   A    
C31   N17   S    
C48   C62   S    
C115  N19   S    
C18   H52   S    
C43   C65   S    
C39   C59   A    
C5    C34   A    
C63   C89   A    
C80   N14   S    
C46   O21   A    
C11   H27   S    
C96   C126  A    
C29   N15   S    
C8    H12   S    
C44   O23   A    
C118  C124  A    
Cu2   O3    S    
C12   H29   S    
C14   H33   S    
C25   H77   S    
C15   N24   S    
Cu2   O16   S    
C35   C55   A    
C69   C88   A    
C11   H24   S    
C19   H57   S    
H19   N20   S    
C19   N5    S    
C119  C125  A    
C16   H43   S    
C31   H3    S    
C65   C94   A    
C52   C105  A    
C34   C54   A    
C91   C124  A    
C23   H74   S    
C15   H39   S    
Cu1   O1    S    
C14   H34   S    
C29   H95   S    
C66   C105  A    
C23   N9    S    
Cu5   Cu6   S    
C103  C121  A    
C58   C85   A    
C32   C118  A    
C20   H61   S    
Cu5   O23   S    
H72   N9    S    
Cu3   O7    S    
C50   C82   A    
H45   N3    S    
C37   C126  A    
C25   N10   S    
C92   C106  A    
C76   C101  A    
Cu6   O21   S    
C110  C114  A    
C8    N18   S    
C82   C95   A    
C18   H53   S    
C22   H69   S    
C23   H75   S    
C53   C94   A    
C10   N20   S    
Cu2   O12   S    
C108  C117  A    
C82   N16   S    
C28   H90   S    
C9    N19   S    
C100  C113  A    
H76   N10   S    
C81   N15   S    
C31   H4    S    
C14   N23   S    
H102  N17   S    
C49   O16   A    
C104  C111  A    
C20   H60   S    
H41   N2    S    
C24   C75   A    
C33   C119  A    
Cu1   Cu2   S    
H89   N14   S    
C112  N1    S    
C96   C109  A    
C9    H16   S    
C84   C93   A    
C87   H26   S    
C51   O17   A    
C73   C105  A    
C26   H82   S    
C102  C120  A    
C50   C60   A    
H28   N22   S    
Cu4   O19   S    
Cu3   Cu4   S    
C59   C86   A    
C29   H97   S    
H14   N19   S    
C72   C80   A    
C75   N8    S    
C2    C56   A    
C38   O5    A    
C93   C107  A    
C12   H31   S    
C7    H7    S    
C97   C110  A    
C49   O1    A    
C16   H44   S    
C39   C53   A    
C6    H81   S    
C13   C69   A    
C3    C36   A    
C111  N12   S    
C99   C112  A    
C55   C61   A    
C21   H65   S    
C63   C72   A    
C76   C116  A    
Cu1   O5    S    
C15   H40   S    
C107  C115  A    
C8    H11   S    
C100  C122  A    
C104  N23   S    
Cu2   O6    S    
C21   H64   S    
C71   C99   A    
C25   H78   S    
C1    C52   A    
C37   C57   A    
C4    C35   A    
C95   C108  A    
C99   C119  A    
H54   N5    S    
Cu4   O8    S    
C109  N2    S    
C1    C58   A    
C6    H2    S    
C5    C95   A    
Cu5   O13   S    
H6    N12   S    
C34   C120  A    
Cu4   O24   S    
C45   O20   A    
C51   O12   A    
C85   H1    S    
C17   H49   S    
C33   C124  A    
C2    C77   A    
C9    H17   S    
C4    C120  A    
Cu3   O18   S    
C29   H96   S    
C68   C89   A    
C14   H35   S    
H98   N16   S    
C21   N7    S    
Cu1   O4    S    
C23   H73   S    
C18   N4    S    
H67   N8    S    
C71   N5    S    
C13   C74   A    
C13   C55   A    
C17   N3    S    
