data_mof_unit_6550.cif
_audit_creation_date              2012-12-11T15:21:41-0500
_audit_creation_method            fapswitch 2.2
_symmetry_space_group_name_H-M    P1
_symmetry_Int_Tables_number       1
_space_group_crystal_system       triclinic
_cell_length_a                    19.200116
_cell_length_b                    7.129891
_cell_length_c                    17.683906
_cell_angle_alpha                 89.999759
_cell_angle_beta                  109.057708
_cell_angle_gamma                 90.000317
_cell_volume                      2288.14817158

loop_
_atom_site_label
_atom_site_type_symbol
_atom_type_description
_atom_site_fract_x
_atom_site_fract_y
_atom_site_fract_z
_atom_type_partial_charge
O1    O     O_R   0.562310 0.505770 0.439670 -0.539502
O2    O     O_R   0.437690 0.005770 0.560330 -0.539503
O3    O     O_R   0.411650 0.169150 0.405330 -0.543836
O4    O     O_R   0.588350 0.669150 0.594670 -0.543836
C1    C     C_R   0.384982 0.345905 0.382607 0.647221
C2    C     C_R   0.615018 0.845905 0.617393 0.647224
O5    O     O_R   0.560140 0.175610 0.430010 -0.533045
O6    O     O_R   0.439860 0.675610 0.569990 -0.533044
O7    O     O_R   0.587240 0.012100 0.585200 -0.532279
O8    O     O_R   0.412760 0.512100 0.414800 -0.532278
C3    C     C_R   0.579068 0.344850 0.412723 0.705520
C4    C     C_R   0.420932 0.844849 0.587276 0.705518
O9    O     O_3   0.508720 0.341420 0.550890 -0.368938
O10   O     O_3   0.491280 0.841420 0.449110 -0.368938
V1    V     V_3+5 0.498380 0.063930 0.490560 1.378477
V2    V     V_3+5 0.501620 0.563930 0.509440 1.378480
C5    C     C_R   0.176628 0.760125 0.872889 -0.214597
C6    C     C_R   0.823356 0.260150 0.127095 -0.214618
C7    C     C_R   0.129403 0.913886 0.864419 -0.089015
C8    C     C_R   0.870593 0.413889 0.135577 -0.089010
C9    C     C_R   0.129637 0.054359 0.809176 -0.228596
C10   C     C_R   0.870365 0.554355 0.190825 -0.228558
C11   C     C_R   0.176618 0.043707 0.761956 0.058465
C12   C     C_R   0.823365 0.543740 0.238026 0.058437
C13   C     C_R   0.226636 0.891410 0.773938 -0.017912
C14   C     C_R   0.773342 0.391452 0.226038 -0.017899
C15   C     C_R   0.226273 0.747868 0.829491 0.095303
C16   C     C_R   0.773705 0.247907 0.170486 0.095347
C17   C     C_R   0.174882 0.182648 0.703737 0.162614
C18   C     C_R   0.825088 0.682713 0.296228 0.162612
C19   C     C_R   0.228209 0.179050 0.663799 0.159507
C20   C     C_R   0.771761 0.679112 0.336168 0.159557
C21   C     C_R   0.276179 0.022451 0.673812 0.047284
C22   C     C_R   0.723800 0.522493 0.326164 0.047303
C23   C     C_R   0.276491 0.881218 0.730012 -0.035627
C24   C     C_R   0.723484 0.381266 0.269961 -0.035654
C25   C     C_R   0.327772 0.731186 0.743546 0.063602
C26   C     C_R   0.672200 0.231237 0.256425 0.063571
C27   C     C_R   0.325280 0.588858 0.797732 -0.173252
C28   C     C_R   0.674686 0.088918 0.202233 -0.173263
C29   C     C_R   0.275646 0.595202 0.840558 0.156321
C30   C     C_R   0.724325 0.095253 0.159413 0.156344
C31   C     C_R   0.322869 0.001860 0.627175 -0.244107
C32   C     C_R   0.677127 0.501867 0.372818 -0.244084
C33   C     C_R   0.374542 0.856175 0.640309 -0.088179
C34   C     C_R   0.625451 0.356186 0.359684 -0.088193
C35   C     C_R   0.380670 0.726325 0.702887 0.120669
C36   C     C_R   0.619311 0.226361 0.297094 0.120689
H1    H     H_    0.176006 0.653117 0.916009 0.140947
H2    H     H_    0.823975 0.153147 0.083972 0.140938
H3    H     H_    0.093051 0.172464 0.804096 0.143179
H4    H     H_    0.906975 0.672420 0.195927 0.143173
H5    H     H_    0.318547 0.097705 0.578436 0.145846
H6    H     H_    0.681466 0.597673 0.421573 0.145839
H7    H     H_    0.361309 0.468471 0.806254 0.143336
H8    H     H_    0.638654 0.968536 0.193708 0.143347
C37   C     C_3   0.767826 0.723902 0.820403 -0.012990
C38   C     C_3   0.232171 0.223896 0.179600 -0.012985
H9    H     H_    0.803656 0.601348 0.823293 0.124897
H10   H     H_    0.196339 0.101346 0.176711 0.124899
C39   C     C_3   0.698194 0.697398 0.745019 -0.397189
C40   C     C_3   0.301803 0.197391 0.254984 -0.397190
H11   H     H_    0.647461 0.679041 0.761638 0.148736
H12   H     H_    0.352535 0.179024 0.238365 0.148737
H13   H     H_    0.704325 0.566273 0.713577 0.121222
H14   H     H_    0.295669 0.066271 0.286428 0.121221
H15   H     H_    0.759599 0.738240 0.630486 0.129247
H16   H     H_    0.240400 0.238259 0.369519 0.129239
C41   C     C_3   0.827874 0.911026 0.731273 -0.066598
C42   C     C_3   0.172127 0.411037 0.268728 -0.066591
C43   C     C_3   0.757945 0.075698 0.808489 -0.401084
C44   C     C_3   0.242057 0.575692 0.191507 -0.401086
C45   C     C_3   0.811343 0.909230 0.813032 0.051504
C46   C     C_3   0.188657 0.409230 0.186968 0.051503
H17   H     H_    0.783755 0.210132 0.799609 0.140921
H18   H     H_    0.216250 0.710130 0.200386 0.140921
H19   H     H_    0.746263 0.091433 0.865703 0.136565
H20   H     H_    0.253739 0.591420 0.134293 0.136566
C47   C     C_3   0.686969 0.866756 0.687692 0.080558
C48   C     C_3   0.313031 0.366756 0.312308 0.080563
C49   C     C_3   0.755763 0.875793 0.658408 0.008023
C50   C     C_3   0.244237 0.375807 0.341593 0.008021
C51   C     C_3   0.684897 0.046728 0.738305 -0.302556
C52   C     C_3   0.315105 0.546721 0.261691 -0.302557
H21   H     H_    0.638555 0.034729 0.762807 0.129403
H22   H     H_    0.361447 0.534711 0.237187 0.129402
H23   H     H_    0.674101 0.174826 0.700484 0.159175
H24   H     H_    0.325905 0.674822 0.299509 0.159176
H25   H     H_    0.845960 0.057641 0.725715 0.129758
H26   H     H_    0.154042 0.557654 0.274282 0.129758
O11   O     O_R   0.087220 0.271820 0.085230 -0.543636
O12   O     O_R   0.912780 0.771820 0.914770 -0.543636
O13   O     O_R   0.939860 0.595540 0.069990 -0.539658
O14   O     O_R   0.060140 0.095540 0.930010 -0.539660
C53   C     C_R   0.919471 0.426289 0.085665 0.701021
C54   C     C_R   0.080529 0.926290 0.914335 0.701029
O15   O     O_R   0.088340 0.601930 0.094680 -0.541729
O16   O     O_R   0.911660 0.101930 0.905320 -0.541728
O17   O     O_R   0.062310 0.765410 0.939660 -0.536679
O18   O     O_R   0.937690 0.265410 0.060340 -0.536679
C55   C     C_R   0.116986 0.431592 0.116402 0.651179
C56   C     C_R   0.883014 0.931592 0.883598 0.651182
O19   O     O_3   0.991270 0.429630 0.949130 -0.374244
O20   O     O_3   0.008730 0.929630 0.050870 -0.374245
V3    V     V_3+5 0.001620 0.707150 0.009440 1.356193
V4    V     V_3+5 0.998380 0.207150 0.990560 1.356193
C57   C     C_3   0.746166 0.715053 0.897876 -0.344761
C58   C     C_3   0.727674 0.513433 0.916121 -0.333186
C59   C     C_3   0.693324 0.509507 0.982586 -0.761897
H27   H     H_    0.732016 0.569694 0.038247 0.246888
H28   H     H_    0.641155 0.590951 0.964765 0.226604
H29   H     H_    0.680973 0.362379 0.994403 0.221137
H30   H     H_    0.688327 0.447483 0.862078 0.196849
H31   H     H_    0.778882 0.427819 0.934656 0.185517
H32   H     H_    0.791829 0.766817 0.950270 0.171181
H33   H     H_    0.697877 0.807302 0.891474 0.183181
C60   C     C_3   0.253831 0.215039 0.102126 -0.344759
C61   C     C_3   0.272319 0.013415 0.083883 -0.333193
C62   C     C_3   0.306665 0.009479 0.017415 -0.761896
H34   H     H_    0.267972 0.069670 0.961755 0.246889
H35   H     H_    0.358836 0.090918 0.035233 0.226603
H36   H     H_    0.319012 0.862348 0.005597 0.221135
H37   H     H_    0.311667 0.947466 0.137925 0.196851
H38   H     H_    0.221109 0.927804 0.065351 0.185519
H39   H     H_    0.208169 0.266805 0.049732 0.171182
H40   H     H_    0.302122 0.307281 0.108528 0.183180
C63   C     C_3   0.894734 0.794059 0.725888 -0.385166
C64   C     C_3   0.891620 0.580392 0.737164 -0.288445
C65   C     C_3   0.947759 0.479530 0.707552 -0.778562
H41   H     H_    0.934989 0.501495 0.642235 0.230848
H42   H     H_    0.003998 0.532829 0.739819 0.237790
H43   H     H_    0.946205 0.326694 0.719132 0.205388
H44   H     H_    0.906089 0.547059 0.801547 0.218474
H45   H     H_    0.836202 0.522920 0.704885 0.171993
H46   H     H_    0.900056 0.821939 0.666110 0.186673
H47   H     H_    0.946233 0.848483 0.770167 0.159636
C66   C     C_3   0.105266 0.294076 0.274116 -0.385169
C67   C     C_3   0.108378 0.080407 0.262845 -0.288453
C68   C     C_3   0.052243 0.979554 0.292466 -0.778574
H48   H     H_    0.065021 0.001518 0.357784 0.230843
H49   H     H_    0.996005 0.032865 0.260206 0.237790
H50   H     H_    0.053790 0.826717 0.280884 0.205400
H51   H     H_    0.093905 0.047066 0.198462 0.218469
H52   H     H_    0.163797 0.022936 0.295122 0.171997
H53   H     H_    0.099945 0.321966 0.333893 0.186672
H54   H     H_    0.053768 0.348498 0.229835 0.159631
C69   C     C_3   0.748441 0.022039 0.591812 -0.820267
H55   H     H_    0.739385 0.165091 0.611468 0.215256
H56   H     H_    0.799572 0.024382 0.575453 0.205469
H57   H     H_    0.702489 0.985216 0.536846 0.217538
C70   C     C_3   0.251562 0.522063 0.408185 -0.820277
H58   H     H_    0.260622 0.665111 0.388526 0.215259
H59   H     H_    0.200431 0.524419 0.424543 0.205473
H60   H     H_    0.297513 0.485240 0.463153 0.217543
C71   C     C_3   0.113490 0.327133 0.681434 -0.805253
H61   H     H_    0.059937 0.257229 0.673463 0.204595
H62   H     H_    0.124179 0.435440 0.728941 0.216645
H63   H     H_    0.105606 0.395754 0.623069 0.220403
C72   C     C_3   0.886459 0.827254 0.318491 -0.805294
H64   H     H_    0.940033 0.757315 0.326627 0.204612
H65   H     H_    0.875834 0.935263 0.270882 0.216594
H66   H     H_    0.894247 0.896262 0.376744 0.220449
C73   C     C_3   0.236720 0.345634 0.613854 -0.793457
H67   H     H_    0.295755 0.374791 0.623549 0.207360
H68   H     H_    0.207786 0.317279 0.549493 0.204177
H69   H     H_    0.216206 0.478214 0.631585 0.226134
C74   C     C_3   0.763239 0.845717 0.386097 -0.793566
H70   H     H_    0.704217 0.874730 0.376496 0.207343
H71   H     H_    0.792267 0.817533 0.450442 0.204223
H72   H     H_    0.783643 0.978310 0.368270 0.226138
C75   C     C_3   0.445790 0.592902 0.730437 -0.777273
H73   H     H_    0.493229 0.640016 0.712678 0.203204
H74   H     H_    0.467771 0.588041 0.796790 0.192665
H75   H     H_    0.428814 0.450008 0.706578 0.212265
C76   C     C_3   0.554191 0.092933 0.269553 -0.777248
H76   H     H_    0.506755 0.140052 0.287316 0.203192
H77   H     H_    0.532205 0.088059 0.203200 0.192656
H78   H     H_    0.571170 0.950043 0.293417 0.212280
C77   C     C_3   0.277000 0.437552 0.898022 -0.823692
H79   H     H_    0.222068 0.369707 0.881274 0.216215
H80   H     H_    0.317885 0.327842 0.897433 0.214884
H81   H     H_    0.291811 0.493030 0.959946 0.201556
C78   C     C_3   0.722972 0.937596 0.101953 -0.823708
H82   H     H_    0.777905 0.869755 0.118702 0.216206
H83   H     H_    0.682090 0.827883 0.102546 0.214887
H84   H     H_    0.708162 0.993063 0.040028 0.201559

loop_
_geom_bond_atom_site_label_1
_geom_bond_atom_site_label_2
_ccdc_geom_bond_type
C38   C40   S    
C51   H23   S    
C75   H73   S    
C71   H62   S    
C73   H67   S    
O1    C3    A    
C43   H19   S    
C44   H18   S    
O2    C4    A    
C64   C65   S    
C2    O7    A    
C76   H77   S    
O5    C3    A    
C75   H74   S    
C6    H2    S    
C11   C17   A    
C66   H53   S    
C69   H56   S    
C63   H46   S    
C67   H51   S    
C59   H28   S    
C19   C73   S    
C68   H50   S    
C37   H9    S    
C38   H10   S    
C54   O17   A    
C58   C59   S    
C6    C8    A    
C70   H60   S    
C37   C45   S    
C39   H11   S    
C61   C62   S    
C40   H12   S    
O13   V3    S    
C20   C74   S    
C31   H5    S    
C27   H7    S    
C69   H55   S    
C28   H8    S    
C42   C46   S    
C44   H20   S    
C57   C58   S    
C19   C21   A    
C41   C45   S    
C25   C35   A    
C60   H40   S    
C26   C36   A    
C50   C70   S    
C48   C52   S    
C17   C71   S    
C77   H81   S    
O15   V3    S    
C28   C30   A    
C70   H58   S    
O6    V2    S    
C77   H80   S    
C71   H63   S    
C74   H71   S    
O11   V4    S    
C42   H26   S    
O11   C55   A    
C65   H43   S    
C41   H25   S    
O20   V3    S    
C32   C34   A    
C76   H78   S    
C43   C51   S    
C62   H35   S    
C18   C72   S    
O17   V3    S    
C75   H75   S    
C34   C36   A    
C43   H17   S    
C40   H14   S    
C5    C15   A    
C66   H54   S    
C73   H69   S    
C6    C16   A    
C63   H47   S    
C44   C46   S    
C59   H27   S    
C59   H29   S    
C5    H1    S    
C74   H70   S    
C47   C49   S    
C53   O18   A    
C5    C7    A    
C49   C69   S    
O16   C56   A    
C38   C60   S    
C20   C22   A    
C58   H30   S    
O4    V2    S    
C58   H31   S    
C78   H82   S    
C18   C20   A    
C64   H45   S    
C15   C29   A    
C72   H64   S    
O6    C4    A    
C69   H57   S    
C72   H65   S    
C72   H66   S    
C22   C32   A    
O1    V2    S    
C61   H38   S    
C1    C48   S    
O14   C54   A    
O2    V1    S    
C31   C33   A    
C57   H32   S    
C44   C52   S    
C13   C23   A    
C46   C55   S    
C74   H72   S    
C14   C24   A    
C45   C56   S    
C51   H21   S    
C8    C53   S    
C8    C10   A    
H15   C49   S    
C9    C11   A    
C10   C12   A    
C78   H84   S    
O4    C2    A    
C63   C64   S    
C9    H3    S    
O3    V1    S    
C38   C46   S    
C10   H4    S    
C65   H41   S    
C62   H36   S    
C40   C48   S    
O14   V4    S    
C16   C30   A    
C73   H68   S    
C14   C16   A    
C29   C77   S    
C52   H24   S    
C52   H22   S    
C4    C33   S    
O3    C1    A    
C35   C75   S    
C68   H48   S    
C37   C39   S    
O12   C56   A    
C30   C78   S    
C13   C15   A    
C27   C29   A    
C66   C67   S    
O18   V4    S    
O16   V4    S    
H16   C50   S    
C36   C76   S    
C78   H83   S    
O7    V1    S    
C23   C25   A    
C17   C19   A    
C76   H76   S    
O8    V2    S    
C60   C61   S    
C24   C26   A    
C26   C28   A    
C68   H49   S    
C12   C14   A    
C2    C47   S    
O13   C53   A    
C39   C47   S    
O5    V1    S    
C21   C23   A    
C48   C50   S    
O19   V4    S    
C22   C24   A    
C61   H37   S    
C70   H59   S    
C39   H13   S    
C42   C50   S    
C12   C18   A    
C57   H33   S    
C41   C49   S    
C67   C68   S    
C77   H79   S    
C47   C51   S    
C32   H6    S    
O12   V3    S    
C1    O8    A    
C11   C13   A    
C33   C35   A    
C41   C63   S    
C42   C66   S    
C25   C27   A    
C62   H34   S    
O9    V2    S    
C43   C45   S    
C71   H61   S    
C37   C57   S    
O10   V1    S    
C3    C34   S    
C67   H52   S    
C65   H42   S    
C64   H44   S    
C21   C31   A    
C60   H39   S    
O15   C55   A    
C7    C54   S    
C7    C9    A    
