data_mof_unit_46001.cif
_audit_creation_date              2012-12-10T17:31:10-0500
_audit_creation_method            fapswitch 2.2
_symmetry_space_group_name_H-M    P1
_symmetry_Int_Tables_number       1
_space_group_crystal_system       triclinic
_cell_length_a                    11.972203
_cell_length_b                    12.873541
_cell_length_c                    15.448176
_cell_angle_alpha                 86.858042
_cell_angle_beta                  115.474018
_cell_angle_gamma                 93.724769
_cell_volume                      2143.97549271

loop_
_atom_site_label
_atom_site_type_symbol
_atom_type_description
_atom_site_fract_x
_atom_site_fract_y
_atom_site_fract_z
_atom_type_partial_charge
C1    C     C_R   0.475748 0.299514 0.496528 0.884388
C2    C     C_R   0.524132 0.700559 0.503147 0.883383
C3    C     C_R   0.661589 0.574597 0.112635 -0.234740
C4    C     C_R   0.370136 0.605184 0.891037 -0.235829
C5    C     C_R   0.747946 0.566091 0.075797 -0.247033
C6    C     C_R   0.283162 0.609777 0.927901 -0.242827
C7    C     C_R   0.541331 0.812011 0.508382 -0.104178
C8    C     C_R   0.458208 0.188187 0.490497 -0.105878
C9    C     C_R   0.332505 0.029472 0.440170 -0.261626
C10   C     C_R   0.666667 0.971004 0.557819 -0.261280
C11   C     C_R   0.339807 0.137361 0.445014 -0.014795
C12   C     C_R   0.659712 0.863299 0.552122 -0.016573
C13   C     C_R   0.565605 0.132024 0.529317 -0.285723
C14   C     C_R   0.433658 0.868006 0.470277 -0.283898
C15   C     C_R   0.558147 0.025878 0.521752 0.170953
C16   C     C_R   0.440961 0.974296 0.477304 0.170374
C17   C     C_R   0.998134 0.589209 0.401447 -0.362901
C18   C     C_R   0.001637 0.410410 0.598154 -0.355174
C19   C     C_R   0.120225 0.581965 0.412394 0.017728
C20   C     C_R   0.879698 0.417874 0.587442 0.018372
C21   C     C_R   0.163789 0.462925 0.544238 -0.034459
C22   C     C_R   0.836044 0.536852 0.455533 -0.030607
C23   C     C_R   0.576580 0.497547 0.680561 0.867754
C24   C     C_R   0.424101 0.507000 0.319433 0.865442
C25   C     C_R   0.041820 0.467825 0.536055 0.085168
C26   C     C_R   0.957942 0.531827 0.463568 0.088606
C27   C     C_R   0.625245 0.513124 0.783536 -0.061887
C28   C     C_R   0.381270 0.528248 0.216607 -0.060233
C29   C     C_R   0.793341 0.532037 0.941683 -0.209447
C30   C     C_R   0.226064 0.580016 0.060356 -0.206059
C31   C     C_R   0.751970 0.512039 0.844596 -0.214574
C32   C     C_R   0.258717 0.551914 0.156491 -0.212306
C33   C     C_R   0.541398 0.536827 0.819348 -0.264950
C34   C     C_R   0.470202 0.534252 0.180639 -0.265238
C35   C     C_R   0.580707 0.560352 0.915194 0.091635
C36   C     C_R   0.441493 0.567759 0.086645 0.091493
C37   C     C_R   0.708186 0.553847 0.977805 0.184596
C38   C     C_R   0.316385 0.586687 0.024716 0.183072
C39   C     C_R   0.494351 0.581258 0.951343 0.069631
C40   C     C_R   0.533088 0.575194 0.051439 0.071521
H1    H     H_    0.845393 0.564058 0.124646 0.138625
H2    H     H_    0.188610 0.627058 0.879841 0.139225
H3    H     H_    0.849489 0.374048 0.635921 0.123650
H4    H     H_    0.150460 0.625777 0.363919 0.122252
H5    H     H_    0.935759 0.639026 0.344790 0.143022
H6    H     H_    0.063954 0.360452 0.654683 0.147014
H7    H     H_    0.188820 0.548871 0.183619 0.144167
H8    H     H_    0.818348 0.494738 0.817656 0.148701
H9    H     H_    0.891232 0.528435 0.988774 0.127547
H10   H     H_    0.130484 0.595954 0.013857 0.127652
H11   H     H_    0.697825 0.582396 0.189297 0.139236
H12   H     H_    0.338469 0.622670 0.815242 0.145192
H13   H     H_    0.343116 0.828663 0.435127 0.159128
H14   H     H_    0.656146 0.171207 0.565099 0.158966
H15   H     H_    0.770950 0.586627 0.400760 0.120407
H16   H     H_    0.228868 0.413159 0.599013 0.125242
N1    N     N_R   0.799120 0.480200 0.517090 -0.090493
N2    N     N_R   0.200880 0.519800 0.482910 -0.090383
O1    O     O_R   0.580150 0.341050 0.504560 -0.622135
O2    O     O_R   0.419850 0.658950 0.495440 -0.623157
O3    O     O_R   0.388090 0.353760 0.493600 -0.603565
O4    O     O_R   0.611910 0.646240 0.506400 -0.605076
O5    O     O_R   0.650890 0.490020 0.640860 -0.620198
O6    O     O_R   0.349110 0.509980 0.359140 -0.620244
O7    O     O_R   0.458830 0.502730 0.629890 -0.624432
O8    O     O_R   0.541170 0.497270 0.370110 -0.623128
Zn1   Zn    Zn3+2 0.628240 0.491510 0.507320 0.943868
Zn2   Zn    Zn3+2 0.371760 0.508490 0.492680 0.942630
H17   H     H_    0.562010 0.509661 0.226601 0.158177
H18   H     H_    0.443979 0.532524 0.771967 0.159086
C41   C     C_R   0.776695 0.807633 0.593766 0.142502
C42   C     C_R   0.857973 0.817695 0.549660 -0.162829
C43   C     C_R   0.966847 0.762996 0.587023 -0.140263
C44   C     C_R   0.995507 0.698404 0.668758 -0.105945
C45   C     C_R   0.915840 0.689051 0.713776 -0.128376
C46   C     C_R   0.806786 0.743604 0.676670 -0.097861
H19   H     H_    0.836124 0.866732 0.485731 0.127514
H20   H     H_    0.028588 0.770079 0.552212 0.137444
H21   H     H_    0.079326 0.655505 0.697022 0.124053
H22   H     H_    0.938571 0.639388 0.777307 0.113019
H23   H     H_    0.745246 0.735182 0.711699 0.114503
C47   C     C_R   0.223782 0.194275 0.399349 0.141785
C48   C     C_R   0.201603 0.260653 0.318830 -0.098765
C49   C     C_R   0.095084 0.318445 0.279122 -0.121556
C50   C     C_R   0.009589 0.309610 0.318820 -0.104053
C51   C     C_R   0.030094 0.242486 0.397938 -0.140432
C52   C     C_R   0.136666 0.184737 0.438051 -0.162969
H24   H     H_    0.267837 0.268918 0.288073 0.105216
H25   H     H_    0.079158 0.370502 0.217916 0.117333
H26   H     H_    0.927620 0.354935 0.288429 0.130798
H27   H     H_    0.963943 0.235947 0.428735 0.137973
H28   H     H_    0.152440 0.134124 0.500188 0.127050
H29   H     H_    0.242670 0.988967 0.405494 0.140255
H30   H     H_    0.756504 0.011729 0.591582 0.140728

loop_
_geom_bond_atom_site_label_1
_geom_bond_atom_site_label_2
_ccdc_geom_bond_type
C8    C13   A    
C5    C37   A    
C1    C8    S    
C43   C44   A    
C2    C7    S    
C22   N1    A    
C29   H9    S    
C50   C51   A    
C27   C33   A    
O4    Zn1   S    
C4    H12   S    
C17   C26   A    
O6    Zn2   S    
C35   C37   A    
C9    C16   A    
C17   H5    S    
C10   C15   A    
C1    O1    A    
C41   C46   A    
C2    O2    A    
C10   H30   S    
C47   C52   A    
C30   C38   A    
C11   C47   S    
C5    H1    S    
O1    Zn1   S    
C7    C14   A    
C43   H20   S    
C6    C38   A    
C23   C27   S    
C45   H22   S    
C34   C36   A    
C24   O8    A    
C23   O5    A    
O8    Zn1   S    
C30   H10   S    
C28   C34   A    
C24   O6    A    
C52   H28   S    
C18   C25   A    
N1    Zn1   S    
C18   H6    S    
C19   N2    A    
C7    C12   A    
O5    Zn1   S    
C44   C45   A    
C27   C31   A    
C28   C32   A    
C49   C50   A    
C4    C6    A    
C39   C40   A    
C3    H11   S    
C51   C52   A    
C17   C19   A    
C25   C26   A    
C35   C39   A    
C45   C46   A    
C42   H19   S    
C48   C49   A    
C4    C39   A    
C36   C40   A    
O7    Zn2   S    
C9    C11   A    
C34   H17   S    
C10   C12   A    
C33   H18   S    
N2    Zn2   S    
C12   C41   S    
C3    C40   A    
C31   H8    S    
C13   C15   A    
C6    H2    S    
C32   H7    S    
C14   C16   A    
C49   H25   S    
C9    H29   S    
C20   H3    S    
C19   H4    S    
C13   H14   S    
C44   H21   S    
C21   C25   A    
C24   C28   S    
C42   C43   A    
C3    C5    A    
C1    O3    A    
C46   H23   S    
C21   H16   S    
C50   H26   S    
C22   H15   S    
C51   H27   S    
C23   O7    A    
C36   C38   A    
C41   C42   A    
C29   C31   A    
C30   C32   A    
O3    Zn2   S    
C8    C11   A    
C15   C16   A    
C33   C35   A    
C48   H24   S    
C18   C20   A    
C21   N2    A    
C14   H13   S    
O2    Zn2   S    
C47   C48   A    
C22   C26   A    
C29   C37   A    
C20   N1    A    
C2    O4    A    
