data_mof_unit_61610.cif
_audit_creation_date              2013-03-05T16:37:56-0500
_audit_creation_method            fapswitch 2.2
_symmetry_space_group_name_H-M    P1
_symmetry_Int_Tables_number       1
_space_group_crystal_system       monoclinic
_cell_length_a                    16.018268
_cell_length_b                    14.781442
_cell_length_c                    11.728257
_cell_angle_alpha                 90.0
_cell_angle_beta                  89.964593
_cell_angle_gamma                 90.0
_cell_volume                      2776.93523001

loop_
_atom_site_label
_atom_site_type_symbol
_atom_site_description
_atom_site_fract_x
_atom_site_fract_y
_atom_site_fract_z
_atom_type_partial_charge
O1    O     O_R   0.380310 0.575320 0.500020 -0.552200
O2    O     O_R   0.619690 0.424680 0.499980 -0.551878
O3    O     O_R   0.619690 0.575320 0.499980 -0.552203
O4    O     O_R   0.380310 0.424680 0.500020 -0.551878
C1    C     C_R   0.340950 0.500000 0.500015 0.808409
C2    C     C_R   0.659050 0.500000 0.499985 0.808411
O5    O     O_R   0.500010 0.575340 0.337190 -0.564742
O6    O     O_R   0.499990 0.424660 0.662810 -0.564697
O7    O     O_R   0.499990 0.575340 0.662810 -0.564741
O8    O     O_R   0.500010 0.424660 0.337190 -0.564696
C3    C     C_R   0.500012 0.500000 0.283448 0.819275
C4    C     C_R   0.499987 0.500000 0.716552 0.819275
Cu1   Cu    Cu3+1 0.500000 0.589220 0.500000 1.078791
Cu2   Cu    Cu3+1 0.500000 0.410780 0.500000 1.079221
C5    C     C_R   0.574592 0.951930 0.518264 0.316428
C6    C     C_R   0.425406 0.048069 0.481746 0.316828
C7    C     C_R   0.425408 0.951930 0.481735 0.316428
C8    C     C_R   0.574593 0.048069 0.518254 0.316829
C9    C     C_1   0.500000 0.802579 0.500000 0.403288
C10   C     C_1   0.500000 0.197421 0.500000 0.404046
N1    N     N_1   0.500000 0.276710 0.500000 -0.135560
N2    N     N_1   0.500000 0.723290 0.500000 -0.135644
C11   C     C_1   0.500009 0.500000 0.162014 -0.118033
C12   C     C_1   0.499991 0.500000 0.837986 -0.118033
C13   C     C_1   0.500003 0.500000 0.059759 0.052817
C14   C     C_1   0.499996 0.500000 0.940241 0.052817
C15   C     C_R   0.956049 0.582927 0.499908 0.215662
C16   C     C_R   0.043951 0.417071 0.499850 0.215414
C17   C     C_R   0.043950 0.582928 0.500096 0.215658
C18   C     C_R   0.956050 0.417071 0.500132 0.215417
C19   C     C_R   0.912584 0.499999 0.500033 -0.194737
C20   C     C_R   0.087416 0.500000 0.499961 -0.194737
C21   C     C_1   0.822863 0.500001 0.500028 0.177359
C22   C     C_1   0.177137 0.500002 0.499968 0.177365
C23   C     C_1   0.252051 0.500001 0.499989 -0.053950
C24   C     C_1   0.747949 0.500001 0.500010 -0.053953
C25   C     C_R   0.500000 0.902857 0.500000 -0.284922
C26   C     C_R   0.500000 0.097142 0.500000 -0.284433
Cl1   Cl    Cl    0.668963 0.107282 0.541296 -0.386755
Cl2   Cl    Cl    0.331045 0.892715 0.458644 -0.384491
Cl3   Cl    Cl    0.331037 0.107282 0.458704 -0.386753
Cl4   Cl    Cl    0.668955 0.892715 0.541355 -0.384492
N3    N     N_R   0.088833 0.667177 0.503956 0.177486
O9    O     O_R   0.148417 0.683633 0.431397 -0.270834
O10   O     O_R   0.069634 0.728206 0.579511 -0.212776
N4    N     N_R   0.911167 0.332820 0.504069 0.178499
O11   O     O_R   0.851588 0.316358 0.431607 -0.276098
O12   O     O_R   0.930350 0.271804 0.579616 -0.209381
N5    N     N_R   0.911165 0.667176 0.496062 0.177487
O13   O     O_R   0.851595 0.683631 0.568639 -0.270826
O14   O     O_R   0.930353 0.728205 0.420504 -0.212783
N6    N     N_R   0.088834 0.332821 0.495900 0.178498
O15   O     O_R   0.148411 0.316352 0.568363 -0.276091
O16   O     O_R   0.069653 0.271814 0.420341 -0.209389

loop_
_geom_bond_atom_site_label_1
_geom_bond_atom_site_label_2
_geom_bond_distance
_ccdc_geom_bond_type
C5    C8    1.421073 A    
N3    O9    1.301264 A    
C19   C21   1.437165 S    
C15   C17   1.408022 A    
N3    O10   1.301245 A    
C4    C12   1.424216 S    
O3    Cu1   1.928204 S    
O6    C4    1.279632 A    
C8    Cl1   1.767666 S    
O3    C2    1.279458 A    
C21   C24   1.200007 T    
C2    C24   1.424002 S    
C16   C18   1.408022 A    
C8    C26   1.414212 A    
C7    C25   1.414210 A    
Cu1   Cu2   2.637599 S    
N6    O15   1.301251 A    
O5    C3    1.279631 A    
C16   N6    1.438692 S    
O2    C2    1.279465 A    
O1    C1    1.279459 A    
O4    C1    1.279466 A    
C1    C23   1.424002 S    
Cu2   N1    1.981749 S    
C3    C11   1.424216 S    
N6    O16   1.301247 A    
Cu1   N2    1.981749 S    
C22   C23   1.200007 T    
C17   C20   1.409729 A    
C11   C13   1.199268 T    
O4    Cu2   1.928204 S    
C18   C19   1.409738 A    
O2    Cu2   1.928204 S    
O7    C4    1.279630 A    
N4    O12   1.301246 A    
O1    Cu1   1.928204 S    
O8    C3    1.279632 A    
C15   C19   1.409726 A    
O5    Cu1   1.920468 S    
C9    N2    1.172001 T    
C10   C26   1.482273 S    
C10   N1    1.172006 T    
N5    O13   1.301241 A    
O8    Cu2   1.920468 S    
C6    C26   1.414213 A    
O7    Cu1   1.920468 S    
N4    O11   1.301253 A    
C5    C25   1.414209 A    
O6    Cu2   1.920468 S    
C9    C25   1.482264 S    
C13   C14   1.401739 S    
C6    Cl3   1.767666 S    
C18   N4    1.438693 S    
C16   C20   1.409739 A    
C17   N3    1.438690 S    
C15   N5    1.438682 S    
C5    Cl4   1.767671 S    
C12   C14   1.199268 T    
C6    C7    1.421073 A    
N5    O14   1.301232 A    
C7    Cl2   1.767671 S    
C20   C22   1.437165 S    
