data_mof_unit_12230.cif
_audit_creation_date              2013-03-05T16:13:53-0500
_audit_creation_method            fapswitch 2.2
_symmetry_space_group_name_H-M    P1
_symmetry_Int_Tables_number       1
_space_group_crystal_system       triclinic
_cell_length_a                    20.570777
_cell_length_b                    22.508899
_cell_length_c                    6.967101
_cell_angle_alpha                 90.000598
_cell_angle_beta                  87.661908
_cell_angle_gamma                 90.000325
_cell_volume                      3223.26009443

loop_
_atom_site_label
_atom_site_type_symbol
_atom_site_description
_atom_site_fract_x
_atom_site_fract_y
_atom_site_fract_z
_atom_type_partial_charge
O1    O     O_R   0.751270 0.447300 0.600030 -0.605709
O2    O     O_R   0.248730 0.947300 0.399970 -0.605708
O3    O     O_R   0.613530 0.440160 0.952150 -0.593859
O4    O     O_R   0.386470 0.940160 0.047850 -0.593863
O5    O     O_R   0.613050 0.552700 0.122560 -0.597184
O6    O     O_R   0.386950 0.052700 0.877440 -0.597212
C1    C     C_R   0.592179 0.425845 0.786824 0.934480
C2    C     C_R   0.407817 0.925841 0.213175 0.934452
O7    O     O_R   0.750780 0.440350 0.929820 -0.606583
O8    O     O_R   0.249220 0.940350 0.070180 -0.606590
O9    O     O_R   0.751280 0.552900 0.100070 -0.592426
O10   O     O_R   0.248720 0.052900 0.899930 -0.592377
C3    C     C_R   0.772955 0.425198 0.759614 0.901657
C4    C     C_R   0.227046 0.925197 0.240385 0.901647
O11   O     O_R   0.613040 0.447100 0.622520 -0.598500
O12   O     O_R   0.386960 0.947100 0.377480 -0.598504
O13   O     O_3   0.682160 0.536920 0.777780 -0.265880
O14   O     O_3   0.317840 0.036920 0.222220 -0.265842
V1    V     V_3+5 0.682160 0.493150 0.052630 1.163622
V2    V     V_3+5 0.317840 0.993150 0.947370 1.163652
O15   O     O_R   0.750790 0.559840 0.429870 -0.591569
O16   O     O_R   0.249210 0.059840 0.570130 -0.591560
C5    C     C_R   0.777375 0.570886 0.261034 1.038280
C6    C     C_R   0.222631 0.070895 0.738970 1.038355
O17   O     O_R   0.613540 0.559650 0.452200 -0.543523
O18   O     O_R   0.386460 0.059650 0.547800 -0.543514
C7    C     C_R   0.591205 0.573983 0.286177 1.016790
C8    C     C_R   0.408793 0.073985 0.713825 1.016925
V3    V     V_3+5 0.682160 0.506850 0.552630 1.184840
V4    V     V_3+5 0.317840 0.006850 0.447370 1.184858
O19   O     O_3   0.682150 0.463080 0.277610 -0.292022
O20   O     O_3   0.317850 0.963080 0.722390 -0.292035
C9    C     C_R   0.574325 0.863063 0.140276 -0.135074
C10   C     C_R   0.425670 0.363073 0.859736 -0.135090
H1    H     H_    0.532736 0.950024 0.131419 0.106536
H2    H     H_    0.467264 0.450032 0.868614 0.106542
H3    H     H_    0.664798 0.783055 0.160574 0.172326
H4    H     H_    0.335196 0.283066 0.839512 0.172296
H5    H     H_    0.622886 0.879625 0.105590 0.112244
H6    H     H_    0.377112 0.379636 0.894445 0.112248
C11   C     C_R   0.461056 0.883382 0.209220 -0.090928
C12   C     C_R   0.538938 0.383390 0.790772 -0.090937
C13   C     C_R   0.473889 0.594591 0.306798 -0.259683
C14   C     C_R   0.526100 0.094603 0.693146 -0.259728
C15   C     C_R   0.419052 0.630943 0.295850 0.242206
C16   C     C_R   0.580936 0.130958 0.704056 0.242220
C17   C     C_R   0.427655 0.692064 0.261476 -0.178584
C18   C     C_R   0.572331 0.192078 0.738438 -0.178586
C19   C     C_R   0.490265 0.717800 0.242427 0.036204
C20   C     C_R   0.509721 0.217810 0.757533 0.036192
C21   C     C_R   0.545762 0.679923 0.252893 -0.050714
C22   C     C_R   0.454223 0.179930 0.747119 -0.050711
C23   C     C_R   0.499516 0.780449 0.215526 0.108836
C24   C     C_R   0.500472 0.280458 0.784442 0.108827
C25   C     C_R   0.563125 0.802398 0.172773 0.130534
C26   C     C_R   0.436867 0.302408 0.827226 0.130582
C27   C     C_R   0.616134 0.764681 0.177140 -0.337324
C28   C     C_R   0.383858 0.264691 0.822907 -0.337444
C29   C     C_R   0.608344 0.705902 0.234416 0.342679
C30   C     C_R   0.391640 0.205906 0.765681 0.342607
C31   C     C_R   0.448575 0.822639 0.235741 -0.237568
C32   C     C_R   0.551413 0.322648 0.764218 -0.237575
C33   C     C_R   0.523442 0.903249 0.157382 -0.179775
C34   C     C_R   0.476555 0.403258 0.842631 -0.179792
C35   C     C_R   0.536879 0.617565 0.284216 -0.168685
C36   C     C_R   0.463111 0.117572 0.715783 -0.168731
H7    H     H_    0.399199 0.810141 0.275087 0.096321
H8    H     H_    0.600787 0.310151 0.724849 0.096323
H9    H     H_    0.467330 0.547291 0.330633 0.107391
H10   H     H_    0.532660 0.047304 0.669296 0.107389
H11   H     H_    0.385172 0.718966 0.245391 0.100251
H12   H     H_    0.614814 0.218981 0.754493 0.100250
C37   C     C_R   0.176487 0.877199 0.245340 -0.135209
C38   C     C_R   0.823519 0.377205 0.754659 -0.135206
C39   C     C_R   0.138403 0.868074 0.084385 -0.220283
C40   C     C_R   0.861602 0.368084 0.915616 -0.220294
C41   C     C_R   0.096016 0.818937 0.070155 0.173939
C42   C     C_R   0.903993 0.318950 0.929847 0.173933
C43   C     C_R   0.089626 0.778036 0.226403 0.149354
C44   C     C_R   0.910391 0.278052 0.773589 0.149349
C45   C     C_R   0.128920 0.787038 0.384612 -0.208610
C46   C     C_R   0.871095 0.287050 0.615383 -0.208607
C47   C     C_R   0.171104 0.835967 0.395638 -0.181685
C48   C     C_R   0.828905 0.335973 0.604360 -0.181679
C49   C     C_R   0.907569 0.693157 0.362563 0.165169
C50   C     C_R   0.092467 0.193199 0.637521 0.165135
C51   C     C_R   0.857891 0.649444 0.403436 0.151475
C52   C     C_R   0.142138 0.149483 0.596616 0.151321
C53   C     C_R   0.946514 0.689274 0.190677 0.152436
C54   C     C_R   0.053506 0.189298 0.809371 0.152495
N1    N     N_2   0.044349 0.729222 0.240477 -0.106744
N2    N     N_2   0.955678 0.229247 0.759492 -0.106719
N3    N     N_2   0.994668 0.733498 0.143553 -0.095208
N4    N     N_2   0.005342 0.233512 0.856497 -0.095175
C55   C     C_R   0.838314 0.609967 0.252280 -0.170028
C56   C     C_R   0.161705 0.109991 0.747744 -0.169598
H13   H     H_    0.126231 0.755689 0.502540 0.122894
H14   H     H_    0.873788 0.255700 0.497453 0.122898
H15   H     H_    0.200847 0.840549 0.519505 0.130545
H16   H     H_    0.799161 0.340552 0.480494 0.130542
C57   C     C_R   0.879166 0.607150 0.085437 -0.252829
C58   C     C_R   0.120855 0.107173 0.914591 -0.252650
C59   C     C_R   0.932739 0.645262 0.056924 -0.215076
C60   C     C_R   0.067274 0.145276 0.943097 -0.215517
H17   H     H_    0.869105 0.575326 0.974026 0.142109
H18   H     H_    0.130913 0.075346 0.025992 0.142078
H19   H     H_    0.962398 0.642025 0.925359 0.127546
H20   H     H_    0.037609 0.142030 0.074648 0.127649
H21   H     H_    0.143114 0.898732 0.964555 0.140851
H22   H     H_    0.856885 0.398741 0.035451 0.140861
C61   C     C_3   0.917405 0.746266 0.495412 -0.428060
C62   C     C_3   0.870388 0.797673 0.456525 -0.221062
C63   C     C_3   0.887353 0.830186 0.268969 -0.891544
H23   H     H_    0.938432 0.846066 0.267420 0.253587
H24   H     H_    0.880289 0.800547 0.144238 0.263460
H25   H     H_    0.854865 0.869227 0.255644 0.238981
H26   H     H_    0.819686 0.781496 0.452004 0.214403
H27   H     H_    0.872510 0.830186 0.576139 0.183150
H28   H     H_    0.913539 0.733517 0.647898 0.157835
H29   H     H_    0.967522 0.763673 0.484592 0.197560
C64   C     C_3   0.082667 0.246333 0.504760 -0.428109
C65   C     C_3   0.129670 0.297731 0.543898 -0.221074
C66   C     C_3   0.112619 0.330233 0.731421 -0.891501
H30   H     H_    0.061542 0.346120 0.732752 0.253589
H31   H     H_    0.119620 0.300584 0.856174 0.263434
H32   H     H_    0.145105 0.369268 0.744911 0.238966
H33   H     H_    0.180369 0.281539 0.548621 0.214376
H34   H     H_    0.127608 0.330256 0.424296 0.183092
H35   H     H_    0.086597 0.233618 0.352248 0.158087
H36   H     H_    0.032543 0.263728 0.515475 0.197551
C67   C     C_3   0.064778 0.810466 0.879051 -0.442708
C68   C     C_3   0.004416 0.850332 0.859857 -0.229033
C69   C     C_3   0.008144 0.887031 0.675201 -0.926779
H37   H     H_    0.049736 0.918471 0.677672 0.259595
H38   H     H_    0.014548 0.857746 0.547837 0.270280
H39   H     H_    0.962559 0.912890 0.662517 0.250058
H40   H     H_    0.960137 0.822064 0.860015 0.190581
H41   H     H_    0.998690 0.881638 0.982824 0.200575
H42   H     H_    0.102097 0.821168 0.764878 0.198703
H43   H     H_    0.052647 0.763320 0.851372 0.169739
C70   C     C_3   0.935214 0.310474 0.120977 -0.442701
C71   C     C_3   0.995568 0.350345 0.140258 -0.229051
C72   C     C_3   0.991818 0.387032 0.324939 -0.926746
H44   H     H_    0.950222 0.418467 0.322463 0.259597
H45   H     H_    0.985409 0.357738 0.452278 0.270267
H46   H     H_    0.037398 0.412896 0.337678 0.250056
H47   H     H_    0.039850 0.322081 0.140129 0.190617
H48   H     H_    0.001304 0.381660 0.017317 0.200588
H49   H     H_    0.897882 0.321168 0.235120 0.198701
H50   H     H_    0.947347 0.263328 0.148646 0.169747
C73   C     C_3   0.352629 0.601607 0.320198 -0.451429
C74   C     C_3   0.293712 0.643514 0.312164 -0.258314
C75   C     C_3   0.229868 0.609692 0.343979 -0.910948
H51   H     H_    0.224959 0.575273 0.231217 0.260026
H52   H     H_    0.227931 0.588118 0.487505 0.258965
H53   H     H_    0.188372 0.641089 0.336811 0.251342
H54   H     H_    0.296519 0.678065 0.425611 0.198040
H55   H     H_    0.293330 0.665386 0.169125 0.198524
H56   H     H_    0.348715 0.567370 0.206133 0.189033
H57   H     H_    0.350318 0.578381 0.461246 0.193243
C76   C     C_3   0.647358 0.101626 0.679658 -0.451421
C77   C     C_3   0.706273 0.143537 0.687664 -0.258348
C78   C     C_3   0.770115 0.109718 0.655809 -0.910967
H58   H     H_    0.775033 0.075299 0.768560 0.260036
H59   H     H_    0.772043 0.088145 0.512283 0.258974
H60   H     H_    0.811609 0.141117 0.662958 0.251344
H61   H     H_    0.703456 0.178088 0.574227 0.198046
H62   H     H_    0.706663 0.165408 0.830702 0.198534
H63   H     H_    0.651282 0.067388 0.793710 0.189038
H64   H     H_    0.649659 0.078403 0.538607 0.193244
N5    N     N_R   0.662549 0.678500 0.316996 0.202751
O21   O     O_R   0.720194 0.686488 0.238453 -0.506949
O22   O     O_R   0.656719 0.665528 0.498433 -0.459635
N6    N     N_R   0.337407 0.178482 0.683310 0.202701
O23   O     O_R   0.279782 0.186482 0.761980 -0.506769
O24   O     O_R   0.343182 0.165470 0.501896 -0.459729
C79   C     C_3   0.836203 0.639733 0.613575 -0.481737
C80   C     C_3   0.777584 0.677803 0.682688 -0.069415
C81   C     C_3   0.789767 0.719600 0.850330 -0.942766
H65   H     H_    0.808995 0.695216 0.972746 0.311326
H66   H     H_    0.823546 0.756004 0.809631 0.235671
H67   H     H_    0.742967 0.740544 0.897953 0.274934
H68   H     H_    0.760734 0.705518 0.564254 0.246042
H69   H     H_    0.737993 0.647227 0.731710 0.251074
H70   H     H_    0.826353 0.592141 0.642077 0.179023
H71   H     H_    0.877886 0.646920 0.705153 0.181596
C82   C     C_3   0.163816 0.139787 0.386461 -0.481711
C83   C     C_3   0.222420 0.177877 0.317318 -0.069030
C84   C     C_3   0.210196 0.219744 0.149871 -0.943203
H72   H     H_    0.190648 0.195495 0.027691 0.311155
H73   H     H_    0.176698 0.256290 0.191087 0.235568
H74   H     H_    0.257024 0.240499 0.101691 0.275203
H75   H     H_    0.239302 0.205552 0.435818 0.245973
H76   H     H_    0.261999 0.147312 0.268093 0.250959
H77   H     H_    0.173683 0.092200 0.357927 0.179034
H78   H     H_    0.122121 0.146966 0.294919 0.181532

loop_
_geom_bond_atom_site_label_1
_geom_bond_atom_site_label_2
_geom_bond_distance
_ccdc_geom_bond_type
C9    C25   1.401678 A    
C72   H46   1.110258 S    
V4    O20   2.154561 S    
N5    O21   1.298044 A    
C52   C56   1.447567 A    
C10   C26   1.401678 A    
C56   C58   1.407734 A    
C82   H78   1.101442 S    
C30   N6    1.416760 S    
C65   H34   1.111320 S    
C23   C25   1.418848 A    
C14   C36   1.398004 A    
C61   C62   1.539205 S    
C11   C31   1.402003 A    
C64   H36   1.102612 S    
O4    C2    1.290243 A    
V1    O19   1.707348 S    
C76   C77   1.538615 S    
C70   H49   1.109176 S    
C66   H30   1.109559 S    
C17   C19   1.413516 A    
N5    O22   1.298149 A    
O9    V1    1.994491 S    
C20   C24   1.434201 A    
C38   C40   1.408944 A    
C5    C55   1.530594 S    
C10   H6    1.084208 S    
C78   H59   1.110874 S    
C40   C42   1.414360 A    
C77   C78   1.526326 S    
O3    C1    1.290246 A    
C6    C56   1.530585 S    
C21   C35   1.431051 A    
C62   H26   1.106384 S    
C42   C44   1.427678 A    
C66   H31   1.109860 S    
C51   C79   1.528716 S    
C28   C30   1.389311 A    
C72   H44   1.111008 S    
C79   H70   1.106699 S    
O14   V2    2.153483 S    
C61   H28   1.100203 S    
C41   C67   1.513878 S    
C1    C12   1.452920 S    
C65   H33   1.106503 S    
C84   H73   1.103563 S    
O7    C3    1.298643 A    
N6    O23   1.298057 A    
C67   H43   1.108832 S    
C22   C30   1.415054 A    
O5    C7    1.299651 A    
C23   C31   1.416945 A    
O7    V1    2.009613 S    
C52   C82   1.528728 S    
O6    C8    1.299640 A    
C78   H58   1.110877 S    
O8    V2    2.009612 S    
C68   C69   1.528178 S    
C19   C21   1.429074 A    
C16   C76   1.520772 S    
C51   C55   1.447550 A    
C69   H39   1.110258 S    
C20   C22   1.429087 A    
C73   C74   1.538627 S    
O11   V3    2.002759 S    
O14   V4    1.708443 S    
C75   H52   1.110892 S    
C12   C32   1.401985 A    
C43   N1    1.441123 S    
C80   H68   1.101592 S    
C9    C33   1.384871 A    
C81   H67   1.110442 S    
C76   H63   1.112244 S    
C18   C20   1.413508 A    
C83   H76   1.109527 S    
C2    O12   1.297458 A    
H4    C28   1.084912 S    
C53   C59   1.397014 A    
O17   V3    1.993790 S    
C46   H14   1.082747 S    
C18   H12   1.072799 S    
C29   N5    1.416735 S    
N2    N4    1.251411 D    
C62   C63   1.525680 S    
C45   C47   1.406149 A    
C14   C16   1.398126 A    
C70   H50   1.108833 S    
C54   N4    1.432941 S    
C74   H55   1.111854 S    
C15   C17   1.406414 A    
C57   H17   1.082372 S    
C16   C18   1.406393 A    
C39   H21   1.084448 S    
C49   C51   1.438673 A    
C48   H16   1.082961 S    
C4    C37   1.499051 S    
C80   C81   1.528376 S    
C78   H60   1.110870 S    
C67   H42   1.109186 S    
C2    C11   1.452929 S    
C44   C46   1.407873 A    
C50   C54   1.416078 A    
C42   C70   1.513892 S    
C64   H35   1.100222 S    
C43   C45   1.407876 A    
C49   C53   1.416084 A    
C66   H32   1.110193 S    
C1    O11   1.297450 A    
C24   C32   1.416939 A    
C68   H40   1.111050 S    
O15   V3    2.012145 S    
C79   H71   1.101406 S    
C77   H61   1.111999 S    
C83   C84   1.528479 S    
C15   C73   1.520796 S    
C73   H56   1.112256 S    
C44   N2    1.441123 S    
C84   H74   1.110157 S    
C8    C36   1.487451 S    
C7    C35   1.487495 S    
C71   H48   1.111835 S    
N1    N3    1.251415 D    
C13   C15   1.398152 A    
C31   H7    1.078534 S    
C13   C35   1.398025 A    
C17   H11   1.072810 S    
O3    V1    1.996602 S    
O10   V2    1.994506 S    
C50   C64   1.530306 S    
C10   C34   1.384863 A    
C41   C43   1.427664 A    
C9    H5    1.084221 S    
C74   C75   1.526359 S    
C75   H53   1.110879 S    
C58   C60   1.404285 A    
C39   C41   1.414361 A    
C54   C60   1.397016 A    
C64   C65   1.539205 S    
C77   H62   1.111839 S    
C76   H64   1.112394 S    
C83   H75   1.101651 S    
O18   V4    1.993772 S    
C46   C48   1.406144 A    
O15   C5    1.300799 A    
O8    C4    1.298646 A    
C69   H37   1.111005 S    
O16   C6    1.300806 A    
O1    C3    1.312686 A    
C37   C39   1.408943 A    
C67   C68   1.542222 S    
C12   C34   1.392653 A    
C60   H20   1.082640 S    
C22   C36   1.431065 A    
C14   H10   1.085112 S    
C59   H19   1.082639 S    
C63   H23   1.109492 S    
V2    O20   1.707334 S    
C68   H41   1.111823 S    
C72   H45   1.108924 S    
C74   H54   1.112015 S    
O16   V4    2.012144 S    
C82   H77   1.106684 S    
C71   H47   1.111059 S    
C38   C48   1.400230 A    
C49   C61   1.530330 S    
H1    C33   1.083933 S    
C24   C26   1.418823 A    
H3    C27   1.084930 S    
O5    V1    1.999656 S    
O17   C7    1.302501 A    
O6    V2    1.999656 S    
O10   C6    1.326190 A    
O18   C8    1.302492 A    
C57   C59   1.404281 A    
C32   H8    1.078521 S    
O2    V4    1.991254 S    
C73   H57   1.112406 S    
C63   H25   1.110192 S    
C25   C27   1.383260 A    
C65   C66   1.525701 S    
C82   C83   1.540463 S    
V3    O19   2.154543 S    
H2    C34   1.083932 S    
C70   C71   1.542225 S    
C62   H27   1.111268 S    
O1    V3    1.991271 S    
C45   H13   1.082747 S    
C19   C23   1.434210 A    
O9    C5    1.326200 A    
O13   V1    2.153501 S    
C26   C28   1.383242 A    
C58   H18   1.082376 S    
C50   C52   1.438646 A    
C53   N3    1.432947 S    
C84   H72   1.100980 S    
O2    C4    1.312686 A    
N6    O24   1.298135 A    
C27   C29   1.389307 A    
C81   H65   1.101199 S    
O4    V2    1.996622 S    
O13   V3    1.708430 S    
C21   C29   1.415015 A    
C3    C38   1.499046 S    
C40   H22   1.084449 S    
C79   C80   1.540417 S    
C69   H38   1.108925 S    
C11   C33   1.392670 A    
C71   C72   1.528178 S    
C61   H29   1.102601 S    
C47   H15   1.082961 S    
C81   H66   1.103901 S    
C75   H51   1.110893 S    
C13   H9    1.085116 S    
O12   V4    2.002764 S    
C37   C47   1.400235 A    
C80   H69   1.109460 S    
C55   C57   1.407735 A    
C63   H24   1.109814 S    
