data_mof_unit_36617.cif
_audit_creation_date              2012-12-10T20:39:57-0500
_audit_creation_method            fapswitch 2.2
_symmetry_space_group_name_H-M    P1
_symmetry_Int_Tables_number       1
_space_group_crystal_system       triclinic
_cell_length_a                    23.42949
_cell_length_b                    10.672688
_cell_length_c                    9.845309
_cell_angle_alpha                 89.949631
_cell_angle_beta                  89.71896
_cell_angle_gamma                 90.078995
_cell_volume                      2461.84208936

loop_
_atom_site_label
_atom_site_type_symbol
_atom_type_description
_atom_site_fract_x
_atom_site_fract_y
_atom_site_fract_z
_atom_type_partial_charge
C1    C     C_R   0.501753 0.259878 0.500059 0.887705
C2    C     C_R   0.969983 0.273187 0.504606 -0.134221
C3    C     C_R   0.029393 0.272949 0.504404 -0.150019
C4    C     C_R   0.059747 0.386436 0.502594 -0.015789
C5    C     C_R   0.030012 0.501106 0.501264 -0.015470
C6    C     C_R   0.060091 0.615527 0.499602 -0.015762
C7    C     C_R   0.030074 0.729268 0.498798 -0.150674
C8    C     C_R   0.970660 0.729518 0.499294 -0.140286
C9    C     C_R   0.119337 0.388621 0.501852 0.506242
C10   C     C_R   0.119679 0.612834 0.499063 0.505873
C11   C     C_R   0.237582 0.469052 0.618600 -0.095683
C12   C     C_R   0.389299 0.499908 0.500234 0.875231
C13   C     C_R   0.296803 0.468945 0.618846 -0.218548
C14   C     C_R   0.327090 0.500033 0.500252 -0.042060
C15   C     C_R   0.297453 0.531045 0.381312 -0.215567
C16   C     C_R   0.238204 0.531312 0.381391 -0.095417
C17   C     C_R   0.208388 0.500332 0.499996 0.316573
C18   C     C_R   0.762235 0.497738 0.371955 0.510462
C19   C     C_R   0.702751 0.497157 0.374309 -0.284454
C20   C     C_R   0.673016 0.500811 0.498388 -0.124755
C21   C     C_R   0.703117 0.505186 0.620941 -0.177428
C22   C     C_R   0.762256 0.505768 0.619448 -0.146475
C23   C     C_R   0.501887 0.740090 0.499937 0.887953
C24   C     C_R   0.791794 0.501966 0.495961 0.173709
C25   C     C_R   0.510479 0.063737 0.623336 0.154578
C26   C     C_R   0.510983 0.128557 0.500614 -0.109165
C27   C     C_R   0.522588 0.064949 0.378961 -0.206665
C28   C     C_R   0.522717 0.935376 0.378919 -0.207449
C29   C     C_R   0.511225 0.871403 0.500524 -0.107315
C30   C     C_R   0.510662 0.935947 0.623316 0.136172
C31   C     C_3   0.469578 0.928247 0.739738 -0.470972
C32   C     C_3   0.469243 0.070246 0.739483 -0.491610
C33   C     C_R   0.474139 0.405085 0.071831 0.216318
C34   C     C_R   0.610737 0.500218 0.499598 0.908385
C35   C     C_R   0.529998 0.587084 0.071601 -0.117098
C36   C     C_R   0.530016 0.587073 0.927473 -0.122328
C37   C     C_R   0.473907 0.405430 0.929076 0.220935
C38   C     C_3   0.412053 0.372800 0.925342 -0.523567
C39   C     C_3   0.412602 0.370611 0.079327 -0.494617
C40   C     C_R   0.880744 0.613797 0.499705 0.593072
C41   C     C_R   0.880422 0.389599 0.502003 0.582430
C42   C     C_R   0.939984 0.386910 0.502906 -0.025265
C43   C     C_R   0.970058 0.501351 0.501474 -0.023921
C44   C     C_R   0.940320 0.616035 0.500382 -0.029690
H1    H     H_    0.947709 0.184183 0.505739 0.196451
H2    H     H_    0.679628 0.493587 0.279469 0.206991
H3    H     H_    0.681075 0.508200 0.717843 0.188631
H4    H     H_    0.785386 0.508974 0.714373 0.183217
H5    H     H_    0.527515 0.114130 0.283294 0.174061
H6    H     H_    0.527716 0.886430 0.283244 0.168377
H7    H     H_    0.427887 0.886272 0.710862 0.211205
H8    H     H_    0.489483 0.887527 0.832038 0.204411
H9    H     H_    0.427394 0.110769 0.709901 0.202490
H10   H     H_    0.488795 0.111679 0.831820 0.208306
H11   H     H_    0.553296 0.658771 0.125762 0.150073
H12   H     H_    0.051392 0.183754 0.505514 0.193624
H13   H     H_    0.553335 0.658736 0.872637 0.152122
H14   H     H_    0.385753 0.450209 0.883865 0.215852
H15   H     H_    0.404169 0.279355 0.879607 0.201780
H16   H     H_    0.385872 0.445273 0.125639 0.217551
H17   H     H_    0.406097 0.275421 0.122668 0.206538
H18   H     H_    0.052340 0.818282 0.497684 0.194087
H19   H     H_    0.948649 0.818700 0.498414 0.196591
H20   H     H_    0.214281 0.444957 0.710258 0.142020
H21   H     H_    0.318711 0.443405 0.711071 0.152060
H22   H     H_    0.319950 0.556115 0.288875 0.154313
H23   H     H_    0.215379 0.555438 0.289652 0.142150
N1    N     N_R   0.852460 0.501786 0.498363 -0.347007
N2    N     N_R   0.147706 0.500605 0.500088 -0.361235
N3    N     N_R   0.499610 0.499140 0.142800 -0.110656
N4    N     N_R   0.499610 0.499180 0.857150 -0.108967
O1    O     O_R   0.500010 0.316790 0.614690 -0.614502
O2    O     O_2   0.850501 0.281431 0.504205 -0.511793
O3    O     O_2   0.148856 0.280089 0.502129 -0.545863
O4    O     O_2   0.149528 0.721109 0.498345 -0.545794
O5    O     O_R   0.500000 0.316760 0.385350 -0.622040
O6    O     O_R   0.416160 0.499980 0.614700 -0.621478
O7    O     O_R   0.416150 0.499940 0.385360 -0.621439
O8    O     O_R   0.500000 0.683240 0.614650 -0.620935
O9    O     O_R   0.499990 0.683210 0.385310 -0.626478
O10   O     O_R   0.583850 0.500060 0.614640 -0.620068
O11   O     O_R   0.583840 0.500020 0.385300 -0.618868
O12   O     O_2   0.851134 0.722205 0.499465 -0.509762
Zn1   Zn    Zn3+2 0.500000 0.500020 0.653130 0.954788
Zn2   Zn    Zn3+2 0.500000 0.499980 0.346870 0.954554
S1    S     S_3+6 0.798829 0.492444 0.214316 0.038597
O13   O     O_2   0.832962 0.373530 0.206466 -0.272341
O14   O     O_2   0.757384 0.496155 0.098281 -0.306839
O15   O     O_3   0.843287 0.615771 0.202230 -0.531948
H24   H     H_    0.866851 0.599182 0.120418 0.383805

loop_
_geom_bond_atom_site_label_1
_geom_bond_atom_site_label_2
_ccdc_geom_bond_type
C22   H4    S    
C17   N2    S    
C41   C42   A    
C19   C20   A    
C31   H8    S    
C19   H2    S    
C7    C8    A    
C13   H21   S    
C26   C27   A    
C37   C38   S    
C18   C24   A    
C23   C29   S    
C28   C29   A    
C9    N2    A    
O8    Zn1   S    
S1    O14   D    
C15   C16   A    
C18   C19   A    
C10   O4    S    
C38   H14   S    
C28   H6    S    
C33   C39   S    
C35   C36   A    
C35   N3    A    
C16   C17   A    
C12   O7    A    
C34   O10   A    
C23   O9    A    
C29   C30   A    
C42   C43   A    
C36   N4    A    
C20   C34   S    
C25   C32   S    
C5    C43   A    
C13   C14   A    
C40   O12   S    
C32   H10   S    
C41   N1    A    
C2    H1    S    
C38   C39   S    
C39   H17   S    
C1    O1    A    
C35   H11   S    
C36   H13   S    
S1    O13   D    
O6    Zn1   S    
C25   C26   A    
C15   H22   S    
C33   C37   A    
C43   C44   A    
C7    H18   S    
O9    Zn2   S    
C3    H12   S    
C31   C32   S    
C30   C31   S    
C12   O6    A    
C16   H23   S    
C18   S1    S    
O1    Zn1   S    
C33   N3    A    
O7    Zn2   S    
C12   C14   S    
C11   H20   S    
C37   N4    A    
C1    C26   S    
C22   C24   A    
C9    O3    S    
C3    C4    A    
C32   H9    S    
O10   Zn1   S    
N4    Zn1   S    
C25   C30   A    
C11   C17   A    
C1    O5    A    
C8    C44   A    
C31   H7    S    
C4    C5    A    
S1    O15   S    
C6    C10   A    
C6    C7    A    
O11   Zn2   S    
C2    C3    A    
C4    C9    A    
C11   C13   A    
C5    C6    A    
C2    C42   A    
C39   H16   S    
C24   N1    S    
C8    H19   S    
C41   O2    S    
C38   H15   S    
C10   N2    A    
C40   C44   A    
C20   C21   A    
C40   N1    A    
C27   C28   A    
C14   C15   A    
C34   O11   A    
C23   O8    A    
O15   H24   S    
C21   C22   A    
N3    Zn2   S    
O5    Zn2   S    
C27   H5    S    
C21   H3    S    
