data_mof_unit_29953.cif
_audit_creation_date              2012-12-11T14:08:22-0500
_audit_creation_method            fapswitch 2.2
_symmetry_space_group_name_H-M    P1
_symmetry_Int_Tables_number       1
_space_group_crystal_system       triclinic
_cell_length_a                    11.072658
_cell_length_b                    11.091569
_cell_length_c                    18.696917
_cell_angle_alpha                 90.003409
_cell_angle_beta                  89.465703
_cell_angle_gamma                 59.516256
_cell_volume                      1978.71034625

loop_
_atom_site_label
_atom_site_type_symbol
_atom_type_description
_atom_site_fract_x
_atom_site_fract_y
_atom_site_fract_z
_atom_type_partial_charge
C1    C     C_R   0.240634 0.644457 0.608972 0.547111
C2    C     C_3   0.754581 0.527909 0.803696 -0.186823
C3    C     C_3   0.718470 0.683048 0.807969 0.026323
C4    C     C_3   0.653286 0.625386 0.682781 0.045265
C5    C     C_3   0.775012 0.656319 0.675746 -0.235582
C6    C     C_3   0.702182 0.498875 0.735015 0.146885
C7    C     C_2   0.668432 0.169752 0.672313 -0.079734
C8    C     C_2   0.689863 0.155984 0.826170 -0.113398
C9    C     C_2   0.798907 0.129206 0.783843 -0.144936
C10   C     C_2   0.777192 0.163771 0.707222 -0.104151
C11   C     C_2   0.192666 0.662891 0.681933 -0.125979
C12   C     C_R   0.628543 0.589544 0.610212 0.576864
C13   C     C_2   0.175637 0.670747 0.836317 -0.123107
C14   C     C_2   0.164985 0.575121 0.796856 -0.192640
C15   C     C_2   0.191232 0.561018 0.719488 -0.194862
C16   C     C_2   0.649773 0.646331 0.317175 -0.106738
C17   C     C_2   0.633217 0.666238 0.159471 -0.116794
C18   C     C_2   0.706363 0.546955 0.195315 -0.161069
C19   C     C_2   0.687280 0.538240 0.271869 -0.154519
C20   C     C_2   0.672961 0.142129 0.332597 -0.110239
C21   C     C_2   0.650003 0.148164 0.178320 -0.086240
C22   C     C_2   0.608018 0.079572 0.221803 -0.147770
C23   C     C_R   0.626257 0.231419 0.602279 0.557381
C24   C     C_2   0.592158 0.104720 0.298071 -0.164221
C25   C     C_2   0.189854 0.661407 0.326394 -0.083908
C26   C     C_2   0.181759 0.644128 0.172985 -0.107425
C27   C     C_2   0.239497 0.708476 0.205702 -0.163966
C28   C     C_2   0.268916 0.687576 0.281099 -0.143096
C29   C     C_R   0.705108 0.096886 0.896698 0.517408
C30   C     C_R   0.752363 0.707827 0.881832 0.534180
C31   C     C_R   0.114095 0.708600 0.906680 0.539864
C32   C     C_R   0.675214 0.104941 0.104717 0.550823
C33   C     C_R   0.692259 0.688891 0.094636 0.555343
C34   C     C_R   0.226591 0.647957 0.400341 0.548597
C35   C     C_R   0.098163 0.705787 0.110634 0.556486
C36   C     C_R   0.641307 0.620993 0.392633 0.553485
C37   C     C_R   0.620684 0.224645 0.397095 0.550990
C38   C     C_3   0.560071 0.785048 0.790301 -0.231776
C39   C     C_3   0.527211 0.761678 0.713472 -0.239363
C40   C     C_3   0.811200 0.696034 0.748684 -0.133314
Cr1   Cr    Cr6+3 0.393010 0.398050 0.501480 1.019961
Cr2   Cr    Cr6+3 0.398820 0.707980 0.501630 1.014370
Cr3   Cr    Cr6+3 0.708140 0.393940 0.496850 1.015151
Cr4   Cr    Cr6+3 0.937950 0.938450 0.008940 1.012331
Cr5   Cr    Cr6+3 0.626180 0.937030 0.994750 1.004463
Cr6   Cr    Cr6+3 0.937790 0.625760 0.001410 1.008477
H1    H     H_    0.532043 0.895919 0.796362 0.127820
H2    H     H_    0.797337 0.412024 0.708866 0.132024
H3    H     H_    0.921370 0.616498 0.759859 0.136340
H4    H     H_    0.872618 0.563747 0.654807 0.124455
H5    H     H_    0.904876 0.077180 0.804431 0.133728
H6    H     H_    0.851465 0.184271 0.679549 0.133570
H7    H     H_    0.583896 0.210915 0.805806 0.120278
H8    H     H_    0.599420 0.139759 0.697837 0.085317
H9    H     H_    0.133216 0.506442 0.821170 0.149835
H10   H     H_    0.212796 0.464057 0.693907 0.151542
H11   H     H_    0.212438 0.736653 0.814442 0.082195
H12   H     H_    0.491842 0.772807 0.829566 0.127084
H13   H     H_    0.166877 0.761856 0.706042 0.099241
H14   H     H_    0.792831 0.455228 0.169886 0.154951
H15   H     H_    0.717959 0.434857 0.292270 0.152457
H16   H     H_    0.541507 0.755203 0.183491 0.094884
H17   H     H_    0.617593 0.751141 0.298795 0.087824
H18   H     H_    0.578535 0.006786 0.200725 0.149591
H19   H     H_    0.503189 0.106176 0.324010 0.157429
H20   H     H_    0.680439 0.221006 0.197937 0.086167
H21   H     H_    0.766918 0.131786 0.307700 0.106748
H22   H     H_    0.250678 0.789861 0.179552 0.152151
H23   H     H_    0.426746 0.763076 0.709524 0.117944
H24   H     H_    0.350280 0.706197 0.300643 0.156463
H25   H     H_    0.180762 0.555508 0.197219 0.112464
H26   H     H_    0.107263 0.642928 0.309117 0.091664
H27   H     H_    0.510645 0.852597 0.680661 0.132889
H28   H     H_    0.742880 0.739414 0.634875 0.151248
H29   H     H_    0.870580 0.456532 0.805560 0.083688
H30   H     H_    0.718815 0.498423 0.851040 0.168406
O1    O     O_R   0.507110 0.256280 0.580300 -0.522940
O2    O     O_R   0.524640 0.695370 0.425100 -0.500037
O3    O     O_R   0.735890 0.504390 0.415980 -0.506396
O4    O     O_R   0.690560 0.277820 0.422350 -0.509448
O5    O     O_3   0.499990 0.499990 0.499980 -0.270233
O6    O     O_R   0.089190 0.825870 0.932320 -0.527671
O7    O     O_R   0.819070 0.053960 0.931440 -0.497756
O8    O     O_R   0.607070 0.076440 0.916460 -0.530300
O9    O     O_R   0.647110 0.806550 0.917690 -0.512050
O10   O     O_R   0.837080 0.593860 0.915300 -0.540173
O11   O     O_R   0.064770 0.636080 0.932550 -0.511531
O12   O     O_R   0.280830 0.527190 0.577940 -0.496410
O13   O     O_R   0.068250 0.829200 0.092940 -0.510617
O14   O     O_R   0.799650 0.057040 0.080330 -0.492463
O15   O     O_R   0.586130 0.079760 0.077080 -0.513426
O16   O     O_R   0.627700 0.809630 0.066580 -0.501512
O17   O     O_R   0.816140 0.597180 0.075920 -0.506739
O18   O     O_R   0.045360 0.639170 0.081440 -0.498412
O19   O     O_3   0.833980 0.833750 0.001700 -0.263767
O20   O     O_R   0.261360 0.738990 0.584270 -0.529862
O21   O     O_R   0.532590 0.694780 0.574370 -0.511577
O22   O     O_R   0.744470 0.503750 0.577000 -0.540911
O23   O     O_R   0.698520 0.277230 0.571620 -0.508325
O24   O     O_R   0.498530 0.256920 0.419280 -0.510667
O25   O     O_R   0.272880 0.527780 0.428680 -0.492430
O26   O     O_R   0.252780 0.739630 0.423250 -0.515018
C41   C     C_3   0.807123 0.836690 0.745587 -0.267456
C42   C     C_3   0.875638 0.851343 0.676622 -0.426793
H31   H     H_    0.945433 0.749288 0.650747 0.161509
H32   H     H_    0.795181 0.912362 0.636106 0.136742
H33   H     H_    0.936856 0.902520 0.687581 0.146318
H34   H     H_    0.698048 0.924727 0.748799 0.147118
H35   H     H_    0.863778 0.843993 0.792603 0.153236
O27   O     O_3   0.613676 0.441673 0.745818 -0.586954
C43   C     C_3   0.497397 0.512634 0.793113 0.013037
H36   H     H_    0.424240 0.483445 0.771884 0.174637
H37   H     H_    0.442557 0.625366 0.788890 0.122542
C44   C     C_3   0.518473 0.463611 0.872470 -0.286205
H38   H     H_    0.452822 0.415962 0.883684 0.142355
H39   H     H_    0.627452 0.381987 0.883711 0.176519
C45   C     C_3   0.475613 0.581942 0.927345 -0.450598
H40   H     H_    0.378016 0.678000 0.912203 0.152325
H41   H     H_    0.558216 0.609142 0.933791 0.170332
H42   H     H_    0.458622 0.547563 0.980389 0.151499

loop_
_geom_bond_atom_site_label_1
_geom_bond_atom_site_label_2
_ccdc_geom_bond_type
C7    C10   D    
C23   O23   A    
Cr2   O21   S    
C21   H20   S    
C20   H21   S    
C43   H36   S    
C1    C11   S    
Cr3   O22   S    
Cr4   O7    S    
C10   H6    S    
C42   H32   S    
C44   H38   S    
Cr4   O14   S    
C25   C28   D    
C26   C27   D    
C34   O26   A    
C31   O6    A    
C6    H2    S    
Cr2   O20   S    
C8    C29   S    
C37   O24   A    
Cr3   O23   S    
C29   O7    A    
Cr4   O6    S    
C45   H41   S    
Cr1   O1    S    
C38   C39   S    
C32   O15   A    
C13   H11   S    
Cr3   O3    S    
C40   H3    S    
C18   C19   S    
C5    H28   S    
Cr5   O16   S    
O27   C43   S    
C27   H22   S    
C12   O21   A    
C38   H12   S    
C11   C15   D    
C32   O14   A    
Cr6   O19   S    
C20   C24   D    
C3    C38   S    
C8    C9    D    
C9    H5    S    
C41   H34   S    
C16   H17   S    
C30   O10   A    
C9    C10   S    
C12   O22   A    
C1    O20   A    
C25   C34   S    
C1    O12   A    
C14   H9    S    
C21   C22   D    
C26   H25   S    
C6    O27   S    
C2    C6    S    
Cr2   O5    S    
C17   C33   S    
C11   H13   S    
Cr2   O26   S    
C42   H31   S    
C37   O4    A    
C21   C32   S    
C34   O25   A    
C31   O11   A    
C29   O8    A    
C4    C6    S    
C45   H42   S    
Cr3   O4    S    
C3    C30   S    
Cr5   O9    S    
C17   H16   S    
Cr6   O18   S    
C4    C39   S    
Cr1   O5    S    
C17   C18   D    
C39   H23   S    
Cr1   O24   S    
C43   H37   S    
C25   H26   S    
C23   O1    A    
C30   O9    A    
C38   H1    S    
C24   H19   S    
C35   O13   A    
C18   H14   S    
C3    C40   S    
Cr2   O2    S    
Cr3   O5    S    
C22   C24   S    
C5    H4    S    
C33   O16   A    
Cr5   O8    S    
C4    C12   S    
Cr5   O19   S    
C41   C42   S    
C2    H30   S    
Cr6   O11   S    
C35   O18   A    
Cr1   O12   S    
C13   C31   S    
C28   H24   S    
C4    C5    S    
C36   O3    A    
C33   O17   A    
C8    H7    S    
C44   H39   S    
C41   H35   S    
C15   H10   S    
C2    C3    S    
Cr4   O19   S    
C36   O2    A    
C45   H40   S    
C16   C36   S    
C40   C41   S    
C20   C37   S    
Cr6   O17   S    
C19   H15   S    
C16   C19   D    
C7    C23   S    
Cr1   O25   S    
C43   C44   S    
C39   H27   S    
Cr5   O15   S    
C44   C45   S    
C2    H29   S    
C22   H18   S    
C26   C35   S    
C5    C40   S    
C27   C28   S    
C14   C15   S    
C7    H8    S    
C13   C14   D    
C42   H33   S    
Cr4   O13   S    
Cr6   O10   S    
