data_mof_unit_43562.cif
_audit_creation_date              2012-12-10T17:39:19-0500
_audit_creation_method            fapswitch 2.2
_symmetry_space_group_name_H-M    P1
_symmetry_Int_Tables_number       1
_space_group_crystal_system       triclinic
_cell_length_a                    12.33331
_cell_length_b                    13.103365
_cell_length_c                    27.813731
_cell_angle_alpha                 77.759087
_cell_angle_beta                  101.324119
_cell_angle_gamma                 116.909243
_cell_volume                      3891.01574591

loop_
_atom_site_label
_atom_site_type_symbol
_atom_type_description
_atom_site_fract_x
_atom_site_fract_y
_atom_site_fract_z
_atom_type_partial_charge
C1    C     C_R   0.854490 0.285918 0.508016 0.765233
C2    C     C_R   0.080942 0.458083 0.730960 -0.070391
C3    C     C_R   0.004997 0.493130 0.747899 0.249293
C4    C     C_R   0.015991 0.490621 0.900709 -0.040755
C5    C     C_R   0.940834 0.390161 0.878803 -0.046954
C6    C     C_R   0.876761 0.287554 0.908598 -0.160054
C7    C     C_R   0.093249 0.589553 0.871634 -0.029516
C8    C     C_R   0.998284 0.497642 0.645863 -0.128051
C9    C     C_R   0.000966 0.500461 0.354685 -0.047508
C10   C     C_R   0.930853 0.395735 0.030316 0.058783
C11   C     C_R   0.086058 0.599594 0.023059 0.002784
C12   C     C_R   0.999438 0.499763 0.592506 0.860905
C13   C     C_R   0.008426 0.497977 0.051878 0.010290
C14   C     C_R   0.839465 0.306250 0.057982 -0.177412
C15   C     C_R   0.838706 0.307092 0.107687 -0.131386
C16   C     C_R   0.923288 0.401720 0.130784 -0.005199
C17   C     C_R   0.004671 0.499426 0.102500 -0.048409
C18   C     C_R   0.080362 0.599092 0.124770 -0.066668
C19   C     C_R   0.079036 0.597126 0.175363 0.572821
C20   C     C_R   0.924428 0.403280 0.181171 0.547052
C21   C     C_R   0.092041 0.483257 0.288747 -0.107513
C22   C     C_R   0.092100 0.483253 0.338860 -0.203045
C23   C     C_R   0.145355 0.713455 0.490216 0.804062
C24   C     C_R   0.910074 0.518138 0.319480 -0.220703
C25   C     C_R   0.909859 0.518226 0.269232 0.013811
C26   C     C_R   0.001127 0.500320 0.253805 0.308814
C27   C     C_R   0.940282 0.389471 0.980874 -0.003228
C28   C     C_R   0.015542 0.491676 0.951707 0.053498
C29   C     C_R   0.093348 0.594155 0.973141 0.061690
C30   C     C_R   0.882063 0.284570 0.959377 -0.042331
C31   C     C_R   0.177953 0.684907 0.894231 -0.157728
C32   C     C_R   0.147383 0.704167 0.044727 0.394952
C33   C     C_R   0.149870 0.700491 0.095693 -0.227025
C34   C     C_R   0.000440 0.500193 0.407609 0.803245
C35   C     C_R   0.181178 0.685259 0.944339 -0.115383
C36   C     C_R   0.306751 0.989637 0.406359 -0.195818
C37   C     C_R   0.229395 0.832757 0.473053 -0.092747
C38   C     C_R   0.796347 0.094327 0.561842 -0.045119
C39   C     C_R   0.715399 0.979002 0.572681 -0.195065
C40   C     C_R   0.602518 0.931965 0.544315 -0.034067
C41   C     C_R   0.566543 0.003551 0.504690 0.036024
C42   C     C_R   0.657989 0.113884 0.488257 0.044081
C43   C     C_R   0.445299 0.969754 0.479798 0.083491
C44   C     C_R   0.424178 0.031453 0.433121 0.092214
C45   C     C_R   0.937638 0.392917 0.827797 0.600604
C46   C     C_R   0.521251 0.132099 0.413904 -0.045312
C47   C     C_R   0.635255 0.173429 0.441799 -0.213976
C48   C     C_R   0.343520 0.878898 0.500872 -0.210362
C49   C     C_R   0.211613 0.887898 0.424831 -0.023850
C50   C     C_R   0.771132 0.162007 0.518316 -0.135264
C51   C     C_R   0.351592 0.338067 0.583206 0.311528
C52   C     C_R   0.761805 0.646151 0.433370 0.067134
C53   C     C_R   0.672483 0.686716 0.421085 -0.276687
C54   C     C_R   0.570806 0.638250 0.447308 -0.013420
C55   C     C_R   0.554106 0.540797 0.484958 -0.029722
C56   C     C_R   0.087760 0.588712 0.820845 0.599626
C57   C     C_R   0.653481 0.507731 0.497769 0.278331
C58   C     C_R   0.448064 0.477503 0.511984 -0.060810
C59   C     C_R   0.451072 0.394841 0.554256 0.048532
C60   C     C_R   0.553293 0.371345 0.567192 -0.241706
C61   C     C_R   0.648696 0.422525 0.538485 -0.109229
C62   C     C_R   0.337108 0.489587 0.498538 0.025892
C63   C     C_R   0.253431 0.366749 0.570595 0.074746
C64   C     C_R   0.923411 0.528516 0.714327 0.360381
C65   C     C_R   0.923249 0.535619 0.662612 0.271748
C66   C     C_R   0.076064 0.458936 0.680477 -0.304362
Cu1   Cu    Cu3+1 0.098270 0.475420 0.511360 0.967135
Cu2   Cu    Cu3+1 0.901730 0.524580 0.488640 0.963364
H1    H     H_    0.134404 0.429977 0.668233 0.203340
H2    H     H_    0.244604 0.758838 0.873535 0.197430
H3    H     H_    0.839214 0.531882 0.330994 0.170289
H4    H     H_    0.201307 0.779570 0.112034 0.188196
H5    H     H_    0.257594 0.756336 0.959795 0.211014
H6    H     H_    0.290115 0.032291 0.369680 0.157832
H7    H     H_    0.351232 0.840156 0.538934 0.150374
H8    H     H_    0.739838 0.925411 0.604212 0.162627
H9    H     H_    0.707528 0.251530 0.425961 0.163006
H10   H     H_    0.179976 0.328717 0.593536 0.171494
H11   H     H_    0.561403 0.311974 0.599692 0.168649
H12   H     H_    0.318636 0.536711 0.463992 0.151959
H13   H     H_    0.840689 0.686195 0.413472 0.166619
H14   H     H_    0.827861 0.207394 0.892816 0.194828
H15   H     H_    0.685467 0.759632 0.392035 0.166792
H16   H     H_    0.718814 0.393765 0.550521 0.200056
H17   H     H_    0.163490 0.469850 0.365136 0.160942
H18   H     H_    0.162625 0.469756 0.276962 0.149472
H19   H     H_    0.769134 0.234332 0.127592 0.192804
H20   H     H_    0.763424 0.236491 0.041467 0.160334
N1    N     N_R   0.009325 0.491805 0.799950 -0.437356
N2    N     N_R   0.002471 0.499788 0.202424 -0.471567
N3    N     N_R   0.246290 0.438210 0.528570 -0.225216
N4    N     N_R   0.754320 0.561170 0.471730 -0.210485
O1    O     O_R   0.972510 0.318140 0.514280 -0.568144
O2    O     O_2   0.848247 0.309328 0.208734 -0.526401
O3    O     O_2   0.160161 0.683732 0.792535 -0.517833
O4    O     O_2   0.152622 0.691955 0.197265 -0.522600
O5    O     O_R   0.806530 0.359640 0.495100 -0.608695
O6    O     O_R   0.082990 0.479270 0.579320 -0.595346
O7    O     O_R   0.917010 0.520770 0.560140 -0.539381
O8    O     O_R   0.193470 0.640360 0.504900 -0.551818
O9    O     O_R   0.027490 0.681860 0.485720 -0.577480
O10   O     O_R   0.082990 0.479230 0.439860 -0.590110
O11   O     O_R   0.917010 0.520730 0.420680 -0.591091
O12   O     O_2   0.863981 0.297676 0.806186 -0.519262
O13   O     O_3   0.844864 0.554129 0.733453 -0.700689
H21   H     H_    0.769567 0.538852 0.709888 0.340094
O14   O     O_3   0.194089 0.810472 0.015502 -0.739124
H22   H     H_    0.231374 0.873400 0.036384 0.335025
C67   C     C_1   0.816187 0.537561 0.233828 0.291358
N5    N     N_1   0.741078 0.553040 0.205392 -0.242777
C68   C     C_1   0.102720 0.837195 0.391243 0.247250
N6    N     N_1   0.017139 0.797703 0.363352 -0.295747
C69   C     C_1   0.506245 0.197614 0.366243 0.238824
N7    N     N_1   0.494476 0.250188 0.328138 -0.254588
C70   C     C_1   0.163836 0.419975 0.765279 0.328249
N8    N     N_1   0.230260 0.389430 0.792843 -0.238245
C71   C     C_1   0.901078 0.141371 0.597847 0.263480
N9    N     N_1   0.983594 0.177829 0.627405 -0.271844
C72   C     C_1   0.534905 0.807749 0.553848 0.243534
N10   N     N_1   0.481515 0.708276 0.561771 -0.255277
O15   O     O_3   0.347233 0.256294 0.624123 -0.706388
H23   H     H_    0.378705 0.204973 0.616416 0.326974
C73   C     C_1   0.497219 0.701873 0.437498 0.230917
N11   N     N_1   0.439334 0.754036 0.429273 -0.273019
C74   C     C_1   0.843816 0.170738 0.988131 0.240854
N12   N     N_1   0.813534 0.079386 0.010903 -0.246544
O16   O     O_3   0.854241 0.581837 0.628185 -0.711117
H24   H     H_    0.843282 0.638788 0.642753 0.338244

loop_
_geom_bond_atom_site_label_1
_geom_bond_atom_site_label_2
_ccdc_geom_bond_type
C10   C27   A    
C58   C62   A    
C56   O3    S    
C21   C26   A    
C24   H3    S    
C60   H11   S    
C8    C66   A    
C6    H14   S    
C57   N4    A    
C41   C42   A    
C68   N6    T    
Cu2   O11   S    
C54   C73   S    
C73   N11   T    
C23   O9    A    
C53   C54   A    
C34   O10   A    
C65   O16   S    
C62   H12   S    
C28   C29   A    
C56   N1    A    
C5    C6    A    
C9    C22   A    
C66   H1    S    
C15   C16   A    
C18   C19   A    
C22   H17   S    
Cu2   O5    S    
C12   O7    A    
Cu1   O6    S    
C46   C47   A    
C38   C71   S    
C31   H2    S    
C16   C17   A    
C32   O14   S    
O14   H22   S    
C45   N1    A    
C43   C48   A    
C12   O6    A    
C33   H4    S    
C25   C67   S    
C49   C68   S    
C23   O8    A    
C30   C74   S    
C59   C60   A    
C21   C22   A    
C27   C30   A    
C41   C43   A    
C48   H7    S    
C7    C56   A    
C4    C7    A    
C4    C28   A    
C44   C46   A    
C7    C31   A    
Cu1   Cu2   S    
C64   O13   S    
C51   C63   A    
C24   C25   A    
C53   H15   S    
C10   C14   A    
C1    O5    A    
C39   C40   A    
C58   C59   A    
C23   C37   S    
C20   N2    A    
C61   H16   S    
C60   C61   A    
C43   C44   A    
C45   O12   S    
C37   C49   A    
C2    C70   S    
C8    C12   S    
C62   N3    A    
Cu1   N3    S    
C17   C18   A    
C16   C20   A    
C39   H8    S    
Cu2   O9    S    
C37   C48   A    
O15   H23   S    
C36   H6    S    
Cu1   O8    S    
C42   C50   A    
C40   C41   A    
C6    C30   A    
C11   C32   A    
C55   C57   A    
C74   N12   T    
C51   O15   S    
C31   C35   A    
C36   C44   A    
C51   C59   A    
C47   H9    S    
O16   H24   S    
C52   C53   A    
C15   H19   S    
C69   N7    T    
C1    C50   S    
C20   O2    S    
C54   C55   A    
C35   H5    S    
C46   C69   S    
C4    C5    A    
C2    C66   A    
C10   C13   A    
C21   H18   S    
C72   N10   T    
C9    C24   A    
C57   C61   A    
C38   C50   A    
C26   N2    S    
O13   H21   S    
C29   C35   A    
C34   O11   A    
C13   C17   A    
C3    N1    S    
C64   C65   A    
C2    C3    A    
C25   C26   A    
Cu2   O7    S    
C14   H20   S    
C19   N2    A    
C71   N9    T    
C32   C33   A    
C11   C13   A    
C38   C39   A    
C5    C45   A    
Cu2   N4    S    
C9    C34   S    
C42   C47   A    
C3    C64   A    
C52   H13   S    
C18   C33   A    
C52   N4    A    
C36   C49   A    
C8    C65   A    
C40   C72   S    
C11   C29   A    
C1    O1    A    
C55   C58   A    
C63   N3    A    
C27   C28   A    
Cu1   O1    S    
C14   C15   A    
C67   N5    T    
C19   O4    S    
C70   N8    T    
Cu1   O10   S    
C63   H10   S    
