data_mof_unit_17170.cif
_audit_creation_date              2012-12-10T19:07:36-0500
_audit_creation_method            fapswitch 2.2
_symmetry_space_group_name_H-M    P1
_symmetry_Int_Tables_number       1
_space_group_crystal_system       triclinic
_cell_length_a                    10.85573
_cell_length_b                    10.836893
_cell_length_c                    9.556556
_cell_angle_alpha                 90.326757
_cell_angle_beta                  90.764174
_cell_angle_gamma                 90.930129
_cell_volume                      1123.98821591

loop_
_atom_site_label
_atom_site_type_symbol
_atom_type_description
_atom_site_fract_x
_atom_site_fract_y
_atom_site_fract_z
_atom_type_partial_charge
C1    C     C_R   0.496824 0.262388 0.499513 0.807928
C2    C     C_R   0.939784 0.471695 0.624199 0.049664
C3    C     C_3   0.939415 0.547961 0.754877 -0.462529
C4    C     C_3   0.078875 0.550591 0.751126 -0.411838
C5    C     C_R   0.480202 0.064593 0.624041 0.183453
C6    C     C_R   0.483415 0.129258 0.498403 -0.106673
C7    C     C_R   0.469781 0.063340 0.371830 -0.211465
C8    C     C_R   0.470599 0.934566 0.372255 -0.212987
C9    C     C_R   0.485160 0.870861 0.499234 -0.098544
C10   C     C_R   0.481472 0.937469 0.624456 0.120789
C11   C     C_3   0.566939 0.935245 0.747937 -0.512181
C12   C     C_R   0.262553 0.495778 0.499094 0.836755
C13   C     C_3   0.564341 0.074905 0.748425 -0.417604
C14   C     C_R   0.541836 0.600910 0.075293 0.225967
C15   C     C_R   0.443151 0.408175 0.073211 -0.157951
C16   C     C_R   0.441974 0.408665 0.924501 0.650549
C17   C     C_R   0.542714 0.600547 0.927910 0.152829
C18   C     C_3   0.670308 0.652428 0.928020 -0.497380
C19   C     C_3   0.667225 0.657144 0.086141 -0.441744
C20   C     C_R   0.497791 0.737748 0.500075 0.789415
C21   C     C_R   0.737949 0.495143 0.500369 0.828834
C22   C     C_R   0.066471 0.473120 0.622609 0.158222
C23   C     C_R   0.129993 0.479033 0.497506 -0.196207
C24   C     C_R   0.063490 0.461833 0.371776 -0.285224
C25   C     C_R   0.934669 0.459987 0.372403 0.588508
C26   C     C_R   0.871263 0.477778 0.499435 -0.230661
Cu1   Cu    Cu3+1 0.499990 0.499980 0.640670 0.993467
Cu2   Cu    Cu3+1 0.500010 0.500020 0.359330 0.971472
H1    H     H_    0.658821 0.898882 0.720783 0.195684
H2    H     H_    0.517740 0.113525 0.841363 0.239511
H3    H     H_    0.654738 0.118831 0.723774 0.193072
H4    H     H_    0.398785 0.332872 0.127866 0.160531
H5    H     H_    0.734306 0.583590 0.888406 0.220610
H6    H     H_    0.678164 0.744462 0.879995 0.194208
H7    H     H_    0.735390 0.595994 0.136222 0.277733
H8    H     H_    0.665559 0.752667 0.129036 0.184676
H9    H     H_    0.898155 0.640215 0.739162 0.195028
H10   H     H_    0.905836 0.493387 0.845098 0.219378
H11   H     H_    0.118619 0.643826 0.730262 0.189290
H12   H     H_    0.122574 0.500113 0.839243 0.218968
H13   H     H_    0.464832 0.110650 0.272431 0.170133
H14   H     H_    0.465953 0.885776 0.273037 0.166196
H15   H     H_    0.522553 0.893859 0.841146 0.205998
N1    N     N_R   0.500790 0.500930 0.147930 -0.207650
N2    N     N_R   0.500790 0.500890 0.852020 -0.233505
O1    O     O_R   0.500000 0.319640 0.618810 -0.522112
O2    O     O_R   0.500010 0.319680 0.381230 -0.593340
O3    O     O_R   0.319650 0.499970 0.618810 -0.550626
O4    O     O_R   0.319660 0.500010 0.381230 -0.593065
O5    O     O_R   0.499990 0.680320 0.618770 -0.581331
O6    O     O_R   0.500000 0.680360 0.381190 -0.590020
O7    O     O_R   0.680340 0.499990 0.618770 -0.591400
O8    O     O_R   0.680350 0.500030 0.381190 -0.522010
H16   H     H_    0.110312 0.455562 0.272659 0.192648
F1    F     F_    0.381415 0.316500 0.854792 -0.674971
F2    F     F_    0.873938 0.445909 0.248285 -0.678497

loop_
_geom_bond_atom_site_label_1
_geom_bond_atom_site_label_2
_ccdc_geom_bond_type
Cu1   O3    S    
C2    C22   A    
Cu2   N1    S    
C23   C24   A    
C4    H11   S    
Cu2   O2    S    
C11   H15   S    
C6    C7    A    
C4    C22   S    
Cu2   O4    S    
C9    C20   S    
C5    C13   S    
Cu2   O6    S    
C14   C17   A    
Cu1   O5    S    
C12   O3    A    
Cu2   O8    S    
Cu1   N2    S    
C7    H13   S    
C12   O4    A    
C16   F1    S    
C15   H4    S    
C2    C26   A    
C19   H7    S    
C24   C25   A    
C21   O8    A    
C11   C13   S    
C12   C23   S    
C11   H1    S    
Cu1   O1    S    
C5    C10   A    
C18   H5    S    
C21   C26   S    
C17   N2    A    
C15   N1    A    
C17   C18   S    
C20   O6    A    
C2    C3    S    
C19   H8    S    
C18   H6    S    
C5    C6    A    
C25   F2    S    
C1    O1    A    
C10   C11   S    
C16   N2    A    
C24   H16   S    
C15   C16   A    
C4    H12   S    
C13   H2    S    
C7    C8    A    
Cu1   O7    S    
C3    H9    S    
C14   N1    A    
C18   C19   S    
C9    C10   A    
Cu1   Cu2   S    
C22   C23   A    
C1    O2    A    
C20   O5    A    
C25   C26   A    
C14   C19   S    
C13   H3    S    
C21   O7    A    
C3    C4    S    
C1    C6    S    
C3    H10   S    
C8    H14   S    
C8    C9    A    
