data_mof_unit_7734.cif
_audit_creation_date              2012-12-10T18:11:07-0500
_audit_creation_method            fapswitch 2.2
_symmetry_space_group_name_H-M    P1
_symmetry_Int_Tables_number       1
_space_group_crystal_system       triclinic
_cell_length_a                    10.736836
_cell_length_b                    9.426404
_cell_length_c                    10.620594
_cell_angle_alpha                 89.777948
_cell_angle_beta                  89.922687
_cell_angle_gamma                 89.925741
_cell_volume                      1074.89775757

loop_
_atom_site_label
_atom_site_type_symbol
_atom_type_description
_atom_site_fract_x
_atom_site_fract_y
_atom_site_fract_z
_atom_type_partial_charge
C1    C     C_R   0.259925 0.500268 0.504721 0.869111
C2    C     C_3   0.500251 0.501106 0.122438 -0.022847
C3    C     C_3   0.070397 0.652339 0.543144 0.129756
C4    C     C_3   0.070583 0.385633 0.602035 0.120613
C5    C     C_3   0.926979 0.652305 0.538534 0.502680
C6    C     C_3   0.926630 0.394814 0.608690 0.495319
C7    C     C_3   0.072883 0.463985 0.376108 -0.560988
C8    C     C_3   0.122032 0.501321 0.509526 -0.113644
C9    C     C_3   0.877815 0.501003 0.507384 -0.162511
C10   C     C_3   0.929264 0.457083 0.376704 -0.591546
C11   C     C_3   0.621730 0.083789 0.460084 0.586698
C12   C     C_3   0.621637 0.916277 0.459844 0.561144
C13   C     C_3   0.476094 0.083300 0.630295 -0.355349
C14   C     C_3   0.476576 0.915912 0.630381 -0.345848
C15   C     C_3   0.402658 0.084085 0.418511 -0.211797
C16   C     C_3   0.402492 0.916872 0.418742 -0.211435
C17   C     C_R   0.500069 0.500340 0.259325 0.803366
C18   C     C_R   0.739924 0.500103 0.503185 0.889527
C19   C     C_R   0.499879 0.499677 0.740773 0.872510
C20   C     C_3   0.503199 0.635059 0.040081 -0.163276
C21   C     C_3   0.396343 0.436283 0.042624 -0.144416
C22   C     C_3   0.399285 0.570108 0.957998 -0.141869
C23   C     C_3   0.499943 0.498979 0.877663 -0.010892
C24   C     C_3   0.603883 0.563823 0.957460 -0.133678
C25   C     C_3   0.497031 0.365032 0.960031 -0.108389
C26   C     C_3   0.600978 0.430006 0.042143 -0.114116
Cu1   Cu    Cu3+1 0.499860 0.642410 0.500060 0.994197
Cu2   Cu    Cu3+1 0.499860 0.357590 0.500060 0.975690
H1    H     H_    0.316869 0.627526 0.920650 0.203087
H2    H     H_    0.891751 0.528548 0.302112 0.223498
H3    H     H_    0.898782 0.347311 0.353881 0.240440
H4    H     H_    0.696769 0.119254 0.524776 0.015676
H5    H     H_    0.696813 0.879909 0.524265 0.063544
H6    H     H_    0.548320 0.120850 0.697297 0.168976
H7    H     H_    0.549370 0.878211 0.697070 0.179963
H8    H     H_    0.309159 0.122026 0.448354 0.156158
H9    H     H_    0.309085 0.879329 0.449146 0.164800
H10   H     H_    0.416205 0.123301 0.320642 0.197861
H11   H     H_    0.415566 0.877973 0.320956 0.192560
H12   H     H_    0.385020 0.122552 0.666331 0.221115
H13   H     H_    0.386059 0.876249 0.667083 0.231043
H14   H     H_    0.505716 0.745683 0.075518 0.182371
H15   H     H_    0.311441 0.384304 0.080658 0.156211
H16   H     H_    0.688709 0.615807 0.919255 0.207565
H17   H     H_    0.494362 0.254413 0.924614 0.151995
H18   H     H_    0.683446 0.372880 0.079898 0.179721
H19   H     H_    0.103085 0.728453 0.469762 0.066519
H20   H     H_    0.094406 0.279835 0.562203 0.086893
H21   H     H_    0.896931 0.727447 0.463214 0.074259
H22   H     H_    0.888130 0.287213 0.590682 0.060441
H23   H     H_    0.104314 0.545081 0.306520 0.207255
H24   H     H_    0.111036 0.360112 0.344515 0.211802
N1    N     N_3   0.500250 0.143650 0.502780 -0.187997
N2    N     N_3   0.500250 0.856350 0.502780 -0.190603
O1    O     O_R   0.317570 0.620260 0.500070 -0.588278
O2    O     O_R   0.317570 0.379740 0.500070 -0.599713
O3    O     O_R   0.499850 0.620240 0.316900 -0.554981
O4    O     O_R   0.499850 0.379760 0.316900 -0.550062
O5    O     O_R   0.682190 0.620260 0.500030 -0.546007
O6    O     O_R   0.682190 0.379740 0.500030 -0.581879
O7    O     O_R   0.499910 0.620280 0.683200 -0.587353
O8    O     O_R   0.499910 0.379720 0.683200 -0.594383
F1    F     F_    0.651414 0.135576 0.341407 -0.626846
F2    F     F_    0.650943 0.865737 0.340966 -0.628664
Br1   Br    Br    0.133783 0.731484 0.701133 -0.416479
Br2   Br    Br    0.148755 0.380608 0.768435 -0.429333
F3    F     F_    0.875903 0.700533 0.650683 -0.588641
F4    F     F_    0.886520 0.435183 0.727495 -0.580542

loop_
_geom_bond_atom_site_label_1
_geom_bond_atom_site_label_2
_ccdc_geom_bond_type
C7    H24   S    
C7    C10   S    
C20   H14   S    
C23   C24   S    
C15   H10   S    
C5    C9    S    
Cu1   O3    S    
C22   H1    S    
Cu2   O4    S    
C1    C8    S    
C9    C10   S    
C10   H2    S    
C11   F1    S    
C11   N1    S    
C4    C8    S    
C17   O4    A    
C5    F3    S    
C12   N2    S    
C2    C21   S    
C6    F4    S    
Cu2   O2    S    
Cu1   N2    S    
C7    H23   S    
C13   H6    S    
C2    C26   S    
Cu1   O5    S    
C21   C22   S    
C6    H22   S    
Cu2   N1    S    
C4    Br2   S    
C5    H21   S    
C16   H11   S    
C3    Br1   S    
Cu2   O6    S    
C18   O5    A    
C19   O7    A    
C14   H13   S    
C24   H16   S    
C15   N1    S    
C3    H19   S    
C14   N2    S    
C1    O2    A    
C24   C26   S    
C11   H4    S    
C20   C22   S    
C13   N1    S    
C23   C25   S    
C12   H5    S    
C1    O1    A    
C12   F2    S    
Cu1   O1    S    
C26   H18   S    
C19   O8    A    
C2    C20   S    
C15   C16   S    
C11   C12   S    
C25   H17   S    
C9    C18   S    
C7    C8    S    
C6    C9    S    
C19   C23   S    
C4    C6    S    
C3    C8    S    
C4    H20   S    
C16   N2    S    
C18   O6    A    
Cu1   Cu2   S    
C21   C25   S    
C22   C23   S    
C15   H8    S    
C13   H12   S    
Cu1   O7    S    
C3    C5    S    
C25   C26   S    
C13   C14   S    
C10   H3    S    
C14   H7    S    
C21   H15   S    
C20   C24   S    
C16   H9    S    
C17   O3    A    
C2    C17   S    
Cu2   O8    S    
