data_mof_unit_36625.cif
_audit_creation_date              2012-12-11T14:15:39-0500
_audit_creation_method            fapswitch 2.2
_symmetry_space_group_name_H-M    P1
_symmetry_Int_Tables_number       1
_space_group_crystal_system       triclinic
_cell_length_a                    11.147059
_cell_length_b                    12.712419
_cell_length_c                    23.523123
_cell_angle_alpha                 90.520196
_cell_angle_beta                  96.682457
_cell_angle_gamma                 68.570893
_cell_volume                      3079.83863211

loop_
_atom_site_label
_atom_site_type_symbol
_atom_type_description
_atom_site_fract_x
_atom_site_fract_y
_atom_site_fract_z
_atom_type_partial_charge
C1    C     C_R   0.149643 0.616712 0.428871 0.544002
C2    C     C_R   0.654950 0.560634 0.311665 -0.124476
C3    C     C_R   0.712588 0.727684 0.317993 -0.144960
C4    C     C_R   0.702434 0.735454 0.258495 -0.003788
C5    C     C_R   0.678620 0.649447 0.226081 0.079392
C6    C     C_R   0.676410 0.653604 0.167295 -0.087490
C7    C     C_R   0.695017 0.837608 0.170828 -0.132639
C8    C     C_R   0.716324 0.826896 0.230601 -0.139297
C9    C     C_1   0.235387 0.162694 0.122925 0.007310
C10   C     C_2   0.180478 0.233173 0.226518 -0.113478
C11   C     C_2   0.155733 0.165127 0.262927 -0.116434
C12   C     C_R   0.749160 0.604310 0.404085 0.547884
C13   C     C_1   0.132785 0.198767 0.320685 -0.041580
C14   C     C_1   0.209930 0.197643 0.169646 -0.037907
C15   C     C_1   0.116386 0.231967 0.368457 0.001632
C16   C     C_1   0.167504 0.750067 0.123795 0.007434
C17   C     C_2   0.142805 0.689215 0.228142 -0.120036
C18   C     C_2   0.237292 0.675966 0.271541 -0.119837
C19   C     C_1   0.218544 0.652416 0.329206 -0.050160
C20   C     C_1   0.155373 0.721027 0.170903 -0.035707
C21   C     C_1   0.194345 0.634875 0.376177 -0.002419
C22   C     C_1   0.628904 0.756704 0.865019 0.010168
C23   C     C_R   0.101254 0.282237 0.423381 0.540065
C24   C     C_2   0.700405 0.712310 0.761246 -0.113683
C25   C     C_2   0.614387 0.701124 0.719078 -0.114152
C26   C     C_1   0.652394 0.668565 0.663017 -0.044951
C27   C     C_1   0.664700 0.737658 0.818230 -0.033106
C28   C     C_1   0.690823 0.639354 0.617405 -0.001415
C29   C     C_R   0.201031 0.176469 0.852038 0.017873
C30   C     C_R   0.114258 0.213208 0.637816 -0.027696
C31   C     C_R   0.001694 0.178571 0.713170 -0.151595
C32   C     C_R   0.005088 0.199290 0.655597 -0.172392
C33   C     C_R   0.224174 0.197204 0.677727 0.274988
C34   C     C_R   0.148337 0.615738 0.591465 0.544726
C35   C     C_R   0.209311 0.202111 0.735765 0.090622
C36   C     C_R   0.102802 0.181431 0.754228 -0.046807
C37   C     C_R   0.102098 0.163063 0.813187 0.220907
C38   C     C_R   0.286713 0.222562 0.833333 -0.187328
C39   C     C_R   0.296431 0.230285 0.775339 0.255979
C40   C     C_R   0.123879 0.743535 0.853804 0.049814
C41   C     C_R   0.183417 0.632909 0.651342 0.002658
C42   C     C_R   0.301172 0.557205 0.743857 -0.114010
C43   C     C_R   0.289818 0.553138 0.684340 -0.113681
C44   C     C_R   0.091621 0.718896 0.677984 -0.118116
C45   C     C_R   0.749836 0.602226 0.566066 0.546670
C46   C     C_R   0.098102 0.720151 0.736752 0.005273
C47   C     C_R   0.203218 0.638578 0.770864 0.038947
C48   C     C_R   0.210750 0.646298 0.830803 0.232294
C49   C     C_R   0.012663 0.815003 0.819794 -0.177033
C50   C     C_R   0.999632 0.802957 0.761449 -0.171457
C51   C     C_R   0.265663 0.110119 0.069414 0.543542
C52   C     C_R   0.600879 0.774443 0.081056 0.538138
C53   C     C_R   0.189564 0.787844 0.069826 0.539747
C54   C     C_R   0.240879 0.115168 0.907390 0.573737
C55   C     C_R   0.573935 0.776479 0.918163 0.543657
C56   C     C_R   0.101328 0.275371 0.584073 0.539096
C57   C     C_R   0.163026 0.785388 0.907895 0.566148
C58   C     C_R   0.669552 0.752486 0.139141 -0.016344
C59   C     C_R   0.695305 0.636869 0.344648 -0.025066
C60   C     C_R   0.650148 0.563989 0.252316 0.224709
Cr1   Cr    Cr6+3 0.189770 0.415650 0.511620 1.050335
Cr2   Cr    Cr6+3 0.930400 0.667320 0.496770 1.023214
Cr3   Cr    Cr6+3 0.879870 0.417010 0.491650 1.027371
Cr4   Cr    Cr6+3 0.149500 0.973980 0.985330 1.067340
Cr5   Cr    Cr6+3 0.457000 0.976510 0.994660 1.035805
Cr6   Cr    Cr6+3 0.411170 0.724270 0.995270 1.085421
H1    H     H_    0.691047 0.914459 0.149822 0.141154
H2    H     H_    0.941352 0.886618 0.837426 0.156181
H3    H     H_    0.155582 0.082929 0.249944 0.137690
H4    H     H_    0.181478 0.315025 0.239697 0.140736
O1    O     O_R   0.196340 0.303200 0.448500 -0.510453
O2    O     O_R   0.811960 0.658090 0.547150 -0.496502
O3    O     O_R   0.757930 0.506140 0.547110 -0.505236
O4    O     O_R   0.988670 0.321620 0.556040 -0.503894
O5    O     O_3   0.000020 0.499990 0.500010 -0.249564
O6    O     O_R   0.113660 0.883270 0.047820 -0.511871
O7    O     O_R   0.186930 0.068530 0.043990 -0.496726
O8    O     O_R   0.377770 0.089040 0.054220 -0.506456
O9    O     O_R   0.562800 0.872960 0.056970 -0.498831
O10   O     O_R   0.555390 0.700940 0.062700 -0.517438
O11   O     O_R   0.295020 0.731920 0.049950 -0.488687
O12   O     O_R   0.199310 0.519670 0.454880 -0.494032
O13   O     O_R   0.094290 0.884230 0.921550 -0.517488
O14   O     O_R   0.168980 0.069410 0.926940 -0.434379
O15   O     O_R   0.358400 0.089990 0.927950 -0.529590
O16   O     O_R   0.544850 0.873850 0.939920 -0.496802
O17   O     O_R   0.536020 0.701900 0.936430 -0.483200
O18   O     O_R   0.277070 0.732810 0.932890 -0.434528
O19   O     O_3   0.339220 0.891590 0.991750 -0.269064
O20   O     O_R   0.045660 0.691380 0.441680 -0.509999
O21   O     O_R   0.811930 0.659460 0.430950 -0.502081
O22   O     O_R   0.757900 0.507620 0.421760 -0.517332
O23   O     O_R   0.988630 0.322990 0.439840 -0.496276
O24   O     O_R   0.196380 0.301720 0.573850 -0.483130
O25   O     O_R   0.199350 0.518300 0.571080 -0.488279
O26   O     O_R   0.045700 0.689900 0.567030 -0.524592
H5    H     H_    0.662781 0.585223 0.142939 0.199859
H6    H     H_    0.052799 0.679958 0.235784 0.140698
H7    H     H_    0.516118 0.713177 0.726914 0.141754
H8    H     H_    0.799077 0.698886 0.753580 0.143336
O27   O     O_3   0.012482 0.125997 0.833594 -0.669683
H9    H     H_    0.991350 0.074798 0.805643 0.316995
H10   H     H_    0.356819 0.240110 0.864044 0.131444
H11   H     H_    0.915077 0.169606 0.725195 0.143887
O28   O     O_3   0.388604 0.266503 0.756695 -0.636227
H12   H     H_    0.441122 0.282661 0.790199 0.308052
H13   H     H_    0.919974 0.209747 0.625455 0.147235
O29   O     O_3   0.344271 0.181379 0.661092 -0.614045
H14   H     H_    0.352226 0.139129 0.625187 0.320767
O30   O     O_3   0.305420 0.565961 0.867240 -0.683642
H15   H     H_    0.322416 0.490787 0.850626 0.310761
H16   H     H_    0.386721 0.496634 0.767905 0.139755
H17   H     H_    0.916692 0.863071 0.735344 0.122902
H18   H     H_    0.361686 0.486023 0.664288 0.162700
H19   H     H_    0.009048 0.781969 0.653071 0.139990
O31   O     O_3   0.618311 0.485030 0.219418 -0.714005
H20   H     H_    0.600065 0.432117 0.244724 0.326124
H21   H     H_    0.734737 0.893375 0.254911 0.119534
H22   H     H_    0.637499 0.492461 0.332164 0.130152
H23   H     H_    0.740689 0.788444 0.343362 0.135796
H24   H     H_    0.326966 0.686214 0.264268 0.148673

loop_
_geom_bond_atom_site_label_1
_geom_bond_atom_site_label_2
_ccdc_geom_bond_type
C48   O30   S    
C1    C21   S    
C1    O20   A    
Cr5   O9    S    
C49   H2    S    
Cr2   O26   S    
Cr4   O7    S    
C6    C58   A    
C12   O21   A    
C35   C36   A    
C9    C51   S    
C24   C27   S    
C4    C8    A    
C54   O14   A    
C8    H21   S    
C7    C8    A    
Cr1   O5    S    
C56   O24   A    
C33   O29   S    
O27   H9    S    
C45   O3    A    
C36   C37   A    
C19   C21   T    
C34   O26   A    
Cr1   O12   S    
C43   H18   S    
Cr6   O18   S    
C5    C6    A    
C2    C60   A    
C29   C54   S    
C40   C49   A    
C17   C20   S    
O29   H14   S    
C53   O11   A    
C18   C19   S    
C42   H16   S    
O30   H15   S    
Cr4   O14   S    
C16   C53   S    
C12   C59   S    
C25   H7    S    
C31   C32   A    
C44   H19   S    
C32   H13   S    
C29   C38   A    
C57   O13   A    
Cr5   O8    S    
C30   C32   A    
C52   O9    A    
C17   H6    S    
C7    C58   A    
C5    C60   A    
C39   O28   S    
Cr1   O1    S    
C15   C23   S    
C24   H8    S    
C45   O2    A    
C41   C43   A    
C34   C41   S    
Cr4   O19   S    
C44   C46   A    
C46   C50   A    
Cr6   O19   S    
C28   C45   S    
C56   O4    A    
C6    H5    S    
C23   O1    A    
Cr5   O16   S    
C34   O25   A    
C10   C14   S    
Cr6   O17   S    
Cr1   O24   S    
Cr3   O3    S    
C1    O12   A    
C30   C56   S    
C23   O23   A    
Cr3   O22   S    
C35   C39   A    
C9    C14   T    
C51   O7    A    
Cr4   O13   S    
C38   H10   S    
C47   C48   A    
C16   C20   T    
Cr2   O21   S    
Cr1   O25   S    
C17   C18   D    
Cr4   O6    S    
Cr2   O2    S    
C24   C25   D    
C52   C58   S    
C10   H4    S    
C22   C27   T    
C13   C15   T    
C41   C44   A    
Cr2   O5    S    
C60   O31   S    
C53   O6    A    
C42   C43   A    
C3    C4    A    
C40   C48   A    
Cr3   O23   S    
C46   C47   A    
C40   C57   S    
C30   C33   A    
C2    C59   A    
C12   O22   A    
C4    C5    A    
C54   O15   A    
C2    H22   S    
C11   H3    S    
Cr5   O15   S    
C22   C55   S    
Cr3   O4    S    
Cr6   O10   S    
O28   H12   S    
Cr5   O19   S    
C26   C28   T    
C57   O18   A    
C50   H17   S    
C10   C11   D    
C31   H11   S    
C55   O16   A    
C25   C26   S    
C51   O8    A    
Cr6   O11   S    
C37   O27   S    
C11   C13   S    
C38   C39   A    
Cr3   O5    S    
Cr2   O20   S    
C33   C35   A    
O31   H20   S    
C42   C47   A    
C55   O17   A    
C3    H23   S    
C18   H24   S    
C7    H1    S    
C49   C50   A    
C29   C37   A    
C31   C36   A    
C52   O10   A    
C3    C59   A    
