data_mof_unit_8903.cif
_audit_creation_date              2013-03-05T16:08:13-0500
_audit_creation_method            fapswitch 2.2
_symmetry_space_group_name_H-M    P1
_symmetry_Int_Tables_number       1
_space_group_crystal_system       triclinic
_cell_length_a                    6.9788
_cell_length_b                    14.541543
_cell_length_c                    16.114137
_cell_angle_alpha                 90.084967
_cell_angle_beta                  89.885344
_cell_angle_gamma                 90.3694
_cell_volume                      1635.26420659

loop_
_atom_site_label
_atom_site_type_symbol
_atom_site_description
_atom_site_fract_x
_atom_site_fract_y
_atom_site_fract_z
_atom_type_partial_charge
O1    O     O_R   0.505720 0.583900 0.413310 -0.594665
O2    O     O_R   0.175940 0.594920 0.586080 -0.617161
O3    O     O_R   0.005640 0.416100 0.586690 -0.579116
C1    C     C_R   0.344932 0.617161 0.614590 0.922635
O4    O     O_R   0.176000 0.594930 0.413930 -0.549481
O5    O     O_R   0.005700 0.416110 0.413310 -0.540846
C2    C     C_R   0.344966 0.617563 0.385503 0.999066
O6    O     O_R   0.505660 0.583890 0.586690 -0.602508
O7    O     O_3   0.339200 0.441330 0.500000 -0.250783
V1    V     V_3+5 0.064350 0.510880 0.500000 1.238208
O8    O     O_R   0.675980 0.405080 0.413920 -0.594154
C3    C     C_R   0.844573 0.385796 0.382891 1.155462
O9    O     O_R   0.675920 0.405070 0.586070 -0.593530
C4    C     C_R   0.845630 0.380094 0.612375 0.986148
V2    V     V_3+5 0.564340 0.489120 0.500000 1.228577
O10   O     O_3   0.839360 0.558670 0.500000 -0.281605
C5    C     C_R   0.952201 0.436061 0.778072 -0.184005
C6    C     C_R   0.003691 0.466389 0.857058 -0.125071
C7    C     C_R   0.015861 0.404283 0.922253 -0.033492
C8    C     C_R   0.976165 0.311427 0.908979 -0.123577
C9    C     C_R   0.923911 0.278570 0.829390 0.098855
C10   C     C_R   0.911840 0.342085 0.762270 0.114163
C11   C     C_R   0.877370 0.184723 0.816773 -0.266083
C12   C     C_R   0.818230 0.154454 0.737149 0.117365
C13   C     C_R   0.828709 0.215049 0.667785 0.000399
C14   C     C_R   0.861700 0.311121 0.681227 -0.248456
C15   C     C_R   0.755521 0.062851 0.724610 -0.245127
C16   C     C_R   0.707110 0.031051 0.646256 -0.287079
C17   C     C_R   0.739054 0.085864 0.576688 0.405384
C18   C     C_R   0.814949 0.175286 0.587205 0.131745
H1    H     H_    0.945514 0.487200 0.729672 0.107409
H2    H     H_    0.034216 0.538558 0.867666 0.127915
H3    H     H_    0.055287 0.428206 0.983591 0.163759
H4    H     H_    0.984921 0.266064 0.961992 0.118037
H5    H     H_    0.741187 0.014397 0.774992 0.148006
H6    H     H_    0.653254 0.961400 0.639575 0.179420
C19   C     C_R   0.726907 0.186127 0.238272 0.100974
C20   C     C_R   0.881399 0.184994 0.183033 -0.234381
C21   C     C_R   0.017819 0.255534 0.190047 -0.204998
H7    H     H_    0.123601 0.262860 0.141983 0.202072
C22   C     C_R   0.004866 0.323222 0.252312 0.392780
C23   C     C_R   0.857577 0.318652 0.313148 -0.320229
C24   C     C_R   0.719027 0.248914 0.304403 0.210850
C25   C     C_3   0.511138 0.264930 0.290952 -0.487255
C26   C     C_3   0.522196 0.202447 0.216092 0.159088
H8    H     H_    0.485456 0.337938 0.276297 0.254784
H9    H     H_    0.421785 0.236615 0.342200 0.224175
H10   H     H_    0.431406 0.139629 0.221229 0.116385
C27   C     C_R   0.509643 0.685552 0.739360 0.180670
C28   C     C_R   0.353343 0.683131 0.684953 -0.222727
C29   C     C_R   0.200860 0.743432 0.701693 -0.154781
H11   H     H_    0.077714 0.744505 0.661258 0.149599
C30   C     C_R   0.211695 0.807504 0.767295 -0.145197
H12   H     H_    0.095929 0.855724 0.775586 0.140395
C31   C     C_R   0.375718 0.813470 0.818038 -0.234959
C32   C     C_R   0.520703 0.749147 0.804157 0.184733
C33   C     C_3   0.729016 0.765462 0.789976 -0.482096
C34   C     C_3   0.717006 0.696348 0.719534 -0.469031
H13   H     H_    0.817515 0.741477 0.842888 0.201340
H14   H     H_    0.759555 0.836685 0.768559 0.185755
H15   H     H_    0.798652 0.632637 0.731826 0.185388
H16   H     H_    0.740714 0.727372 0.657289 0.200598
C35   C     C_R   0.502675 0.684930 0.257907 0.153954
C36   C     C_R   0.351856 0.684287 0.315315 -0.260500
C37   C     C_R   0.200630 0.746057 0.300500 -0.057638
H17   H     H_    0.079299 0.748009 0.342203 0.133828
C38   C     C_R   0.210274 0.810074 0.234660 -0.148276
H18   H     H_    0.095704 0.859140 0.227594 0.137103
C39   C     C_R   0.372344 0.814699 0.182155 -0.212176
C40   C     C_R   0.513631 0.748947 0.193705 0.160126
C41   C     C_3   0.723709 0.762835 0.202920 -0.604474
C42   C     C_3   0.712272 0.692698 0.272450 0.161437
H19   H     H_    0.759419 0.833202 0.225312 0.185763
H20   H     H_    0.804740 0.740294 0.147100 0.238328
H21   H     H_    0.747806 0.720165 0.335097 0.082686
O11   O     O_R   0.229140 0.916090 0.913340 -0.597820
O12   O     O_R   0.558860 0.905090 0.086080 -0.595158
O13   O     O_R   0.729100 0.083920 0.086690 -0.574900
C43   C     C_R   0.388921 0.884174 0.115387 0.951848
O14   O     O_R   0.558860 0.905090 0.913930 -0.602854
O15   O     O_R   0.729100 0.083920 0.913310 -0.583549
C44   C     C_R   0.389660 0.883448 0.884959 0.942676
O16   O     O_R   0.229140 0.916080 0.086720 -0.600705
O17   O     O_3   0.395570 0.058660 0.000020 -0.244169
V3    V     V_3+5 0.670450 0.989140 0.000000 1.178055
O18   O     O_R   0.058810 0.094980 0.913910 -0.589790
C45   C     C_R   0.889728 0.117615 0.886257 0.937679
O19   O     O_R   0.058810 0.094980 0.086060 -0.598736
C46   C     C_R   0.890157 0.117335 0.114311 0.982417
V4    V     V_3+5 0.170450 0.010950 0.999970 1.185361
O20   O     O_3   0.895460 0.941370 0.999990 -0.287081
N1    N     N_R   0.703329 0.048536 0.495435 0.255348
O21   O     O_R   0.708419 0.960121 0.482933 -0.415830
O22   O     O_R   0.642461 0.101419 0.436199 -0.393189
Br1   Br    Br    0.166746 0.429320 0.239145 -0.451847
Br2   Br    Br    0.500847 0.270481 0.111645 -0.515204
N2    N     N_R   0.807317 0.606791 0.252549 0.259011
O23   O     O_R   0.783476 0.566567 0.180996 -0.355323
O24   O     O_R   0.889919 0.562752 0.312039 -0.383708
Br3   Br    Br    0.978067 0.218579 0.499447 -0.532444

loop_
_geom_bond_atom_site_label_1
_geom_bond_atom_site_label_2
_geom_bond_distance
_ccdc_geom_bond_type
C34   H16   1.112052 S    
C31   C32   1.399774 A    
C22   C23   1.420319 A    
C7    C8    1.392937 A    
C12   C15   1.413777 A    
C1    O6    1.303346 A    
N2    O23   1.302616 A    
V3    O20   1.721174 S    
C21   C22   1.407681 A    
C30   H12   1.081130 S    
C20   C46   1.481672 S    
C17   C18   1.411015 A    
C16   C17   1.393233 A    
C19   C20   1.396929 A    
O5    C3    1.301607 A    
C20   C21   1.399583 A    
C33   H13   1.111679 S    
V2    O10   2.163694 S    
C18   Br3   1.918059 S    
C32   C33   1.488746 S    
C6    C7    1.389496 A    
C3    C23   1.490659 S    
O8    V2    2.006854 S    
O17   V3    2.174161 S    
C37   C38   1.413701 A    
C11   C12   1.417193 A    
C40   C41   1.486343 S    
O1    V2    2.008388 S    
O7    V1    2.174182 S    
V4    O20   2.163711 S    
C25   H9    1.111749 S    
C8    H4    1.082139 S    
C34   H15   1.109072 S    
O12   C43   1.309802 A    
O12   V3    2.003191 S    
C11   C45   1.489334 S    
O9    C4    1.312376 A    
O17   V4    1.713339 S    
C42   H21   1.112935 S    
N2    O24   1.292348 A    
C25   H8    1.103799 S    
C28   C29   1.408641 A    
C42   N2    1.453269 S    
C30   C31   1.410211 A    
O13   C46   1.300717 A    
C35   C42   1.485411 S    
C29   H11   1.079732 S    
C12   C13   1.425784 A    
O14   C44   1.307010 A    
O18   V4    2.011195 S    
O11   C44   1.301363 A    
C21   H7    1.073844 S    
C41   H19   1.111448 S    
O18   C45   1.306456 A    
C33   H14   1.111350 S    
C15   H5    1.079827 S    
C13   C14   1.430665 A    
C4    C14   1.501587 S    
C27   C34   1.488727 S    
C38   H18   1.081343 S    
C1    C28   1.485132 S    
C38   C39   1.412442 A    
C19   C24   1.403469 A    
O2    C1    1.305129 A    
C24   C25   1.487228 S    
O14   V3    2.002728 S    
C35   C40   1.394395 A    
N1    O22   1.300378 A    
C5    C6    1.393454 A    
C8    C9    1.415599 A    
C31   C44   1.484503 S    
O15   C45   1.295510 A    
O3    C4    1.297561 A    
O13   V3    2.001957 S    
O19   V4    2.006876 S    
C37   H17   1.080442 S    
O6    V2    2.004388 S    
O9    V2    2.011321 S    
C7    H3    1.082815 S    
C5    H1    1.079716 S    
C39   C43   1.480827 S    
C6    H2    1.082895 S    
C23   C24   1.403804 A    
C19   C26   1.493897 S    
O2    V1    2.002751 S    
C25   C26   1.511268 S    
O4    C2    1.304565 A    
C26   H10   1.111437 S    
C13   C18   1.423790 A    
O16   V4    2.010067 S    
O1    C2    1.307184 A    
O5    V1    2.001857 S    
C41   H20   1.111659 S    
O8    C3    1.309372 A    
C27   C32   1.395685 A    
C5    C10   1.416320 A    
C36   C37   1.411206 A    
C9    C11   1.415246 A    
O7    V2    1.713930 S    
C41   C42   1.517847 S    
O3    V1    2.003748 S    
V1    O10   1.721166 S    
C43   O16   1.296698 A    
C33   C34   1.517065 S    
C22   Br1   1.918117 S    
N1    O21   1.301775 A    
C39   C40   1.390863 A    
C2    C36   1.491775 S    
C35   C36   1.399896 A    
O4    V1    2.003241 S    
O19   C46   1.304061 A    
C16   H6    1.083337 S    
C27   C28   1.401050 A    
C10   C14   1.424328 A    
C15   C16   1.385675 A    
C29   C30   1.409888 A    
C9    C10   1.426271 A    
C26   Br2   1.959978 S    
C17   N1    1.438243 S    
O15   V3    2.003665 S    
O11   V4    2.004631 S    
