data_mof_unit_59798.cif
_audit_creation_date              2012-12-11T15:35:53-0500
_audit_creation_method            fapswitch 2.2
_symmetry_space_group_name_H-M    P1
_symmetry_Int_Tables_number       1
_space_group_crystal_system       triclinic
_cell_length_a                    6.996801
_cell_length_b                    11.818967
_cell_length_c                    36.059981
_cell_angle_alpha                 90.00073
_cell_angle_beta                  90.891654
_cell_angle_gamma                 90.001588
_cell_volume                      2981.61760134

loop_
_atom_site_label
_atom_site_type_symbol
_atom_type_description
_atom_site_fract_x
_atom_site_fract_y
_atom_site_fract_z
_atom_type_partial_charge
O1    O     O_R   0.379730 0.148600 0.662710 -0.538568
O2    O     O_R   0.620270 0.851400 0.337290 -0.538569
O3    O     O_R   0.120270 0.648600 0.337290 -0.538579
O4    O     O_R   0.879730 0.351400 0.662710 -0.538579
O5    O     O_R   0.722480 0.134490 0.741330 -0.540467
O6    O     O_R   0.277520 0.865510 0.258670 -0.540467
O7    O     O_R   0.777520 0.634490 0.258670 -0.540463
O8    O     O_R   0.222480 0.365510 0.741330 -0.540464
O9    O     O_R   0.892880 0.345890 0.741600 -0.535125
O10   O     O_R   0.107120 0.654110 0.258400 -0.535125
O11   O     O_R   0.607120 0.845890 0.258400 -0.535135
O12   O     O_R   0.392880 0.154110 0.741600 -0.535135
C1    C     C_R   0.553270 0.110891 0.753995 0.698793
C2    C     C_R   0.446730 0.889109 0.246005 0.698793
C3    C     C_R   0.946725 0.610895 0.246004 0.698793
C4    C     C_R   0.053275 0.389105 0.753996 0.698793
O13   O     O_R   0.709490 0.135560 0.662990 -0.541110
O14   O     O_R   0.290510 0.864440 0.337010 -0.541110
O15   O     O_R   0.790510 0.635560 0.337010 -0.541109
O16   O     O_R   0.209490 0.364440 0.662990 -0.541109
C5    C     C_R   0.540150 0.108094 0.650739 0.695788
C6    C     C_R   0.459850 0.891906 0.349261 0.695788
C7    C     C_R   0.959843 0.608097 0.349263 0.695796
C8    C     C_R   0.040157 0.391902 0.650737 0.695796
O17   O     O_3   0.552800 0.316610 0.702160 -0.366667
O18   O     O_3   0.447200 0.683390 0.297840 -0.366667
O19   O     O_3   0.947200 0.816610 0.297840 -0.366669
O20   O     O_3   0.052800 0.183390 0.702160 -0.366669
V1    V     V_3+5 0.827630 0.234380 0.702160 1.421498
V2    V     V_3+5 0.172370 0.765620 0.297840 1.421498
V3    V     V_3+5 0.672370 0.734380 0.297840 1.421503
V4    V     V_3+5 0.327630 0.265620 0.702160 1.421503
C9    C     C_R   0.043229 0.660903 0.912318 0.547094
C10   C     C_R   0.956771 0.339097 0.087682 0.547094
C11   C     C_R   0.456811 0.160916 0.087691 0.547110
C12   C     C_R   0.543189 0.839083 0.912309 0.547109
O21   O     O_2   0.063467 0.548732 0.918035 -0.547908
O22   O     O_2   0.936533 0.451268 0.081965 -0.547908
O23   O     O_2   0.436621 0.048740 0.081977 -0.547903
O24   O     O_2   0.563379 0.951260 0.918023 -0.547903
N1    N     N_R   0.036180 0.703490 0.876738 -0.541206
N2    N     N_R   0.963820 0.296510 0.123262 -0.541206
N3    N     N_R   0.463838 0.203513 0.123270 -0.541203
N4    N     N_R   0.536161 0.796487 0.876730 -0.541203
C13   C     C_R   0.027192 0.818861 0.871554 0.526516
C14   C     C_R   0.972808 0.181139 0.128446 0.526516
C15   C     C_R   0.472788 0.318887 0.128451 0.526551
C16   C     C_R   0.527212 0.681113 0.871549 0.526551
C17   C     C_R   0.146870 0.647984 0.813390 -0.049371
C18   C     C_R   0.853130 0.352016 0.186610 -0.049370
C19   C     C_R   0.353121 0.147988 0.186613 -0.049395
C20   C     C_R   0.646879 0.852012 0.813387 -0.049395
C21   C     C_R   0.153753 0.570586 0.784058 -0.193685
C22   C     C_R   0.846247 0.429414 0.215942 -0.193685
C23   C     C_R   0.346207 0.070572 0.215939 -0.193692
C24   C     C_R   0.653793 0.929428 0.784061 -0.193692
C25   C     C_R   0.924980 0.451869 0.814925 -0.194920
C26   C     C_R   0.075020 0.548130 0.185075 -0.194919
C27   C     C_R   0.575122 0.951926 0.185089 -0.194900
C28   C     C_R   0.424878 0.048074 0.814911 -0.194900
C29   C     C_R   0.923689 0.527277 0.844826 -0.053488
C30   C     C_R   0.076311 0.472723 0.155174 -0.053488
C31   C     C_R   0.576400 0.027331 0.155189 -0.053463
C32   C     C_R   0.423600 0.972669 0.844811 -0.053463
C33   C     C_R   0.035712 0.626483 0.844932 0.319210
C34   C     C_R   0.964288 0.373517 0.155068 0.319210
C35   C     C_R   0.464324 0.126514 0.155077 0.319184
C36   C     C_R   0.535676 0.873486 0.844923 0.319184
C37   C     C_R   0.019155 0.850836 0.938191 -0.034952
C38   C     C_R   0.980845 0.149164 0.061809 -0.034952
C39   C     C_R   0.480829 0.350846 0.061812 -0.034934
C40   C     C_R   0.519171 0.649154 0.938188 -0.034935
C41   C     C_R   0.034289 0.733324 0.943358 -0.040883
C42   C     C_R   0.965711 0.266676 0.056642 -0.040883
C43   C     C_R   0.465726 0.233331 0.056649 -0.040910
C44   C     C_R   0.534274 0.766669 0.943351 -0.040910
C45   C     C_R   0.039459 0.690073 0.979421 -0.115130
C46   C     C_R   0.960541 0.309927 0.020579 -0.115130
C47   C     C_R   0.460572 0.190071 0.020587 -0.115131
C48   C     C_R   0.539428 0.809929 0.979413 -0.115131
C49   C     C_R   0.012855 0.893381 0.901880 -0.008672
C50   C     C_R   0.987145 0.106619 0.098120 -0.008672
C51   C     C_R   0.487109 0.393401 0.098123 -0.008666
C52   C     C_R   0.512891 0.606599 0.901877 -0.008666
C53   C     C_R   0.043009 0.471815 0.784608 -0.060100
C54   C     C_R   0.956991 0.528185 0.215392 -0.060100
C55   C     C_R   0.457005 0.971829 0.215397 -0.060162
C56   C     C_R   0.542995 0.028171 0.784603 -0.060162
H1    H     H_    0.837744 0.376239 0.815985 0.120830
H2    H     H_    0.162255 0.623761 0.184015 0.120830
H3    H     H_    0.662428 0.876324 0.184036 0.120857
H4    H     H_    0.337571 0.123676 0.815964 0.120856
H5    H     H_    0.834696 0.507473 0.867995 0.149528
H6    H     H_    0.165304 0.492527 0.132005 0.149528
H7    H     H_    0.665431 0.007546 0.132024 0.149538
H8    H     H_    0.334569 0.992454 0.867976 0.149538
H9    H     H_    0.049949 0.599838 0.984362 0.158322
H10   H     H_    0.950050 0.400162 0.015638 0.158322
H11   H     H_    0.450097 0.099833 0.015648 0.158319
H12   H     H_    0.549902 0.900167 0.984352 0.158319
C57   C     C_R   0.009134 0.955760 0.036736 0.043517
C58   C     C_R   0.990866 0.044240 0.963264 0.043517
C59   C     C_R   0.490893 0.455750 0.963265 0.043534
C60   C     C_R   0.509107 0.544250 0.036735 0.043534
C61   C     C_R   0.982610 0.119142 0.994228 0.012670
C62   C     C_R   0.017390 0.880858 0.005772 0.012670
C63   C     C_R   0.517380 0.619146 0.005769 0.012653
C64   C     C_R   0.482620 0.380854 0.994231 0.012653
C65   C     C_R   0.990565 0.074356 0.030783 0.071384
C66   C     C_R   0.009435 0.925644 0.969217 0.071384
C67   C     C_R   0.509446 0.574350 0.969215 0.071407
C68   C     C_R   0.490554 0.425650 0.030785 0.071407
C69   C     C_R   0.020659 0.916453 0.073773 -0.131703
C70   C     C_R   0.979341 0.083547 0.926227 -0.131703
C71   C     C_R   0.479399 0.416434 0.926227 -0.131721
C72   C     C_R   0.520601 0.583566 0.073772 -0.131721
C73   C     C_R   0.010386 0.990283 0.103652 -0.110526
C74   C     C_R   0.989614 0.009717 0.896348 -0.110526
C75   C     C_R   0.489677 0.490260 0.896347 -0.110552
C76   C     C_R   0.510323 0.509740 0.103653 -0.110552
O25   O     O_2   0.968275 0.136978 0.162835 -0.565741
O26   O     O_2   0.031725 0.863022 0.837165 -0.565741
O27   O     O_2   0.531761 0.636945 0.837161 -0.565708
O28   O     O_2   0.468239 0.363055 0.162839 -0.565708
C77   C     C_R   0.031488 0.761834 0.009936 -0.163189
C78   C     C_R   0.968512 0.238166 0.990064 -0.163189
C79   C     C_R   0.468527 0.261825 0.990070 -0.163190
C80   C     C_R   0.531473 0.738175 0.009930 -0.163190
H13   H     H_    0.755047 0.411676 0.239236 0.127772
H14   H     H_    0.244953 0.588324 0.760764 0.127772
H15   H     H_    0.745063 0.911716 0.760774 0.127814
H16   H     H_    0.254937 0.088284 0.239226 0.127814
H17   H     H_    0.765118 0.277245 0.188325 0.181081
H18   H     H_    0.234882 0.722755 0.811675 0.181081
H19   H     H_    0.734909 0.777250 0.811674 0.181110
H20   H     H_    0.265091 0.222750 0.188326 0.181110
H21   H     H_    0.020748 0.955188 0.131374 0.149848
H22   H     H_    0.979252 0.044812 0.868626 0.149848
H23   H     H_    0.479332 0.455158 0.868626 0.149856
H24   H     H_    0.520668 0.544842 0.131374 0.149856
H25   H     H_    0.039145 0.828768 0.080953 0.110948
H26   H     H_    0.960854 0.171232 0.919046 0.110948
H27   H     H_    0.460948 0.328746 0.919049 0.110957
H28   H     H_    0.539052 0.671254 0.080950 0.110957
H29   H     H_    0.035318 0.720225 0.036463 0.135952
H30   H     H_    0.964682 0.279775 0.963537 0.135952
H31   H     H_    0.464706 0.220212 0.963543 0.135959
H32   H     H_    0.535294 0.779788 0.036457 0.135959
C81   C     C_R   0.967640 0.528971 0.380377 -0.036208
C82   C     C_R   0.032360 0.471029 0.619622 -0.036208
C83   C     C_R   0.532301 0.028980 0.619622 -0.036146
C84   C     C_R   0.467699 0.971020 0.380378 -0.036146
C85   C     C_R   0.917524 0.341630 0.404947 -0.167541
C86   C     C_R   0.082478 0.658370 0.595052 -0.167542
C87   C     C_R   0.581720 0.841565 0.595062 -0.167561
C88   C     C_R   0.418281 0.158435 0.404938 -0.167561
C89   C     C_R   0.926066 0.414739 0.374773 -0.182376
C90   C     C_R   0.073935 0.585261 0.625227 -0.182375
C91   C     C_R   0.573299 0.914685 0.625235 -0.182434
C92   C     C_R   0.426702 0.085315 0.374765 -0.182434
C93   C     C_R   0.999708 0.570521 0.416234 -0.219804
C94   C     C_R   0.000291 0.429479 0.583766 -0.219804
C95   C     C_R   0.500605 0.070562 0.583761 -0.219682
C96   C     C_R   0.499394 0.929438 0.416239 -0.219682
C97   C     C_R   0.986579 0.498830 0.447572 0.080707
C98   C     C_R   0.013422 0.501170 0.552428 0.080707
C99   C     C_R   0.513394 0.998839 0.552426 0.080708
C100  C     C_R   0.486606 0.001161 0.447574 0.080708
C101  C     C_R   0.945660 0.382659 0.441162 0.127656
C102  C     C_R   0.054342 0.617340 0.558838 0.127656
C103  C     C_R   0.553921 0.882621 0.558842 0.127617
C104  C     C_R   0.446080 0.117379 0.441158 0.127617
C105  C     C_R   0.009139 0.538768 0.484878 0.051440
C106  C     C_R   0.990862 0.461231 0.515122 0.051440
C107  C     C_R   0.490899 0.038790 0.515121 0.051441
C108  C     C_R   0.509101 0.961210 0.484878 0.051441
C109  C     C_R   0.951694 0.346340 0.507046 -0.195659
C110  C     C_R   0.048308 0.653660 0.492954 -0.195660
C111  C     C_R   0.548160 0.846293 0.492956 -0.195717
C112  C     C_R   0.451841 0.153707 0.507044 -0.195717
C113  C     C_R   0.929989 0.308298 0.470863 -0.196677
C114  C     C_R   0.070013 0.691702 0.529137 -0.196677
C115  C     C_R   0.569594 0.808239 0.529145 -0.196709
C116  C     C_R   0.430407 0.191761 0.470855 -0.196708
H33   H     H_    0.898955 0.219504 0.466110 0.140796
H34   H     H_    0.101047 0.780496 0.533890 0.140796
H35   H     H_    0.600444 0.719427 0.533902 0.140779
H36   H     H_    0.399557 0.280573 0.466098 0.140778
H37   H     H_    0.971554 0.340251 0.581488 0.098031
H38   H     H_    0.028444 0.659750 0.418511 0.098031
H39   H     H_    0.527668 0.840142 0.418529 0.097950
H40   H     H_    0.472330 0.159858 0.581472 0.097950
H41   H     H_    0.101264 0.617484 0.652934 0.104309
H42   H     H_    0.898738 0.382516 0.347066 0.104309
H43   H     H_    0.399689 0.117575 0.347051 0.104284
H44   H     H_    0.600312 0.882425 0.652949 0.104284
H45   H     H_    0.885119 0.253133 0.400031 0.127784
H46   H     H_    0.114884 0.746867 0.599969 0.127784
H47   H     H_    0.613757 0.753024 0.599984 0.127758
H48   H     H_    0.386244 0.246976 0.400016 0.127758
H49   H     H_    0.935817 0.282610 0.528071 0.130215
H50   H     H_    0.064185 0.717390 0.471928 0.130215
H51   H     H_    0.564113 0.782572 0.471937 0.130247
H52   H     H_    0.435888 0.217428 0.528063 0.130247

loop_
_geom_bond_atom_site_label_1
_geom_bond_atom_site_label_2
_ccdc_geom_bond_type
C26   C30   A    
C17   H18   S    
C84   C92   A    
O1    C5    A    
O13   V1    S    
O3    C7    A    
C10   N2    A    
C40   C44   A    
O15   V3    S    
C16   O27   S    
C28   C56   A    
C87   H47   S    
C105  C106  A    
C102  C114  A    
C16   C52   A    
C62   C77   A    
C11   C43   A    
C18   C22   A    
C43   C47   A    
C17   C33   A    
C61   C78   A    
C87   C103  A    
C25   H1    S    
C32   C36   A    
C103  C115  A    
O20   V1    S    
O9    C4    A    
C63   C80   A    
C86   C90   A    
O10   C3    A    
C30   H6    S    
N2    C14   A    
C86   H46   S    
O11   C2    A    
C17   C21   A    
C24   C56   A    
C85   H45   S    
C57   C65   A    
C109  C113  A    
C31   H7    S    
C57   C69   A    
C86   C102  A    
C58   C61   A    
C59   C67   A    
C19   H20   S    
O10   V2    S    
C47   C79   A    
C12   C44   A    
C14   C50   A    
C108  C111  A    
O16   C8    A    
C69   H25   S    
C23   C55   A    
C46   H10   S    
C112  C116  A    
C14   O25   S    
C45   H9    S    
C95   H40   S    
C76   H24   S    
C15   C51   A    
C96   H39   S    
C11   N3    A    
O5    C1    A    
O4    V1    S    
C20   C36   A    
O9    V1    S    
O17   V4    S    
O7    C3    A    
C7    C81   S    
C40   C67   A    
O11   V3    S    
O18   V3    S    
O8    C4    A    
C60   C72   A    
O12   V4    S    
O19   V2    S    
C116  H36   S    
C21   C53   A    
C88   H48   S    
C73   H21   S    
C26   C54   A    
O20   V4    S    
O16   V4    S    
C111  C115  A    
C28   H4    S    
C97   C101  A    
C91   H44   S    
C82   C94   A    
C6    C84   S    
C98   C106  A    
C90   H41   S    
O7    V3    S    
C30   C34   A    
C87   C91   A    
C89   H42   S    
O8    V4    S    
C12   O24   S    
C32   H8    S    
C72   H28   S    
C4    C53   S    
C22   C54   A    
C113  H33   S    
O15   C7    A    
C80   H32   S    
N1    C33   S    
C48   C80   A    
O19   V3    S    
C49   C74   A    
C88   C104  A    
O1    V4    S    
O13   C5    A    
C72   C76   A    
C40   C52   A    
O2    V3    S    
C83   C91   A    
C51   C76   A    
O3    V2    S    
C11   O23   S    
C31   C35   A    
C38   C42   A    
C59   C71   A    
C58   C70   A    
C38   C65   A    
C115  H35   S    
O6    C2    A    
C26   H2    S    
C37   C66   A    
C104  C116  A    
C107  C108  A    
C88   C92   A    
C95   C99   A    
C39   C68   A    
C58   C66   A    
C84   C96   A    
C60   C63   A    
C37   C41   A    
C18   C34   A    
C106  C109  A    
C101  C113  A    
C70   C74   A    
C8    C82   S    
C10   C42   A    
C3    C54   S    
C69   C73   A    
C96   C100  A    
C9    C41   A    
O6    V2    S    
C111  H51   S    
C98   C102  A    
N3    C15   A    
C83   C95   A    
C92   H43   S    
C93   C97   A    
O14   V2    S    
C109  H49   S    
C27   H3    S    
C12   N4    A    
C81   C93   A    
C46   C78   A    
O5    V1    S    
C70   H26   S    
C45   C77   A    
C60   C68   A    
C62   C66   A    
C47   H11   S    
C57   C62   A    
C100  C108  A    
C22   H13   S    
C61   C65   A    
N1    C13   A    
C82   C90   A    
C10   O22   S    
C63   C67   A    
C13   C49   A    
C44   C48   A    
C93   H38   S    
C112  H52   S    
C18   H17   S    
C2    C55   S    
C29   C33   A    
C25   C29   A    
C107  C112  A    
O14   C6    A    
C13   O26   S    
C110  C114  A    
C27   C31   A    
C78   H30   S    
C99   C103  A    
C28   C32   A    
C9    N1    A    
C110  H50   S    
C75   H23   S    
C77   H29   S    
O2    C6    A    
C39   C43   A    
O17   V1    S    
C15   O28   S    
C19   C35   A    
C20   C24   A    
C105  C110  A    
C52   C75   A    
O4    C8    A    
C1    C56   S    
C71   C75   A    
C114  H34   S    
C71   H27   S    
C25   C53   A    
C9    O21   S    
C94   C98   A    
C99   C107  A    
C19   C23   A    
C5    C83   S    
C64   C79   A    
C85   C89   A    
C38   C50   A    
C27   C55   A    
C24   H15   S    
C37   C49   A    
C64   C68   A    
C100  C104  A    
O12   C1    A    
N3    C35   S    
C23   H16   S    
C42   C46   A    
C85   C101  A    
N2    C34   S    
C20   H19   S    
C41   C45   A    
N4    C36   S    
C59   C64   A    
C39   C51   A    
C21   H14   S    
C50   C73   A    
C81   C89   A    
C74   H22   S    
C29   H5    S    
C97   C105  A    
C94   H37   S    
C48   H12   S    
N4    C16   A    
C79   H31   S    
O18   V2    S    
