data_mof_unit_36689.cif
_audit_creation_date              2012-12-11T14:14:08-0500
_audit_creation_method            fapswitch 2.2
_symmetry_space_group_name_H-M    P1
_symmetry_Int_Tables_number       1
_space_group_crystal_system       triclinic
_cell_length_a                    17.035771
_cell_length_b                    7.242748
_cell_length_c                    16.923759
_cell_angle_alpha                 89.999906
_cell_angle_beta                  99.28399
_cell_angle_gamma                 89.999957
_cell_volume                      2060.79843917

loop_
_atom_site_label
_atom_site_type_symbol
_atom_type_description
_atom_site_fract_x
_atom_site_fract_y
_atom_site_fract_z
_atom_type_partial_charge
O1    O     O_R   0.414560 0.494370 0.416770 -0.532463
O2    O     O_R   0.585440 0.994370 0.583230 -0.532459
O3    O     O_R   0.578370 0.819590 0.429320 -0.541890
O4    O     O_R   0.421630 0.319590 0.570680 -0.541893
C1    C     C_R   0.604602 0.654497 0.413636 0.710554
C2    C     C_R   0.395398 0.154496 0.586364 0.710542
O5    O     O_R   0.414740 0.823790 0.407360 -0.544291
O6    O     O_R   0.585260 0.323790 0.592640 -0.544278
O7    O     O_R   0.420650 0.998510 0.561120 -0.536045
O8    O     O_R   0.579350 0.498510 0.438880 -0.536043
C3    C     C_R   0.387817 0.655443 0.385385 0.730986
C4    C     C_R   0.612181 0.155442 0.614617 0.730982
O9    O     O_3   0.502130 0.662240 0.550470 -0.379798
O10   O     O_3   0.497870 0.162240 0.449530 -0.379805
V1    V     V_3+5 0.499600 0.935390 0.490640 1.414211
V2    V     V_3+5 0.500400 0.435390 0.509360 1.414219
C5    C     C_2   0.795175 0.260464 0.774046 -0.001323
C6    C     C_2   0.204801 0.760438 0.225975 -0.001289
C7    C     C_2   0.815317 0.116340 0.824293 -0.380089
C8    C     C_2   0.184683 0.616345 0.175705 -0.380127
H1    H     H_    0.772468 0.005776 0.826134 0.155844
H2    H     H_    0.227549 0.505826 0.173844 0.155806
C9    C     C_2   0.712017 0.275508 0.730018 0.170254
C10   C     C_2   0.287957 0.775529 0.270004 0.170241
C11   C     C_2   0.685185 0.143622 0.675462 -0.372233
C12   C     C_2   0.314809 0.643621 0.324542 -0.372263
H3    H     H_    0.722193 0.022602 0.671627 0.151026
H4    H     H_    0.277818 0.522565 0.328364 0.151023
C13   C     C_R   0.331780 0.137314 0.636515 -0.051762
C14   C     C_R   0.668220 0.637314 0.363485 -0.051765
C15   C     C_R   0.170146 0.130216 0.866095 -0.154315
C16   C     C_R   0.829854 0.630216 0.133904 -0.154313
C17   C     C_R   0.286319 0.292479 0.833223 -0.147264
C18   C     C_R   0.713680 0.792477 0.166776 -0.147264
C19   C     C_R   0.233554 0.257204 0.887299 -0.004936
C20   C     C_R   0.766445 0.757202 0.112700 -0.004935
C21   C     C_R   0.164352 0.033910 0.793245 -0.178913
C22   C     C_R   0.835648 0.533911 0.206755 -0.178916
C23   C     C_R   0.217375 0.069417 0.738406 0.130325
C24   C     C_R   0.782625 0.569417 0.261594 0.130327
C25   C     C_R   0.278897 0.201312 0.759407 0.090633
C26   C     C_R   0.721103 0.701310 0.240592 0.090633
C27   C     C_R   0.334335 0.237001 0.707720 -0.223673
C28   C     C_R   0.665664 0.737000 0.292279 -0.223672
C29   C     C_R   0.271137 0.006635 0.615722 -0.222650
C30   C     C_R   0.728863 0.506637 0.384278 -0.222659
C31   C     C_R   0.212544 0.975254 0.663926 -0.020126
C32   C     C_R   0.787456 0.475255 0.336074 -0.020127
H5    H     H_    0.381835 0.335945 0.724732 0.117042
H6    H     H_    0.618164 0.835944 0.275267 0.117043
H7    H     H_    0.268666 0.930407 0.560187 0.123770
H8    H     H_    0.731334 0.430409 0.439814 0.123759
H9    H     H_    0.334726 0.389524 0.849369 0.159863
H10   H     H_    0.665273 0.889520 0.150629 0.159864
H11   H     H_    0.117316 0.933410 0.780177 0.180059
H12   H     H_    0.882685 0.433412 0.219824 0.180060
O11   O     O_R   0.920750 0.773600 0.061260 -0.542791
O12   O     O_R   0.079250 0.273600 0.938740 -0.542791
O13   O     O_R   0.085340 0.439850 0.092570 -0.533991
O14   O     O_R   0.914660 0.939850 0.907430 -0.533977
C33   C     C_R   0.111947 0.608519 0.114672 0.735262
C34   C     C_R   0.888053 0.108519 0.885327 0.735269
O15   O     O_R   0.921720 0.444130 0.070790 -0.530631
O16   O     O_R   0.078280 0.944130 0.929210 -0.530631
O17   O     O_R   0.914480 0.269530 0.916840 -0.544979
O18   O     O_R   0.085520 0.769530 0.083160 -0.544968
C35   C     C_R   0.894739 0.613163 0.084770 0.670415
C36   C     C_R   0.105261 0.113163 0.915230 0.670423
O19   O     O_3   0.997840 0.601520 0.949550 -0.378752
O20   O     O_3   0.002160 0.101520 0.050450 -0.378752
V3    V     V_3+5 0.000400 0.328340 0.009360 1.450556
V4    V     V_3+5 0.999600 0.828340 0.990640 1.450579
C37   C     C_2   0.854143 0.402714 0.758904 0.421657
H13   H     H_    0.916925 0.386191 0.781851 0.064988
O21   O     O_2   0.833276 0.538219 0.717928 -0.530243
C38   C     C_2   0.145806 0.902601 0.241144 0.421698
H14   H     H_    0.083030 0.886055 0.218174 0.064952
O22   O     O_2   0.166644 0.038051 0.282167 -0.530205
C39   C     C_3   0.661357 0.441408 0.745043 -0.255627
C40   C     C_3   0.682316 0.520453 0.829753 -0.749401
H15   H     H_    0.680028 0.410243 0.874990 0.239650
H16   H     H_    0.742404 0.583860 0.839137 0.233792
H17   H     H_    0.638774 0.629507 0.838704 0.219090
H18   H     H_    0.667653 0.551465 0.700758 0.207185
H19   H     H_    0.597792 0.399812 0.737754 0.162995
C41   C     C_3   0.338592 0.941495 0.255003 -0.255550
C42   C     C_3   0.317573 0.020737 0.170332 -0.749446
H20   H     H_    0.319824 0.910637 0.125038 0.239601
H21   H     H_    0.257487 0.084153 0.161018 0.233824
H22   H     H_    0.361105 0.129826 0.161394 0.219076
H23   H     H_    0.332328 0.051445 0.299345 0.207156
H24   H     H_    0.402155 0.899904 0.262229 0.162990
C43   C     C_2   0.148612 0.842588 0.632705 0.385417
H25   H     H_    0.161700 0.728707 0.595184 0.063237
O23   O     O_2   0.080152 0.864817 0.643564 -0.515492
C44   C     C_2   0.851389 0.342589 0.367295 0.385415
H26   H     H_    0.838300 0.228707 0.404816 0.063230
O24   O     O_2   0.919849 0.364818 0.356437 -0.515482
C45   C     C_2   0.247809 0.348074 0.967198 0.380779
H27   H     H_    0.218200 0.298996 0.015303 0.040815
O25   O     O_2   0.293759 0.477920 0.980721 -0.536708
C46   C     C_2   0.752189 0.848069 0.032801 0.380781
H28   H     H_    0.781802 0.798997 0.984697 0.040810
O26   O     O_2   0.706234 0.977907 0.019275 -0.536713

loop_
_geom_bond_atom_site_label_1
_geom_bond_atom_site_label_2
_ccdc_geom_bond_type
C42   H20   S    
C43   H25   S    
C37   O21   D    
C37   H13   S    
O1    C3    A    
O2    C4    A    
C2    O7    A    
C23   C25   A    
O5    C3    A    
C5    C9    S    
C6    C10   S    
C16   C20   A    
C20   C46   S    
C7    H1    S    
C10   C12   D    
C41   H23   S    
C39   H18   S    
O12   V3    S    
C29   H7    S    
C7    C34   S    
C30   H8    S    
O14   C34   A    
C8    C33   S    
C17   C19   A    
C33   O18   A    
O18   V4    S    
C18   C26   A    
C44   O24   D    
O20   V3    S    
C16   C22   A    
C18   C20   A    
O5    V1    S    
O6    V2    S    
C13   C27   A    
C5    C37   S    
C25   C27   A    
C14   C28   A    
C26   C28   A    
O11   C35   A    
C40   H17   S    
C19   C45   S    
C30   C32   A    
C29   C31   A    
C17   H9    S    
C15   C36   S    
O15   C35   A    
O13   C33   A    
C38   O22   D    
C38   H14   S    
O4    C2    A    
C41   C42   S    
C27   H5    S    
C3    C12   S    
O17   V3    S    
C15   C21   A    
C13   C29   A    
O4    V2    S    
O19   V4    S    
C45   H27   S    
O6    C4    A    
C44   H26   S    
C2    C13   S    
C31   C43   S    
O1    V2    S    
C46   O26   D    
O2    V1    S    
C16   C35   S    
O12   C36   A    
C45   O25   D    
C8    H2    S    
C18   H10   S    
C42   H21   S    
C15   C19   A    
O9    V2    S    
O16   C36   A    
C39   H19   S    
O3    V1    S    
C23   C31   A    
C1    C14   S    
C28   H6    S    
C24   C32   A    
C6    C38   S    
C32   C44   S    
C34   O17   A    
C14   C30   A    
O15   V3    S    
C40   H15   S    
O3    C1    A    
C11   H3    S    
C12   H4    S    
C4    C11   S    
C17   C25   A    
O7    V1    S    
C1    O8    A    
C21   C23   A    
O8    V2    S    
C22   C24   A    
C24   C26   A    
C5    C7    D    
C40   H16   S    
C6    C8    D    
O16   V4    S    
O11   V4    S    
C46   H28   S    
C39   C40   S    
C21   H11   S    
C9    C11   D    
C22   H12   S    
C43   O23   D    
C42   H22   S    
O14   V4    S    
O10   V1    S    
C41   H24   S    
C9    C39   S    
C10   C41   S    
O13   V3    S    
