data_mof_unit_12012.cif
_audit_creation_date              2012-12-11T17:06:34-0500
_audit_creation_method            fapswitch 2.2
_symmetry_space_group_name_H-M    P1
_symmetry_Int_Tables_number       1
_space_group_crystal_system       triclinic
_cell_length_a                    6.968012
_cell_length_b                    14.536878
_cell_length_c                    15.934966
_cell_angle_alpha                 90.569476
_cell_angle_beta                  90.055245
_cell_angle_gamma                 89.924524
_cell_volume                      1614.02089035

loop_
_atom_site_label
_atom_site_type_symbol
_atom_type_description
_atom_site_fract_x
_atom_site_fract_y
_atom_site_fract_z
_atom_type_partial_charge
O1    O     O_R   0.494400 0.415450 0.412630 -0.534392
O2    O     O_R   0.823940 0.405730 0.586760 -0.544122
O3    O     O_R   0.994240 0.584550 0.587370 -0.535241
C1    C     C_R   0.655324 0.383826 0.615471 0.693638
O4    O     O_R   0.824110 0.404430 0.413240 -0.544077
O5    O     O_R   0.994420 0.583240 0.412620 -0.529048
C2    C     C_R   0.655457 0.382271 0.384224 0.698119
O6    O     O_R   0.494230 0.416760 0.587380 -0.537442
O7    O     O_3   0.660800 0.558670 0.500000 -0.374970
V1    V     V_3+5 0.935650 0.489120 0.500000 1.389337
O8    O     O_R   0.324140 0.594270 0.413240 -0.536027
C3    C     C_R   0.154914 0.617481 0.385359 0.683612
O9    O     O_R   0.323960 0.595570 0.586760 -0.550931
C4    C     C_R   0.155345 0.617135 0.615930 0.685020
V2    V     V_3+5 0.435660 0.510880 0.500000 1.389225
O10   O     O_3   0.160640 0.441330 0.500000 -0.373206
C5    C     C_3   0.033683 0.671235 0.769242 -0.221015
C6    C     C_3   0.206245 0.712341 0.817040 0.466991
C7    C     C_3   0.120731 0.808963 0.810223 -0.051280
C8    C     C_3   0.947594 0.769348 0.761416 -0.165370
C9    C     C_3   0.058535 0.783157 0.678058 -0.117037
C10   C     C_3   0.231419 0.823495 0.727629 -0.193057
C11   C     C_3   0.319638 0.725812 0.735190 -0.199952
C12   C     C_3   0.145414 0.686171 0.686599 -0.054178
H1    H     H_    0.795007 0.788113 0.772105 0.127377
H2    H     H_    0.999041 0.812015 0.619358 0.108178
H3    H     H_    0.311193 0.886789 0.711024 0.115461
H4    H     H_    0.472241 0.706838 0.725176 0.105399
C13   C     C_R   0.230518 0.833187 0.253418 -0.155302
C14   C     C_R   0.117650 0.815644 0.182618 -0.092639
C15   C     C_R   0.010433 0.734077 0.181201 -0.152710
H5    H     H_    0.928078 0.716675 0.125696 0.104181
C16   C     C_R   0.021158 0.670996 0.247927 -0.102471
H6    H     H_    0.945830 0.606449 0.242206 0.113680
C17   C     C_R   0.141306 0.687017 0.317774 -0.071935
C18   C     C_R   0.244944 0.770150 0.319602 -0.114735
C19   C     C_3   0.459604 0.786707 0.325796 0.710228
C20   C     C_3   0.439252 0.858344 0.256013 0.247392
H7    H     H_    0.516109 0.840452 0.197048 0.067922
C21   C     C_R   0.495718 0.317444 0.742840 0.090042
C22   C     C_R   0.648112 0.317768 0.685528 -0.109905
C23   C     C_R   0.798679 0.254795 0.698932 -0.178217
H8    H     H_    0.920393 0.252939 0.656962 0.131215
C24   C     C_R   0.787199 0.188978 0.762984 -0.177486
H9    H     H_    0.901078 0.138791 0.768683 0.124766
C25   C     C_R   0.624551 0.184012 0.815310 -0.106240
C26   C     C_R   0.484012 0.252135 0.805989 0.098210
C27   C     C_3   0.272313 0.242862 0.795645 -0.405343
C28   C     C_3   0.285015 0.314586 0.727115 -0.396807
H10   H     H_    0.231286 0.173546 0.771782 0.165480
H11   H     H_    0.213496 0.380601 0.744088 0.158447
H12   H     H_    0.250381 0.287135 0.663549 0.173176
C29   C     C_R   0.496826 0.318341 0.254271 0.102953
C30   C     C_R   0.648586 0.317426 0.312031 -0.117174
C31   C     C_R   0.800358 0.255566 0.296126 -0.190481
H13   H     H_    0.921964 0.252967 0.338172 0.134303
C32   C     C_R   0.789500 0.191215 0.229631 -0.160662
H14   H     H_    0.903260 0.141045 0.222666 0.130320
C33   C     C_R   0.626291 0.186725 0.177239 -0.108779
C34   C     C_R   0.485903 0.254759 0.188532 0.085707
C35   C     C_3   0.273754 0.246232 0.196982 -0.406708
C36   C     C_3   0.285797 0.315597 0.268834 -0.398218
H15   H     H_    0.230256 0.176526 0.217232 0.170430
H16   H     H_    0.196314 0.272892 0.141251 0.172190
H17   H     H_    0.249871 0.286155 0.330947 0.172135
H18   H     H_    0.215074 0.382220 0.254560 0.162654
O11   O     O_R   0.771650 0.079500 0.908680 -0.543446
O12   O     O_R   0.441690 0.091800 0.082800 -0.540222
O13   O     O_R   0.271460 0.912980 0.083410 -0.536600
C37   C     C_R   0.610969 0.114688 0.111229 0.734225
O14   O     O_R   0.441930 0.090510 0.909280 -0.544182
O15   O     O_R   0.271690 0.911670 0.908660 -0.531708
C38   C     C_R   0.610893 0.112709 0.880783 0.682436
O16   O     O_R   0.771410 0.080810 0.083440 -0.543156
O17   O     O_3   0.605100 0.937580 0.996050 -0.364469
V3    V     V_3+5 0.330220 0.007110 0.996030 1.425910
O18   O     O_R   0.941980 0.900620 0.909250 -0.546337
C39   C     C_R   0.110708 0.878548 0.880508 0.713292
O19   O     O_R   0.941740 0.901920 0.082770 -0.538306
C40   C     C_R   0.110480 0.880606 0.111848 0.718308
V4    V     V_3+5 0.830220 0.985300 0.996000 1.424471
O20   O     O_3   0.105210 0.054870 0.996020 -0.378474
O21   O     O_3   0.281150 0.680192 0.893674 -0.561737
C41   C     C_3   0.354505 0.590464 0.882367 0.096495
H19   H     H_    0.475148 0.589979 0.836617 0.110978
H20   H     H_    0.240461 0.542337 0.860365 0.106952
C42   C     C_3   0.430478 0.555938 0.965909 -0.719365
H21   H     H_    0.313105 0.554806 0.013025 0.219258
H22   H     H_    0.488381 0.485173 0.957921 0.173083
H23   H     H_    0.546941 0.601725 0.989123 0.219293
O22   O     O_3   0.518008 0.832466 0.400706 -0.554089
C43   C     C_3   0.512997 0.774776 0.470829 0.172355
H24   H     H_    0.612381 0.716189 0.461598 0.191645
H25   H     H_    0.364492 0.750923 0.483313 0.098707
C44   C     C_3   0.580988 0.829068 0.547207 -0.767789
H26   H     H_    0.477230 0.884923 0.562139 0.216131
H27   H     H_    0.593580 0.782847 0.601883 0.183906
H28   H     H_    0.723580 0.859936 0.534548 0.224454
O23   O     O_3   0.485887 0.950197 0.282504 -0.535651
C45   C     C_3   0.335969 0.997558 0.325224 0.188647
H29   H     H_    0.260932 0.953580 0.371505 0.141855
H30   H     H_    0.230086 0.023608 0.278949 0.090546
C46   C     C_3   0.418998 0.078193 0.374507 -0.728284
H31   H     H_    0.493397 0.125581 0.331769 0.236874
H32   H     H_    0.301940 0.116343 0.406901 0.159702
H33   H     H_    0.522715 0.052992 0.422029 0.238203
H34   H     H_    0.192436 0.267249 0.851986 0.172381
H35   H     H_    0.953249 0.608217 0.786157 0.102735
O24   O     O_3   0.577944 0.708464 0.306323 -0.562302
C47   C     C_3   0.539077 0.663907 0.227927 0.030513
H36   H     H_    0.648401 0.684150 0.182098 0.129764
H37   H     H_    0.401288 0.681434 0.197968 0.111843
C48   C     C_3   0.545500 0.559804 0.237622 -0.674215
H38   H     H_    0.408544 0.534658 0.264086 0.199698
H39   H     H_    0.566213 0.526342 0.175324 0.164270
H40   H     H_    0.664359 0.539373 0.279766 0.220767

loop_
_geom_bond_atom_site_label_1
_geom_bond_atom_site_label_2
_ccdc_geom_bond_type
C21   C26   A    
C9    H2    S    
C7    C39   S    
C22   C23   A    
C44   H26   S    
C41   C42   S    
O15   V3    S    
V4    O20   S    
C44   H28   S    
C29   C30   A    
C13   C18   A    
C13   C14   A    
C18   C19   S    
C41   H20   S    
O5    C3    A    
C14   C15   A    
C32   C33   A    
C27   H34   S    
C1    C22   S    
V2    O10   S    
C5    C8    S    
O13   V3    S    
C6    C7    S    
C4    C12   S    
C35   H15   S    
C47   H36   S    
C43   H24   S    
O15   C39   A    
C30   C31   A    
O8    V2    S    
C15   H5    S    
C28   H11   S    
C13   C20   S    
C37   O16   A    
C11   C12   S    
C15   C16   A    
O11   C38   A    
O7    V1    S    
C19   O24   S    
C1    O6    A    
C48   H40   S    
C14   C40   S    
C27   H10   S    
C33   C34   A    
O9    C4    A    
C23   C24   A    
C45   H30   S    
C29   C34   A    
C24   C25   A    
C6    O21   S    
C20   H7    S    
C5    C12   S    
C19   O22   S    
C6    C11   S    
C26   C27   S    
C7    C10   S    
C41   H19   S    
C5    H35   S    
V3    O20   S    
O22   C43   S    
O19   V4    S    
C36   H18   S    
O17   V4    S    
O18   C39   A    
C45   C46   S    
C34   C35   S    
C17   C18   A    
C35   H16   S    
O2    C1    A    
O17   V3    S    
C19   C20   S    
C29   C36   S    
O21   C41   S    
O18   V4    S    
C28   H12   S    
C31   H13   S    
C43   H25   S    
C5    C6    S    
C46   H32   S    
C11   H4    S    
C3    C17   S    
C47   C48   S    
O3    C4    A    
O1    V2    S    
C21   C22   A    
O11   V4    S    
O6    V2    S    
C10   H3    S    
O9    V2    S    
C42   H23   S    
C23   H8    S    
O16   V4    S    
O2    V1    S    
C24   H9    S    
O4    C2    A    
C48   H38   S    
C25   C26   A    
C27   C28   S    
C36   H17   S    
O1    C2    A    
C20   O23   S    
O5    V1    S    
O8    C3    A    
C44   H27   S    
O12   V3    S    
O23   C45   S    
C7    C8    S    
C31   C32   A    
O7    V2    S    
O4    V1    S    
O3    V1    S    
V1    O10   S    
O24   C47   S    
C32   H14   S    
O14   V3    S    
C45   H29   S    
C16   C17   A    
C16   H6    S    
C46   H33   S    
C43   C44   S    
C35   C36   S    
C47   H37   S    
C33   C37   S    
O19   C40   A    
C8    C9    S    
C42   H21   S    
O12   C37   A    
C8    H1    S    
C9    C12   S    
O14   C38   A    
C46   H31   S    
C42   H22   S    
C10   C11   S    
O13   C40   A    
C2    C30   S    
C9    C10   S    
C25   C38   S    
C21   C28   S    
C48   H39   S    
