data_mof_unit_16206.cif
_audit_creation_date              2012-12-11T16:34:37-0500
_audit_creation_method            fapswitch 2.2
_symmetry_space_group_name_H-M    P1
_symmetry_Int_Tables_number       1
_space_group_crystal_system       triclinic
_cell_length_a                    8.256262
_cell_length_b                    17.398561
_cell_length_c                    27.000692
_cell_angle_alpha                 95.547864
_cell_angle_beta                  92.747206
_cell_angle_gamma                 83.922587
_cell_volume                      3835.92101502

loop_
_atom_site_label
_atom_site_type_symbol
_atom_type_description
_atom_site_fract_x
_atom_site_fract_y
_atom_site_fract_z
_atom_type_partial_charge
Ba1   Ba    Ba6+2 0.856110 0.463800 0.523550 1.647918
Ba2   Ba    Ba6+2 0.333710 0.536130 0.476450 1.642257
C1    C     C_3   0.841951 0.247700 0.712987 -0.407781
C2    C     C_R   0.907513 0.579037 0.176965 0.572642
C3    C     C_2   0.759359 0.552628 0.272026 -0.084190
C4    C     C_3   0.227109 0.293780 0.653587 0.293268
C5    C     C_3   0.739886 0.578284 0.326572 -0.050017
C6    C     C_1   0.984689 0.490703 0.343315 0.038536
C7    C     C_2   0.025600 0.487408 0.295681 -0.108327
C8    C     C_2   0.905096 0.517747 0.256320 0.190763
C9    C     C_R   0.025517 0.509845 0.101916 -0.079537
C10   C     C_R   0.065842 0.444586 0.128869 -0.036263
C11   C     C_R   0.146575 0.377651 0.104452 -0.060255
C12   C     C_3   0.766841 0.271006 0.663230 0.351537
C13   C     C_R   0.945148 0.577205 0.126299 -0.024199
C14   C     C_2   0.851076 0.531264 0.360510 -0.293010
C15   C     C_2   0.352417 0.483915 0.641399 -0.275979
C16   C     C_3   0.289759 0.261763 0.702145 -0.309864
C17   C     C_R   0.194991 0.439387 0.975884 0.019683
C18   C     C_R   0.054436 0.571127 0.972158 0.020311
C19   C     C_R   0.144564 0.504479 0.948678 0.050133
C20   C     C_R   0.289231 0.375706 0.951062 -0.100410
C21   C     C_R   0.329508 0.375389 0.901442 -0.062399
C22   C     C_R   0.277791 0.438388 0.873910 -0.030284
C23   C     C_3   0.504244 0.659348 0.627340 0.302856
C24   C     C_R   0.184837 0.503008 0.897422 -0.078750
C25   C     C_R   0.132595 0.566308 0.869711 -0.034632
C26   C     C_R   0.173662 0.564301 0.819192 0.588895
C27   C     C_R   0.317509 0.437937 0.823339 0.584294
C28   C     C_3   0.200285 0.298890 0.414915 0.314633
C29   C     C_2   0.461223 0.486738 0.729356 -0.082604
C30   C     C_3   0.501576 0.491582 0.675252 -0.049212
C31   C     C_1   0.210438 0.515344 0.657239 0.036363
C32   C     C_2   0.172289 0.514760 0.704472 -0.102884
C33   C     C_2   0.304212 0.499236 0.743816 0.205441
C34   C     C_3   0.487434 0.690153 0.681742 -0.373423
C35   C     C_R   0.150790 0.440204 0.026695 0.019671
C36   C     C_R   0.065377 0.507892 0.050579 0.049904
C37   C     C_R   0.019433 0.573800 0.023734 0.020160
C38   C     C_R   0.188347 0.375426 0.054773 -0.099376
C39   C     C_R   0.904733 0.642296 0.099737 -0.060260
C40   C     C_3   0.209513 0.211843 0.400615 -0.381976
C41   C     C_R   0.001583 0.632990 0.942844 -0.100334
C42   C     C_R   0.040033 0.630557 0.893020 -0.061778
C43   C     C_R   0.940704 0.640777 0.049837 -0.102504
C44   C     C_R   0.407550 0.278071 0.518093 -0.255472
C45   C     C_3   0.052396 0.703354 0.339199 0.341070
C46   C     C_R   0.549725 0.253875 0.493057 0.077478
C47   C     C_R   0.603717 0.174542 0.485680 -0.109862
C48   C     C_R   0.513378 0.119301 0.503120 0.013208
C49   C     C_R   0.365731 0.144310 0.526761 -0.053014
C50   C     C_R   0.312020 0.224041 0.533217 0.041475
C51   C     C_R   0.585015 0.834500 0.504270 -0.111305
C52   C     C_3   0.993618 0.698040 0.579496 0.307782
C53   C     C_R   0.638505 0.755138 0.500514 0.042452
C54   C     C_R   0.872670 0.778519 0.455934 0.012390
C55   C     C_R   0.820245 0.858549 0.459338 -0.129567
C56   C     C_3   0.065548 0.726451 0.286771 -0.322535
C57   C     C_R   0.674039 0.886652 0.483073 -0.002141
C58   C     C_1   0.619489 0.968998 0.489219 0.000900
C59   C     C_1   0.570859 0.037403 0.495439 0.001029
C60   C     C_R   0.777149 0.727331 0.474480 -0.287066
C61   C     C_3   0.968630 0.785550 0.591908 -0.381325
C62   C     C_3   0.679319 0.372619 0.375731 0.298946
C63   C     C_3   0.681679 0.353952 0.319557 -0.358985
C64   C     C_2   0.714727 0.200264 0.632756 0.485557
C65   C     C_3   0.509254 0.743682 0.360697 0.365874
C66   C     C_3   0.465721 0.821707 0.339893 -0.366701
C67   C     C_R   0.023570 0.447269 0.179534 0.598071
H1    H     H_    0.861533 0.292532 0.642090 0.071686
H2    H     H_    0.800229 0.388464 0.389681 0.011801
H3    H     H_    0.585844 0.422219 0.384140 0.082939
H4    H     H_    0.889517 0.298757 0.734519 0.135382
H5    H     H_    0.779869 0.306894 0.309935 0.134068
H6    H     H_    0.703904 0.405996 0.301344 0.069634
H7    H     H_    0.562442 0.335081 0.305236 0.133717
H8    H     H_    0.943645 0.201038 0.706987 0.083579
H9    H     H_    0.382690 0.644683 0.612311 0.030155
H10   H     H_    0.592821 0.606587 0.624840 0.031609
H11   H     H_    0.407135 0.745686 0.684539 0.139195
H12   H     H_    0.281481 0.196463 0.366713 0.132169
H13   H     H_    0.432396 0.648108 0.702457 0.076852
H14   H     H_    0.609107 0.700159 0.699024 0.125614
H15   H     H_    0.748708 0.226309 0.735102 0.134947
H16   H     H_    0.351930 0.202254 0.694752 0.159992
H17   H     H_    0.128116 0.647181 0.342520 0.086089
H18   H     H_    0.922786 0.696522 0.344937 -0.053717
H19   H     H_    0.184515 0.748612 0.282295 0.147613
H20   H     H_    0.056664 0.674904 0.259781 0.122775
H21   H     H_    0.966260 0.772219 0.278583 0.115896
H22   H     H_    0.644460 0.732509 0.361824 -0.067833
H23   H     H_    0.268912 0.179674 0.431039 0.044466
H24   H     H_    0.465254 0.747708 0.399210 0.076182
H25   H     H_    0.528383 0.866989 0.362857 0.070599
H26   H     H_    0.332381 0.838322 0.340630 0.149383
H27   H     H_    0.148512 0.348840 0.662319 0.040409
H28   H     H_    0.505346 0.818697 0.300962 0.121441
H29   H     H_    0.147695 0.464322 0.285246 0.135857
H30   H     H_    0.178540 0.326141 0.123832 0.121788
H31   H     H_    0.560255 0.478602 0.756884 0.099986
H32   H     H_    0.402123 0.324940 0.884602 0.119868
H33   H     H_    0.336438 0.325056 0.969116 0.068903
H34   H     H_    0.084809 0.193921 0.393123 0.125102
H35   H     H_    0.248483 0.321114 0.039296 0.069067
H36   H     H_    0.664634 0.572596 0.245629 0.121650
H37   H     H_    0.844315 0.695436 0.117555 0.122351
H38   H     H_    0.927593 0.684340 0.956958 0.069222
H39   H     H_    0.334686 0.306296 0.633551 0.060880
H40   H     H_    0.996231 0.679831 0.872663 0.122147
H41   H     H_    0.046215 0.526032 0.714918 0.125960
H42   H     H_    0.906962 0.694137 0.033116 0.068998
H43   H     H_    0.836866 0.544827 0.400238 0.083249
H44   H     H_    0.361820 0.452997 0.604540 0.073633
H45   H     H_    0.875960 0.676386 0.567380 0.006345
H46   H     H_    0.478160 0.855808 0.525241 0.084290
H47   H     H_    0.293171 0.102466 0.539719 0.068793
H48   H     H_    0.894688 0.898483 0.445105 0.078313
H49   H     H_    0.713469 0.155931 0.465491 0.075049
H50   H     H_    0.366121 0.339329 0.523318 0.054794
H51   H     H_    0.378154 0.299498 0.721062 0.165482
H52   H     H_    0.818866 0.666062 0.472701 0.059588
H53   H     H_    0.188195 0.260249 0.727272 0.095347
H54   H     H_    0.325022 0.315756 0.422229 0.002855
H55   H     H_    0.127488 0.313006 0.448749 0.045596
H56   H     H_    0.080012 0.685060 0.548920 0.073789
H57   H     H_    0.806250 0.154119 0.619945 -0.007180
H58   H     H_    0.876319 0.800240 0.620837 0.137453
H59   H     H_    0.926099 0.814814 0.558361 0.063325
H60   H     H_    0.085462 0.807411 0.605976 0.124405
N1    N     N_R   0.945789 0.514339 0.203542 -0.421240
N2    N     N_R   0.264678 0.500339 0.796235 -0.423142
O1    O     O_2   0.910880 0.540430 0.617910 -0.469696
O2    O     O_2   0.209631 0.774182 0.466446 -0.486661
O3    O     O_3   0.108663 0.761065 0.373640 -0.600467
O4    O     O_3   0.142880 0.540370 0.557740 -0.488940
O5    O     O_3   0.562610 0.408580 0.475460 -0.489712
O6    O     O_2   0.365880 0.685750 0.523280 -0.459551
O7    O     O_3   0.561050 0.716755 0.601720 -0.640977
O8    O     O_2   0.415652 0.535007 0.322132 -0.498250
O9    O     O_3   0.435073 0.685421 0.330603 -0.592037
O10   O     O_2   0.054171 0.389358 0.201887 -0.596881
O11   O     O_2   0.398327 0.381555 0.803419 -0.613827
O12   O     O_3   0.643151 0.306808 0.397234 -0.638007
O13   O     O_2   0.841459 0.639102 0.197464 -0.620349
O14   O     O_2   0.130144 0.620197 0.795873 -0.597997
O15   O     O_3   0.675650 0.402220 0.588450 -0.465517
O16   O     O_2   0.837963 0.432982 0.674883 -0.522597
O17   O     O_3   0.054991 0.664148 0.622291 -0.626003
O18   O     O_3   0.631724 0.326495 0.672566 -0.608325
O19   O     O_2   0.823810 0.314230 0.476690 -0.463608
O20   O     O_3   0.086630 0.363340 0.564170 -0.489941
O21   O     O_2   0.970483 0.225465 0.540309 -0.502118
O22   O     O_2   0.571446 0.193632 0.622069 -0.606617
O23   O     O_3   0.135962 0.239599 0.625655 -0.615130
O24   O     O_2   0.278810 0.459550 0.382060 -0.463382
O25   O     O_3   0.046820 0.459570 0.442260 -0.493100
O26   O     O_3   0.514050 0.597710 0.411540 -0.477544
O27   O     O_3   0.127354 0.336398 0.374941 -0.623159
O28   O     O_3   0.627090 0.591350 0.524530 -0.474593
O29   O     O_3   0.103080 0.636600 0.435820 -0.491296
P1    P     P_3+3 0.078810 0.562990 0.610370 0.998297
P2    P     P_3+3 0.645380 0.325580 0.462150 0.988515
P3    P     P_3+3 0.122602 0.262080 0.563751 0.943208
P4    P     P_3+3 0.110900 0.436950 0.389630 0.995975
P5    P     P_3+3 0.073860 0.737964 0.433513 0.943577
P6    P     P_3+3 0.666248 0.416673 0.653258 0.963013
P7    P     P_3+3 0.550865 0.688705 0.537778 0.952586
P8    P     P_3+3 0.525519 0.595593 0.347065 0.944670

loop_
_geom_bond_atom_site_label_1
_geom_bond_atom_site_label_2
_ccdc_geom_bond_type
O9    P8    S    
C5    P8    S    
C7    H29   S    
C30   P6    S    
C9    C36   A    
C12   H1    S    
C53   P7    S    
C19   C24   A    
Ba1   O1    S    
C40   H34   S    
C51   C57   A    
C15   H44   S    
C3    H36   S    
C26   O14   D    
Ba2   O24   S    
C63   H7    S    
O17   P1    S    
C52   O17   S    
C17   C19   A    
C22   C24   A    
C32   C33   S    
C35   C38   A    
C36   C37   A    
C55   C57   A    
C46   P2    S    
C52   C61   S    
C21   H32   S    
C34   H14   S    
C67   O10   D    
C53   C60   A    
C44   C50   A    
C54   C55   A    
Ba1   Ba2   S    
C62   H2    S    
C66   H28   S    
C11   C38   A    
C17   C35   A    
O1    P1    D    
C9    C13   A    
C25   C42   A    
C47   H49   S    
C34   H13   S    
C67   N1    Am   
C54   P5    S    
C21   C22   A    
Ba1   O5    S    
C7    C8    S    
O12   P2    S    
C40   H23   S    
C61   H59   S    
O27   P4    S    
C37   C43   A    
C42   H40   S    
C61   H60   S    
O15   P6    S    
Ba1   P1    S    
C57   C58   S    
C6    C14   D    
O4    P1    S    
Ba1   O15   S    
C40   H12   S    
C15   C31   D    
O19   P2    D    
O26   P8    S    
C31   C32   D    
C51   C53   A    
C12   C64   S    
C4    C16   S    
C52   H56   S    
C44   C46   A    
C16   H16   S    
C39   H37   S    
C49   C50   A    
C66   H26   S    
C45   H17   S    
O23   P3    S    
Ba1   O28   S    
C17   C20   A    
C13   C39   A    
C6    P4    S    
Ba2   P4    S    
C15   C30   S    
C3    C5    S    
C18   C37   A    
C6    C7    D    
O5    P2    S    
C50   P3    S    
C29   H31   S    
C23   H9    S    
C66   H25   S    
C63   H5    S    
C65   C66   S    
C58   C59   T    
C45   H18   S    
C11   H30   S    
Ba1   O25   S    
C31   P1    S    
C41   C42   A    
C8    N1    S    
C35   C36   A    
O16   P6    D    
O2    P5    D    
C38   H35   S    
C29   C30   S    
C65   H22   S    
C48   C49   A    
C24   C25   A    
O3    P5    S    
Ba1   O19   S    
C41   H38   S    
O29   P5    S    
C10   C11   A    
C65   O9    S    
C56   H21   S    
C4    O23   S    
C1    C12   S    
C16   H53   S    
C46   C47   A    
C10   C67   A    
C28   H55   S    
Ba1   P2    S    
O20   P3    S    
O7    P7    S    
C45   O3    S    
C34   H11   S    
C32   H41   S    
C29   C33   D    
Ba2   O28   S    
C1    H8    S    
C16   H51   S    
C28   H54   S    
O6    P7    D    
C18   C41   A    
C14   H43   S    
C55   H48   S    
C28   O27   S    
C5    C14   S    
Ba2   O25   S    
C23   H10   S    
Ba2   O6    S    
O18   P6    S    
C49   H47   S    
C56   H19   S    
C2    O13   D    
C64   O22   D    
C2    N1    Am   
C9    C10   A    
C43   H42   S    
C62   O12   S    
O24   P4    D    
C4    H27   S    
Ba2   O4    S    
C20   H33   S    
C26   N2    Am   
C62   C63   S    
C2    C13   A    
C23   O7    S    
C33   N2    S    
C3    C8    D    
C39   C43   A    
C45   C56   S    
C27   N2    Am   
Ba2   O26   S    
C27   O11   D    
C52   H45   S    
C12   O18   S    
O28   P7    S    
C44   H50   S    
Ba1   O20   S    
C54   C60   A    
C62   H3    S    
O8    P8    D    
C1    H4    S    
C56   H20   S    
Ba2   O5    S    
O21   P3    D    
C1    H15   S    
C23   C34   S    
C64   H57   S    
C22   C27   A    
C18   C19   A    
O25   P4    S    
Ba2   O29   S    
C47   C48   A    
C25   C26   A    
C65   H24   S    
C48   C59   S    
C4    H39   S    
C20   C21   A    
C28   C40   S    
Ba1   O4    S    
C60   H52   S    
C61   H58   S    
C63   H6    S    
C51   H46   S    
