data_mof_unit_5219.cif
_audit_creation_date              2012-12-10T18:45:11-0500
_audit_creation_method            fapswitch 2.2
_symmetry_space_group_name_H-M    P1
_symmetry_Int_Tables_number       1
_space_group_crystal_system       triclinic
_cell_length_a                    10.611417
_cell_length_b                    9.984558
_cell_length_c                    10.697013
_cell_angle_alpha                 90.850581
_cell_angle_beta                  92.746586
_cell_angle_gamma                 90.236558
_cell_volume                      1131.91184801

loop_
_atom_site_label
_atom_site_type_symbol
_atom_type_description
_atom_site_fract_x
_atom_site_fract_y
_atom_site_fract_z
_atom_type_partial_charge
C1    C     C_R   0.260487 0.499812 0.497864 0.907541
C2    C     C_R   0.739176 0.500388 0.500570 0.894603
C3    C     C_R   0.940274 0.571704 0.589554 -0.269313
C4    C     C_R   0.069430 0.570635 0.589204 -0.238185
C5    C     C_R   0.585821 0.072467 0.575005 0.126147
C6    C     C_R   0.422397 0.069123 0.416701 0.103906
C7    C     C_R   0.586881 0.929576 0.572517 0.102582
C8    C     C_R   0.412362 0.926875 0.428936 0.128515
C9    C     C_R   0.515396 0.500402 0.262054 0.902393
C10   C     C_R   0.493458 0.501639 0.739996 0.862158
C11   C     C_R   0.581429 0.750631 0.125065 -0.154914
C12   C     C_R   0.455856 0.754223 0.891767 -0.178923
C13   C     C_R   0.556063 0.872576 0.067619 -0.169337
C14   C     C_R   0.487690 0.874449 0.953624 -0.158377
C15   C     C_R   0.495042 0.629654 0.942519 0.096058
C16   C     C_R   0.539894 0.628356 0.067419 0.101015
C17   C     C_R   0.538165 0.504475 0.130346 -0.124030
C18   C     C_R   0.493276 0.506071 0.874625 -0.119533
C19   C     C_R   0.534466 0.384082 0.063355 -0.221152
C20   C     C_R   0.515076 0.384912 0.936096 -0.226601
C21   C     C_R   0.058706 0.434323 0.396839 0.053051
C22   C     C_R   0.927718 0.434437 0.397703 0.058206
C23   C     C_R   0.871176 0.501697 0.495759 -0.020938
C24   C     C_R   0.127479 0.500231 0.494682 -0.029409
H1    H     H_    0.544689 0.288869 0.108999 0.157695
H2    H     H_    0.516169 0.289597 0.886365 0.163318
H3    H     H_    0.635146 0.753015 0.213627 0.162326
H4    H     H_    0.398515 0.761139 0.805987 0.165589
H5    H     H_    0.585453 0.965632 0.113663 0.133130
H6    H     H_    0.461240 0.968984 0.911870 0.136618
H7    H     H_    0.894171 0.624002 0.664126 0.147743
H8    H     H_    0.124245 0.622662 0.663210 0.148336
N1    N     N_R   0.500000 0.857200 0.500000 -0.136748
N2    N     N_R   0.500000 0.142810 0.500000 -0.147632
O1    O     O_R   0.316770 0.614620 0.499990 -0.645304
O2    O     O_R   0.683230 0.614620 0.500010 -0.644140
O3    O     O_R   0.316800 0.385290 0.500000 -0.614668
O4    O     O_R   0.683200 0.385290 0.500000 -0.615456
O5    O     O_R   0.500010 0.614690 0.316770 -0.641346
O6    O     O_R   0.499990 0.614690 0.683230 -0.643799
O7    O     O_R   0.500040 0.385360 0.316770 -0.634912
O8    O     O_R   0.499960 0.385360 0.683230 -0.641447
Zn1   Zn    Zn3+2 0.500000 0.653120 0.500000 0.898993
Zn2   Zn    Zn3+2 0.500000 0.346880 0.500000 0.918541
N3    N     N_3   0.122235 0.372508 0.296145 -0.487812
H9    H     H_    0.094462 0.272036 0.289607 0.187038
H10   H     H_    0.093981 0.419648 0.212913 0.176429
N4    N     N_3   0.851348 0.370556 0.299293 -0.470855
H11   H     H_    0.871129 0.414199 0.214189 0.176896
H12   H     H_    0.874461 0.269011 0.295144 0.174536
C25   C     C_3   0.687127 0.142509 0.657567 -0.352223
C26   C     C_3   0.818034 0.134100 0.601639 -0.343055
C27   C     C_3   0.917624 0.207932 0.684548 -0.871672
H13   H     H_    0.889290 0.313374 0.700786 0.264597
H14   H     H_    0.930172 0.157702 0.776232 0.255666
H15   H     H_    0.009140 0.207467 0.638316 0.257776
H16   H     H_    0.848589 0.028736 0.591341 0.220411
H17   H     H_    0.814646 0.177851 0.506869 0.242897
H18   H     H_    0.665660 0.247495 0.674574 0.252289
H19   H     H_    0.690761 0.097070 0.751968 0.180906
C28   C     C_3   0.369479 0.138589 0.300069 -0.340566
C29   C     C_3   0.284639 0.060894 0.202876 -0.407014
C30   C     C_3   0.260995 0.141194 0.083528 -0.902519
H20   H     H_    0.222359 0.241461 0.104632 0.273578
H21   H     H_    0.350244 0.153847 0.034916 0.258414
H22   H     H_    0.192580 0.086606 0.019371 0.254484
H23   H     H_    0.331112 0.966743 0.174259 0.257150
H24   H     H_    0.192321 0.038261 0.242886 0.240153
H25   H     H_    0.318507 0.228762 0.328368 0.261367
H26   H     H_    0.453666 0.166865 0.249821 0.210561
N5    N     N_3   0.680735 0.862967 0.649069 -0.479004
H27   H     H_    0.745129 0.816967 0.592153 0.209368
H28   H     H_    0.639185 0.794623 0.706747 0.237299
N6    N     N_3   0.304238 0.858685 0.374505 -0.482544
H29   H     H_    0.246108 0.831466 0.445968 0.212154
H30   H     H_    0.331948 0.775246 0.323358 0.240993

loop_
_geom_bond_atom_site_label_1
_geom_bond_atom_site_label_2
_ccdc_geom_bond_type
C28   H26   S    
C15   C18   A    
C22   N4    S    
C30   H21   S    
O4    Zn2   S    
C29   C30   S    
C1    O3    A    
C10   O8    A    
O1    Zn1   S    
C11   C16   A    
C2    O4    A    
C27   H14   S    
C3    C23   A    
C19   C20   A    
C1    C24   S    
C12   C15   A    
C29   H24   S    
C5    N2    A    
C2    O2    A    
O3    Zn2   S    
N4    H12   S    
C30   H22   S    
C5    C7    A    
N5    H27   S    
C13   C14   A    
C3    H7    S    
C7    N1    A    
C8    N6    S    
C4    H8    S    
C26   H17   S    
C29   H23   S    
C14   H6    S    
C4    C24   A    
C6    C28   S    
C9    C17   S    
N4    H11   S    
C17   C19   A    
C10   C18   S    
C11   H3    S    
C21   N3    S    
C8    N1    A    
N3    H10   S    
C7    N5    S    
C28   C29   S    
C19   H1    S    
O7    Zn2   S    
C27   H15   S    
C25   H18   S    
N6    H29   S    
N6    H30   S    
C28   H25   S    
C15   C16   A    
N1    Zn1   S    
C6    N2    A    
C11   C13   A    
C25   C26   S    
C26   C27   S    
C1    O1    A    
C18   C20   A    
C10   O6    A    
C26   H16   S    
C21   C24   A    
C13   H5    S    
C2    C23   S    
N5    H28   S    
N2    Zn2   S    
C22   C23   A    
C5    C25   S    
O2    Zn1   S    
C6    C8    A    
C25   H19   S    
C12   H4    S    
C21   C22   A    
N3    H9    S    
C9    O7    A    
O5    Zn1   S    
C9    O5    A    
O8    Zn2   S    
C3    C4    A    
C30   H20   S    
C27   H13   S    
C12   C14   A    
C16   C17   A    
C20   H2    S    
O6    Zn1   S    
