data_mof_unit_50452.cif
_audit_creation_date              2012-12-11T16:48:28-0500
_audit_creation_method            fapswitch 2.2
_symmetry_space_group_name_H-M    P1
_symmetry_Int_Tables_number       1
_space_group_crystal_system       triclinic
_cell_length_a                    17.374212
_cell_length_b                    24.365181
_cell_length_c                    14.890845
_cell_angle_alpha                 89.914769
_cell_angle_beta                  125.099185
_cell_angle_gamma                 90.163072
_cell_volume                      5157.38391687

loop_
_atom_site_label
_atom_site_type_symbol
_atom_type_description
_atom_site_fract_x
_atom_site_fract_y
_atom_site_fract_z
_atom_type_partial_charge
Br1   Br    Br    0.226045 0.385013 0.632604 -0.536551
Br2   Br    Br    0.743975 0.383230 0.358895 -0.589610
Br3   Br    Br    0.711107 0.887898 0.628581 -0.530159
Br4   Br    Br    0.243042 0.884176 0.360952 -0.611610
C1    C     C_R   0.311860 0.376184 0.910860 -0.124936
C2    C     C_R   0.547068 0.500111 0.720532 0.040182
C3    C     C_R   0.052344 0.845981 0.908272 0.179225
C4    C     C_R   0.316981 0.357467 0.001472 -0.024724
C5    C     C_R   0.667636 0.342010 0.000035 -0.022080
C6    C     C_R   0.817726 0.856498 0.001492 -0.018087
C7    C     C_R   0.114612 0.814777 0.000868 -0.017672
C8    C     C_R   0.060041 0.000481 0.365334 0.049171
C9    C     C_R   0.052662 0.000062 0.727287 0.037812
C10   C     C_R   0.186206 0.499419 0.650944 0.081830
C11   C     C_R   0.800507 0.498865 0.365067 0.066276
C12   C     C_R   0.680367 0.001263 0.665025 0.061632
C13   C     C_R   0.298690 0.999320 0.366725 0.059270
C14   C     C_2   0.938810 0.456281 0.520903 -0.052413
C15   C     C_2   0.038857 0.462385 0.598263 -0.128146
C16   C     C_2   0.432810 0.958022 0.531202 -0.045056
C17   C     C_R   0.679020 0.365075 0.091283 -0.095886
C18   C     C_2   0.532421 0.964952 0.612217 -0.122658
C19   C     C_2   0.884277 0.500475 0.476835 -0.178594
C20   C     C_2   0.085442 0.498096 0.577470 -0.146981
C21   C     C_2   0.377922 0.001690 0.481514 -0.177484
C22   C     C_2   0.579635 0.001280 0.593758 -0.136979
C23   C     C_R   0.288349 0.704293 0.107212 0.036867
C24   C     C_R   0.614463 0.762353 0.892273 0.130635
C25   C     C_R   0.879994 0.256985 0.103292 0.008218
C26   C     C_R   0.113667 0.263434 0.893474 0.127669
C27   C     C_R   0.253309 0.672616 0.013246 0.072136
C28   C     C_R   0.812564 0.875205 0.910963 -0.134028
C29   C     C_R   0.635847 0.740516 0.991395 0.020990
C30   C     C_R   0.865041 0.240255 0.004897 0.091956
C31   C     C_R   0.137760 0.240296 0.992823 0.005762
C32   C     C_R   0.157567 0.676536 0.927260 -0.188532
C33   C     C_R   0.689838 0.772655 0.086932 -0.122466
C34   C     C_R   0.796954 0.266773 0.906854 -0.138977
C35   C     C_R   0.193680 0.271586 0.089200 -0.109595
C36   C     C_R   0.734067 0.302275 0.905519 -0.147617
C37   C     C_R   0.243192 0.317000 0.089412 -0.121374
C38   C     C_R   0.104146 0.719298 0.927877 -0.148127
C39   C     C_R   0.144494 0.847587 0.089960 -0.126247
C40   C     C_R   0.741634 0.817051 0.087889 -0.150497
C41   C     C_R   0.738956 0.310910 0.001799 0.089844
C42   C     C_R   0.240465 0.328484 0.995179 0.054911
C43   C     C_R   0.147849 0.758485 0.012959 0.096235
C44   C     C_R   0.741226 0.827280 0.994720 0.064146
C45   C     C_R   0.404172 0.623973 0.093766 -0.084339
C46   C     C_R   0.556032 0.650939 0.908406 -0.157659
C47   C     C_R   0.944461 0.151191 0.091473 -0.110952
C48   C     C_R   0.056940 0.150838 0.908595 -0.167701
C49   C     C_R   0.815850 0.291036 0.101749 0.115689
C50   C     C_R   0.317854 0.640244 0.004310 0.062546
C51   C     C_R   0.166283 0.306308 0.895371 0.097252
C52   C     C_R   0.235589 0.745264 0.108679 0.108521
C53   C     C_R   0.668302 0.804575 0.894780 0.087667
C54   C     C_3   0.891605 0.324709 0.195398 -0.532145
C55   C     C_3   0.162845 0.284764 0.799131 -0.503056
C56   C     C_3   0.320914 0.779995 0.184112 -0.511329
C57   C     C_3   0.667925 0.781572 0.801470 -0.500511
C58   C     C_3   0.379110 0.735264 0.180289 0.062628
C59   C     C_3   0.607008 0.735756 0.796444 0.002432
C60   C     C_3   0.961736 0.288903 0.194667 0.093532
C61   C     C_R   0.617633 0.682851 0.997735 0.070359
C62   C     C_3   0.103056 0.238354 0.794743 0.004989
C63   C     C_R   0.604877 0.449660 0.624869 0.133893
C64   C     C_R   0.610350 0.449865 0.536111 0.175359
C65   C     C_R   0.106349 0.949837 0.627259 0.142026
C66   C     C_R   0.107154 0.950273 0.535165 0.174896
C67   C     C_R   0.594138 0.499043 0.664843 0.039077
C68   C     C_R   0.603763 0.499310 0.484195 0.040762
C69   C     C_R   0.098335 0.999080 0.669874 0.036619
C70   C     C_R   0.098659 0.999784 0.482344 0.038684
C71   C     C_R   0.614884 0.548247 0.633098 -0.172675
C72   C     C_R   0.886856 0.183566 0.000913 0.053126
C73   C     C_R   0.619297 0.548433 0.542146 -0.181112
C74   C     C_R   0.116543 0.048395 0.635641 -0.168887
C75   C     C_R   0.115992 0.048819 0.541183 -0.175943
C76   C     C_3   0.555207 0.397698 0.491258 -0.467337
C77   C     C_3   0.548439 0.397554 0.587350 -0.487203
C78   C     C_3   0.051385 0.898264 0.491969 -0.471531
C79   C     C_3   0.049498 0.897905 0.591746 -0.478592
C80   C     C_R   0.550384 0.454718 0.304367 -0.099551
C81   C     C_R   0.519150 0.454450 0.750152 -0.094173
C82   C     C_R   0.047950 0.954904 0.303592 -0.097971
C83   C     C_R   0.119136 0.182553 0.998173 0.068493
C84   C     C_R   0.025701 0.954383 0.758269 -0.083894
C85   C     C_R   0.238177 0.545251 0.706368 -0.203321
C86   C     C_R   0.755084 0.544767 0.301966 -0.187642
C87   C     C_R   0.734963 0.046618 0.717526 -0.175739
C88   C     C_R   0.253940 0.044967 0.302608 -0.187502
C89   C     C_R   0.547816 0.545428 0.302914 -0.133900
C90   C     C_R   0.517530 0.545890 0.748232 -0.102423
C91   C     C_R   0.043661 0.045823 0.300793 -0.107748
C92   C     C_R   0.019733 0.045791 0.750814 -0.099424
C93   C     C_R   0.241355 0.453998 0.703193 0.282711
C94   C     C_R   0.564893 0.500094 0.367316 0.057726
C95   C     C_R   0.750454 0.453199 0.303144 0.271403
C96   C     C_R   0.736362 0.955029 0.708437 0.291036
C97   C     C_R   0.249875 0.953509 0.304196 0.302112
C98   C     C_R   0.312374 0.627063 0.909978 -0.083719
C99   C     C_R   0.649075 0.651482 0.090624 -0.078333
C100  C     C_R   0.854113 0.151854 0.908773 -0.110813
C101  C     C_R   0.149958 0.151175 0.090881 -0.090742
C102  C     C_R   0.408377 0.367238 0.093027 0.199943
C103  C     C_R   0.579958 0.357298 0.908779 0.161002
C104  C     C_R   0.908702 0.866840 0.093060 0.196723
H1    H     H_    0.250616 0.376391 0.828168 0.150089
H2    H     H_    0.701093 0.760099 0.163351 0.147079
H3    H     H_    0.786153 0.256224 0.829818 0.134071
H4    H     H_    0.207500 0.258045 0.166384 0.146939
H5    H     H_    0.680127 0.321193 0.828788 0.137299
H6    H     H_    0.291291 0.338343 0.165782 0.158867
H7    H     H_    0.032105 0.722982 0.858860 0.171497
H8    H     H_    0.789219 0.838698 0.164055 0.159413
H9    H     H_    0.891096 0.368217 0.172375 0.223607
H10   H     H_    0.124723 0.312833 0.727356 0.238756
H11   H     H_    0.321020 0.819325 0.146192 0.228586
H12   H     H_    0.736708 0.359718 0.175647 0.165137
H13   H     H_    0.631204 0.808836 0.728398 0.245381
H14   H     H_    0.893293 0.319310 0.270676 0.210024
H15   H     H_    0.232609 0.270731 0.821254 0.212098
H16   H     H_    0.334772 0.784404 0.266581 0.219915
H17   H     H_    0.738488 0.767257 0.826772 0.207853
H18   H     H_    0.427051 0.714921 0.261156 0.125334
H19   H     H_    0.641901 0.695030 0.815825 0.117633
H20   H     H_    0.005084 0.263952 0.270551 0.127352
H21   H     H_    0.137660 0.197684 0.811129 0.120804
H22   H     H_    0.615168 0.587265 0.667836 0.138701
H23   H     H_    0.751723 0.874394 0.828412 0.156527
H24   H     H_    0.622413 0.587615 0.510190 0.137848
H25   H     H_    0.118398 0.087343 0.671616 0.138074
H26   H     H_    0.117683 0.088045 0.508312 0.137114
H27   H     H_    0.485355 0.403083 0.411936 0.211321
H28   H     H_    0.587012 0.362801 0.644410 0.208294
H29   H     H_    0.980358 0.904008 0.414433 0.211177
H30   H     H_    0.089290 0.863037 0.647992 0.219617
H31   H     H_    0.598425 0.363362 0.493776 0.238656
H32   H     H_    0.474643 0.403018 0.560976 0.228258
H33   H     H_    0.093137 0.863905 0.491532 0.240955
H34   H     H_    0.179632 0.833131 0.172747 0.191433
H35   H     H_    0.977052 0.903564 0.569719 0.227386
H36   H     H_    0.431354 0.627995 0.179282 0.098389
H37   H     H_    0.505981 0.664797 0.825577 0.144995
H38   H     H_    0.990198 0.164635 0.175919 0.095294
H39   H     H_    0.007148 0.164820 0.825819 0.140225
H40   H     H_    0.576325 0.414446 0.335949 0.182014
H41   H     H_    0.533977 0.412941 0.743815 0.129185
H42   H     H_    0.073641 0.914722 0.336106 0.182743
H43   H     H_    0.047526 0.912970 0.761121 0.131740
H44   H     H_    0.218805 0.587439 0.681164 0.131432
H45   H     H_    0.911473 0.540579 0.514089 0.139511
H46   H     H_    0.768544 0.586901 0.330013 0.123613
H47   H     H_    0.714811 0.089335 0.700582 0.131235
H48   H     H_    0.265806 0.087062 0.330741 0.123142
H49   H     H_    0.566657 0.587395 0.330630 0.099140
H50   H     H_    0.527602 0.588520 0.737630 0.111300
H51   H     H_    0.059644 0.088122 0.327132 0.093898
H52   H     H_    0.028821 0.088396 0.738903 0.111110
H53   H     H_    0.255217 0.636113 0.826498 0.102748
H54   H     H_    0.688014 0.665749 0.174568 0.099685
H55   H     H_    0.816528 0.165761 0.824731 0.102584
H56   H     H_    0.049562 0.527698 0.510905 0.146300
H57   H     H_    0.188880 0.165308 0.174894 0.094775
H58   H     H_    0.916942 0.415802 0.486433 0.198026
H59   H     H_    0.075491 0.432584 0.664401 0.150825
H60   H     H_    0.413330 0.917130 0.498510 0.202386
H61   H     H_    0.568995 0.934404 0.676920 0.151680
H62   H     H_    0.402817 0.042167 0.517967 0.142315
H63   H     H_    0.544534 0.031507 0.528317 0.145696
H64   H     H_    0.126406 0.649775 0.856456 0.134632
I1    I     I_    0.445532 0.764036 0.103149 -0.394796
I2    I     I_    0.466792 0.739353 0.648624 -0.371519
I3    I     I_    0.040901 0.333404 0.148607 -0.398868
I4    I     I_    0.960923 0.242936 0.650738 -0.375682
I5    I     I_    0.482096 0.316415 0.234354 -0.407379
I6    I     I_    0.488655 0.306994 0.769431 -0.384293
I7    I     I_    0.982213 0.816293 0.234676 -0.433087
I8    I     I_    0.947692 0.817911 0.746856 -0.410141
N1    N     N_R   0.395410 0.396350 0.944340 -0.043273
N2    N     N_R   0.474920 0.471030 0.794350 -0.035350
N3    N     N_R   0.025080 0.971030 0.205650 -0.045080
N4    N     N_R   0.974920 0.971030 0.794350 -0.031482
N5    N     N_R   0.320260 0.527820 0.794570 -0.063065
N6    N     N_R   0.679740 0.527820 0.205430 -0.059429
N7    N     N_R   0.820260 0.027820 0.794570 -0.062412
N8    N     N_R   0.179740 0.027820 0.205430 -0.059086
N9    N     N_R   0.524590 0.527840 0.205200 -0.049563
N10   N     N_R   0.475410 0.527840 0.794800 -0.045641
N11   N     N_R   0.024590 0.027840 0.205200 -0.047906
N12   N     N_R   0.604590 0.396350 0.055660 -0.048566
N13   N     N_R   0.975410 0.027840 0.794800 -0.045392
N14   N     N_R   0.320750 0.471000 0.795020 -0.078677
N15   N     N_R   0.679250 0.471000 0.204980 -0.072343
N16   N     N_R   0.820750 0.971000 0.795020 -0.074341
N17   N     N_R   0.179250 0.971000 0.204980 -0.068974
N18   N     N_R   0.393620 0.602490 0.942710 -0.042324
N19   N     N_R   0.606380 0.602490 0.057290 -0.045564
N20   N     N_R   0.893620 0.102490 0.942710 -0.042970
N21   N     N_R   0.106380 0.102490 0.057290 -0.042652
N22   N     N_R   0.451720 0.396350 0.057510 -0.056985
N23   N     N_R   0.895410 0.896350 0.944340 -0.045548
N24   N     N_R   0.548280 0.396350 0.942490 -0.062052
N25   N     N_R   0.951720 0.896350 0.057510 -0.059200
N26   N     N_R   0.048280 0.896350 0.942490 -0.068597
N27   N     N_R   0.104590 0.896350 0.055660 -0.053479
N28   N     N_R   0.449930 0.602500 0.055880 -0.042731
N29   N     N_R   0.550070 0.602500 0.944120 -0.046990
N30   N     N_R   0.949930 0.102500 0.055880 -0.045030
N31   N     N_R   0.050070 0.102500 0.944120 -0.043464
N32   N     N_R   0.525080 0.471030 0.205650 -0.046123
Ni1   Ni    Ni4+2 0.435420 0.434270 0.870230 0.288660
Ni2   Ni    Ni4+2 0.564580 0.434270 0.129770 0.274590
Ni3   Ni    Ni4+2 0.935420 0.934270 0.870230 0.284745
Ni4   Ni    Ni4+2 0.064580 0.934270 0.129770 0.263178
Ni5   Ni    Ni4+2 0.563430 0.564580 0.128740 0.213889
Ni6   Ni    Ni4+2 0.436570 0.564580 0.871260 0.230131
Ni7   Ni    Ni4+2 0.063430 0.064580 0.128740 0.205654
Ni8   Ni    Ni4+2 0.936570 0.064580 0.871260 0.224476

loop_
_geom_bond_atom_site_label_1
_geom_bond_atom_site_label_2
_ccdc_geom_bond_type
C21   H62   S    
C72   C100  A    
N13   Ni8   S    
C34   C36   A    
C5    C41   S    
C81   N2    A    
C51   C55   S    
N7    N16   A    
C77   H32   S    
N4    N13   A    
C32   C38   A    
N1    N22   A    
N19   Ni5   S    
C37   H6    S    
N14   Ni1   S    
C14   H58   S    
C29   C61   S    
C44   C53   A    
C35   C37   A    
N26   Ni3   S    
C20   H56   S    
C24   C53   A    
C3    C7    A    
N31   Ni8   S    
N23   N25   A    
C76   H27   S    
C1    H1    S    
C26   C31   A    
C77   H28   S    
C91   H51   S    
N29   Ni6   S    
N23   Ni3   S    
C78   H29   S    
C8    C70   S    
C98   N18   A    
C55   C62   S    
C97   N17   A    
C84   N4    A    
C16   C21   D    
C31   C83   S    
C45   C50   A    
C45   H36   S    
C95   N15   A    
N28   Ni5   S    
C56   H11   S    
C57   H13   S    
C14   C15   S    
C79   H30   S    
C10   C20   S    
C57   C59   S    
C13   C97   A    
N15   Ni2   S    
C7    C43   S    
Br3   C96   S    
C85   H44   S    
C46   N29   A    
C89   H49   S    
C2    C90   A    
C42   C51   A    
C66   C70   A    
N2    Ni1   S    
C37   C42   A    
C8    C91   A    
C65   C69   A    
C9    C69   S    
C86   H46   S    
N5    N14   A    
C102  I5    S    
C71   H22   S    
C91   N11   A    
C62   H21   S    
C96   N16   A    
C25   C60   S    
C41   C49   A    
C27   C32   A    
C90   H50   S    
C30   C34   A    
C55   H15   S    
C100  N20   A    
C62   I4    S    
C22   H63   S    
N18   Ni6   S    
C13   C88   A    
C15   H59   S    
C59   I2    S    
C100  H55   S    
C78   H33   S    
N10   Ni6   S    
C1    N1    A    
C46   C61   A    
N9    Ni5   S    
C4    C42   S    
N7    Ni8   S    
C80   H40   S    
C12   C22   S    
C2    C67   S    
C16   H60   S    
N6    Ni5   S    
C32   H64   S    
C69   C74   A    
C54   H14   S    
C6    C104  A    
C9    C92   A    
C39   N27   A    
C14   C19   D    
N6    N15   A    
C47   C72   A    
N21   Ni7   S    
C88   H48   S    
N5    Ni6   S    
N11   Ni7   S    
C58   H18   S    
N16   Ni3   S    
C23   C52   A    
C12   C96   A    
N4    Ni3   S    
C68   C94   S    
C86   N6    A    
C54   C60   S    
C60   H20   S    
C58   I1    S    
C23   C27   A    
C25   C30   A    
C54   H9    S    
C29   C33   A    
N30   Ni7   S    
C52   C56   S    
C104  I7    S    
C4    C102  A    
N19   N29   A    
C73   H24   S    
C93   N14   A    
C31   C35   A    
C63   C64   A    
C90   N10   A    
C10   C85   A    
C87   H47   S    
C68   C73   A    
C65   C79   S    
C23   C58   S    
C102  N22   A    
C101  N21   A    
C36   H5    S    
C83   C101  A    
C45   N28   A    
C64   C68   A    
Br4   C97   S    
C80   N32   A    
N12   N24   A    
N12   Ni2   S    
C99   N19   A    
N22   Ni2   S    
C60   I3    S    
C7    C39   A    
C71   C73   A    
C33   H2    S    
C26   C62   S    
N17   Ni4   S    
C3    N26   A    
C12   C87   A    
C46   H37   S    
C35   H4    S    
C92   H52   S    
C16   C18   S    
C24   C29   A    
C63   C77   S    
C55   H10   S    
C70   C75   A    
C19   H45   S    
C103  I6    S    
C6    C44   S    
C82   N3    A    
N20   Ni8   S    
C84   H43   S    
C56   H16   S    
C61   C99   A    
Br1   C93   S    
C64   C76   S    
C48   N31   A    
C10   C93   A    
N8    Ni7   S    
N3    Ni4   S    
C75   H26   S    
C87   N7    A    
C92   N13   A    
C99   H54   S    
N26   N27   A    
C85   N5    A    
C50   C98   A    
C48   C83   A    
N25   Ni4   S    
C67   C71   A    
N32   Ni2   S    
C76   C77   S    
C17   N12   A    
N9    N32   A    
N3    N11   A    
Br2   C95   S    
C1    C4    A    
N1    Ni1   S    
C49   C54   S    
C88   N8    A    
C53   C57   S    
C89   N9    A    
C17   H12   S    
C76   H31   S    
C26   C51   A    
C47   H38   S    
C8    C82   A    
C80   C94   A    
C28   N23   A    
C82   H42   S    
C15   C20   D    
C13   C21   S    
C103  N24   A    
C40   C44   A    
C56   C58   S    
C79   H35   S    
C74   C75   A    
C47   N30   A    
C5    C17   A    
C25   C49   A    
N8    N17   A    
C33   C40   A    
C98   H53   S    
N24   Ni1   S    
C9    C84   A    
C11   C19   S    
N27   Ni4   S    
C101  H57   S    
C3    I8    S    
C63   C67   A    
C38   C43   A    
C28   H23   S    
C27   C50   S    
C65   C66   A    
C66   C78   S    
C74   H25   S    
C81   H41   S    
C18   H61   S    
C18   C22   D    
C24   C59   S    
C6    C28   A    
C38   H7    S    
C36   C41   A    
C40   H8    S    
N20   N30   A    
C78   C79   S    
C11   C95   A    
C2    C81   A    
C5    C103  A    
C43   C52   A    
C39   H34   S    
C57   H17   S    
N2    N10   A    
C34   H3    S    
C89   C94   A    
N21   N31   A    
N18   N28   A    
C59   H19   S    
C104  N25   A    
C30   C72   S    
C48   H39   S    
C11   C86   A    
