data_mof_unit_15022.cif
_audit_creation_date              2012-12-11T15:39:04-0500
_audit_creation_method            fapswitch 2.2
_symmetry_space_group_name_H-M    P1
_symmetry_Int_Tables_number       1
_space_group_crystal_system       triclinic
_cell_length_a                    14.316363
_cell_length_b                    14.834614
_cell_length_c                    33.257466
_cell_angle_alpha                 97.917643
_cell_angle_beta                  90.504001
_cell_angle_gamma                 118.764358
_cell_volume                      6109.59961561

loop_
_atom_site_label
_atom_site_type_symbol
_atom_type_description
_atom_site_fract_x
_atom_site_fract_y
_atom_site_fract_z
_atom_type_partial_charge
C1    C     C_R   0.616714 0.910045 0.436856 0.541547
C2    C     C_R   0.741165 0.422813 0.187357 0.029367
C3    C     C_R   0.677675 0.917935 0.661908 -0.127049
C4    C     C_R   0.618101 0.813172 0.666620 0.014351
C5    C     C_R   0.630946 0.870146 0.588931 0.011900
C6    C     C_R   0.052168 0.781295 0.063800 0.539331
C7    C     C_R   0.744230 0.487097 0.066239 0.546236
C8    C     C_R   0.743114 0.789359 0.066364 0.543549
C9    C     C_R   0.022222 0.732369 0.947708 0.542633
C10   C     C_R   0.711929 0.437086 0.949340 0.542739
C11   C     C_R   0.709834 0.739721 0.950480 0.544246
C12   C     C_R   0.829897 0.440613 0.165332 -0.115673
C13   C     C_R   0.828653 0.454781 0.124734 -0.123506
C14   C     C_R   0.779584 0.353297 0.245768 -0.102886
C15   C     C_R   0.771374 0.339320 0.286447 -0.103116
C16   C     C_R   0.728832 0.389650 0.313095 0.031083
C17   C     C_R   0.700136 0.458514 0.298890 -0.112081
C18   C     C_R   0.707697 0.471898 0.258194 -0.110044
C19   C     C_R   0.744613 0.417108 0.231121 0.031664
C20   C     C_R   0.603451 0.340637 0.367710 -0.115077
C21   C     C_R   0.593806 0.205139 0.456545 0.545543
C22   C     C_R   0.570333 0.295748 0.402682 -0.119715
C23   C     C_R   0.738734 0.296414 0.412120 -0.125155
C24   C     C_R   0.771972 0.341645 0.377204 -0.118684
C25   C     C_R   0.703104 0.360740 0.353908 0.030776
C26   C     C_R   0.636100 0.269715 0.424341 0.021882
C27   C     C_R   0.244143 0.877410 0.393410 0.002642
C28   C     C_R   0.235988 0.959809 0.380319 -0.131048
C29   C     C_R   0.211566 0.956176 0.339236 -0.129954
C30   C     C_R   0.194143 0.870041 0.310644 0.024477
C31   C     C_R   0.194523 0.783810 0.323729 0.002546
C32   C     C_R   0.295546 0.892662 0.434393 0.540337
C33   C     C_R   0.219327 0.787873 0.365007 -0.128233
C34   C     C_R   0.195984 0.807718 0.163185 -0.107652
C35   C     C_R   0.168452 0.786828 0.121301 -0.125053
C36   C     C_R   0.089353 0.899943 0.129904 -0.127183
C37   C     C_R   0.116502 0.920284 0.171908 -0.115178
C38   C     C_R   0.166298 0.871090 0.188683 0.038627
C39   C     C_1   0.176640 0.875657 0.231976 -0.018718
C40   C     C_1   0.183704 0.874351 0.267948 -0.016162
C41   C     C_R   0.110556 0.828987 0.104487 0.020693
C42   C     C_R   0.637889 0.878218 0.395089 0.005026
C43   C     C_R   0.614261 0.905498 0.551557 0.542860
C44   C     C_R   0.558914 0.791307 0.367799 -0.023007
C45   C     C_R   0.573206 0.781477 0.326131 -0.117733
C46   C     C_R   0.665158 0.855789 0.311434 0.024116
C47   C     C_R   0.747040 0.936038 0.338411 -0.119064
C48   C     C_R   0.733929 0.946856 0.379887 -0.135660
C49   C     C_R   0.779780 0.921531 0.174581 -0.115271
C50   C     C_R   0.794385 0.907901 0.133185 -0.126116
C51   C     C_R   0.619205 0.753754 0.121372 -0.124893
C52   C     C_R   0.604705 0.767759 0.162683 -0.113521
C53   C     C_R   0.686524 0.849342 0.189475 0.038914
C54   C     C_R   0.589398 0.198638 0.571123 0.542341
C55   C     C_1   0.678790 0.852778 0.232458 -0.028254
C56   C     C_1   0.672771 0.853669 0.268480 -0.026888
C57   C     C_R   0.716081 0.821131 0.106547 0.023976
C58   C     C_R   0.620871 0.245340 0.614573 0.020805
C59   C     C_R   0.553995 0.273398 0.637498 -0.127415
C60   C     C_R   0.568288 0.292785 0.679996 -0.117046
C61   C     C_R   0.649582 0.284687 0.700022 0.039251
C62   C     C_R   0.720807 0.263557 0.677523 -0.118511
C63   C     C_R   0.706925 0.244439 0.635001 -0.132614
C64   C     C_R   0.757520 0.333424 0.846123 -0.114698
C65   C     C_R   0.289795 0.887313 0.548705 0.540012
C66   C     C_R   0.769239 0.364388 0.888281 -0.123302
C67   C     C_R   0.590040 0.342554 0.885806 -0.131021
C68   C     C_R   0.578557 0.311565 0.843657 -0.118225
C69   C     C_R   0.663781 0.310920 0.823641 0.037887
C70   C     C_1   0.659428 0.298918 0.780020 -0.034369
C71   C     C_1   0.655889 0.292416 0.743531 -0.034370
C72   C     C_R   0.687492 0.374150 0.908285 0.021087
C73   C     C_R   0.074444 0.757976 0.910091 0.024025
C74   C     C_R   0.106138 0.856115 0.899192 -0.122723
C75   C     C_R   0.134414 0.873862 0.860034 -0.119773
C76   C     C_R   0.738348 0.450733 0.105646 0.021562
C77   C     C_R   0.130845 0.793573 0.831237 0.030770
C78   C     C_R   0.107454 0.698160 0.843084 -0.119149
C79   C     C_R   0.079730 0.680546 0.882377 -0.124694
C80   C     C_R   0.198812 0.767594 0.764403 -0.117260
C81   C     C_R   0.202965 0.773957 0.723091 -0.114049
C82   C     C_R   0.149590 0.818569 0.705010 0.029874
C83   C     C_R   0.092572 0.857392 0.728722 -0.116082
C84   C     C_R   0.087894 0.850514 0.770025 -0.113110
C85   C     C_R   0.141076 0.805638 0.788147 0.030519
C86   C     C_R   0.194050 0.927903 0.650496 -0.119312
C87   C     C_R   0.647287 0.426171 0.127108 -0.122409
C88   C     C_R   0.227729 0.944808 0.611760 -0.126847
C89   C     C_R   0.182734 0.763352 0.594488 -0.121320
C90   C     C_R   0.149370 0.746645 0.633169 -0.120782
C91   C     C_R   0.159978 0.830033 0.661979 0.029944
C92   C     C_R   0.227671 0.863876 0.584310 0.021838
C93   C     C_R   0.657672 0.742658 0.912660 0.008698
C94   C     C_R   0.597783 0.649107 0.885441 -0.140381
C95   C     C_R   0.567626 0.650616 0.845695 -0.127912
C96   C     C_R   0.596037 0.745655 0.832550 0.016398
C97   C     C_R   0.647503 0.838515 0.860712 -0.119325
C98   C     C_R   0.648887 0.412719 0.167625 -0.120125
C99   C     C_R   0.678251 0.837734 0.900585 -0.015796
C100  C     C_R   0.556826 0.821883 0.776468 -0.120333
C101  C     C_R   0.565025 0.839924 0.736323 -0.117003
C102  C     C_R   0.599852 0.786045 0.707808 0.028226
C103  C     C_R   0.620603 0.709631 0.719344 -0.115982
C104  C     C_R   0.613360 0.692181 0.759650 -0.112511
C105  C     C_R   0.584287 0.750305 0.788823 0.029878
C106  C     C_R   0.572343 0.735894 0.632080 -0.121598
C107  C     C_R   0.577910 0.763625 0.593236 -0.017412
C108  C     C_R   0.684821 0.946096 0.623422 -0.136410
Cr1   Cr    Cr6+3 0.424820 0.846020 0.489780 1.072281
Cr2   Cr    Cr6+3 0.657880 0.078580 0.505700 1.012863
Cr3   Cr    Cr6+3 0.417280 0.075360 0.504550 1.016956
Cr4   Cr    Cr6+3 0.903360 0.812540 0.006510 1.032286
Cr5   Cr    Cr6+3 0.914630 0.587050 0.006280 1.017531
Cr6   Cr    Cr6+3 0.673560 0.582680 0.008540 1.014472
H1    H     H_    0.576322 0.422036 0.113229 0.131236
H2    H     H_    0.490879 0.276173 0.411383 0.133247
H3    H     H_    0.901715 0.448228 0.180037 0.120589
H4    H     H_    0.791669 0.278262 0.428497 0.127272
H5    H     H_    0.185812 0.731932 0.102495 0.126424
H6    H     H_    0.234774 0.769489 0.175922 0.121790
H7    H     H_    0.224689 0.723378 0.374520 0.153987
H8    H     H_    0.254575 0.029894 0.401400 0.133189
H9    H     H_    0.093151 0.969440 0.191458 0.107913
H10   H     H_    0.043947 0.932819 0.117934 0.125336
H11   H     H_    0.900156 0.473922 0.109002 0.131818
H12   H     H_    0.210837 0.022661 0.329534 0.113871
H13   H     H_    0.870001 0.960725 0.122709 0.123573
H14   H     H_    0.843430 0.985047 0.195231 0.106767
H15   H     H_    0.819168 0.993123 0.327199 0.112580
H16   H     H_    0.796908 0.013270 0.399680 0.136940
H17   H     H_    0.532100 0.711809 0.174025 0.111040
H18   H     H_    0.557385 0.686424 0.101545 0.122738
H19   H     H_    0.510896 0.718019 0.304912 0.117699
H20   H     H_    0.845277 0.388118 0.904640 0.128335
H21   H     H_    0.849888 0.358056 0.367556 0.111935
H22   H     H_    0.823853 0.332937 0.830843 0.107039
H23   H     H_    0.784346 0.257688 0.692821 0.104908
H24   H     H_    0.759639 0.222780 0.618305 0.123013
H25   H     H_    0.486950 0.274604 0.622751 0.128159
H26   H     H_    0.505572 0.294049 0.826441 0.106165
H27   H     H_    0.525601 0.349216 0.900212 0.126350
H28   H     H_    0.513205 0.309821 0.697237 0.105298
H29   H     H_    0.104082 0.917524 0.920298 0.126130
H30   H     H_    0.055382 0.604127 0.890075 0.126090
H31   H     H_    0.121193 0.670098 0.641402 0.109581
H32   H     H_    0.792764 0.284668 0.296426 0.106390
H33   H     H_    0.249631 0.745876 0.705384 0.110820
H34   H     H_    0.241217 0.733665 0.777854 0.105968
H35   H     H_    0.154684 0.948846 0.851725 0.106341
H36   H     H_    0.051056 0.892065 0.715197 0.106498
H37   H     H_    0.041020 0.878463 0.787634 0.108480
H38   H     H_    0.202645 0.993162 0.672424 0.105954
H39   H     H_    0.261578 0.022957 0.604584 0.128688
H40   H     H_    0.103808 0.634939 0.821284 0.105276
H41   H     H_    0.180140 0.699192 0.573598 0.135560
H42   H     H_    0.580580 0.575063 0.893969 0.131700
H43   H     H_    0.808123 0.310262 0.225320 0.108295
H44   H     H_    0.715465 0.978442 0.688260 0.111190
H45   H     H_    0.546281 0.897583 0.727665 0.113029
H46   H     H_    0.532343 0.866287 0.798161 0.107671
H47   H     H_    0.526373 0.577861 0.824693 0.106824
H48   H     H_    0.647362 0.667208 0.697693 0.109419
H49   H     H_    0.636273 0.637425 0.768426 0.108770
H50   H     H_    0.527843 0.654551 0.635601 0.109868
H51   H     H_    0.669654 0.912590 0.851039 0.110337
H52   H     H_    0.578669 0.396591 0.183878 0.108572
H53   H     H_    0.725855 0.028243 0.621120 0.127383
H54   H     H_    0.668863 0.499570 0.318971 0.110439
H55   H     H_    0.682506 0.523356 0.247602 0.111117
H56   H     H_    0.548176 0.353503 0.350126 0.109260
O1    O     O_R   0.318160 0.824460 0.443680 -0.500156
O2    O     O_R   0.645130 0.163230 0.552140 -0.504208
O3    O     O_R   0.498360 0.178430 0.555780 -0.516308
O4    O     O_R   0.328690 0.978040 0.538950 -0.504878
O5    O     O_3   0.499990 0.999990 0.500010 -0.246465
O6    O     O_R   0.828710 0.851830 0.052170 -0.514521
O7    O     O_R   0.005980 0.823990 0.047210 -0.503455
O8    O     O_R   0.031900 0.688850 0.050170 -0.516705
O9    O     O_R   0.830940 0.518420 0.048680 -0.499687
O10   O     O_R   0.668160 0.499860 0.053480 -0.517746
O11   O     O_R   0.689170 0.693840 0.050110 -0.502054
O12   O     O_R   0.525040 0.857250 0.449830 -0.478036
O13   O     O_R   0.803860 0.812940 0.962540 -0.493229
O14   O     O_R   0.982950 0.787950 0.964120 -0.499863
O15   O     O_R   0.007050 0.649970 0.960540 -0.520261
O16   O     O_R   0.807910 0.482370 0.965590 -0.500075
O17   O     O_R   0.643310 0.460980 0.963840 -0.519969
O18   O     O_R   0.666140 0.657800 0.967020 -0.505514
O19   O     O_3   0.830520 0.660760 0.007110 -0.241449
O20   O     O_R   0.684760 0.998800 0.456360 -0.521775
O21   O     O_R   0.647540 0.166310 0.470260 -0.502550
O22   O     O_R   0.500960 0.181750 0.467450 -0.516273
O23   O     O_R   0.331100 0.981120 0.457080 -0.504307
O24   O     O_R   0.315560 0.821140 0.532010 -0.511071
O25   O     O_R   0.522630 0.854180 0.531710 -0.480158
O26   O     O_R   0.682160 0.995480 0.544690 -0.522459
C109  C     C_1   0.174600 0.692598 0.295112 0.195896
N1    N     N_1   0.158596 0.619539 0.272172 -0.311734
C110  C     C_1   0.460849 0.713267 0.380881 0.215878
N2    N     N_1   0.382209 0.650513 0.391249 -0.288891
C111  C     C_1   0.733103 0.935733 0.928048 0.208562
N3    N     N_1   0.776989 0.014275 0.950028 -0.295846
C112  C     C_1   0.526203 0.681789 0.558564 0.202847
N4    N     N_1   0.484771 0.616195 0.530782 -0.292525

loop_
_geom_bond_atom_site_label_1
_geom_bond_atom_site_label_2
_ccdc_geom_bond_type
C8    O11   A    
Cr1   O12   S    
C65   C92   S    
C20   H56   S    
C74   H29   S    
C64   H22   S    
C101  C102  A    
C65   O4    A    
Cr3   O4    S    
C73   C74   A    
C35   H5    S    
C95   C96   A    
C21   C26   S    
C2    C12   A    
C23   H4    S    
C81   C82   A    
Cr4   O14   S    
C45   C46   A    
C27   C33   A    
C100  C105  A    
C37   C38   A    
C42   C44   A    
C47   H15   S    
C83   C84   A    
Cr3   O5    S    
C54   O3    A    
C36   C37   A    
C36   H10   S    
C67   C72   A    
C90   H31   S    
C9    O15   A    
C86   C91   A    
C95   H47   S    
C54   C58   S    
C38   C39   S    
C86   C88   A    
C55   C56   T    
C89   H41   S    
C20   C25   A    
C15   C16   A    
Cr2   O21   S    
C16   C25   S    
Cr6   O18   S    
C43   O25   A    
C34   C35   A    
C111  N3    T    
C23   C26   A    
C60   H28   S    
Cr4   O19   S    
C66   H20   S    
C66   C72   A    
C88   C92   A    
C16   C17   A    
C81   H33   S    
C6    C41   S    
C4    C102  S    
C3    H44   S    
C23   C24   A    
C31   C33   A    
C70   C71   T    
C51   C57   A    
C106  H50   S    
C29   C30   A    
C93   C99   A    
C87   H1    S    
C61   C62   A    
C87   C98   A    
C13   H11   S    
C1    O20   A    
C11   C93   S    
C22   H2    S    
Cr5   O8    S    
C5    C43   S    
C77   C85   S    
C110  N2    T    
Cr6   O19   S    
C37   H9    S    
C29   H12   S    
C6    O8    A    
C33   H7    S    
C50   C57   A    
C48   H16   S    
C36   C41   A    
C102  C103  A    
C9    C73   S    
C104  H49   S    
Cr2   O5    S    
C104  C105  A    
C97   C99   A    
C17   C18   A    
Cr4   O13   S    
C53   C55   S    
C34   H6    S    
C74   C75   A    
C14   H43   S    
C7    O9    A    
C67   C68   A    
C47   C48   A    
C54   O2    A    
C11   O13   A    
C84   C85   A    
C39   C40   T    
C78   C79   A    
C68   C69   A    
C21   O22   A    
C58   C59   A    
C77   C78   A    
C4    C106  A    
Cr2   O20   S    
C82   C91   S    
C11   O18   A    
C32   O23   A    
C43   O26   A    
C64   C66   A    
C80   H34   S    
C107  C112  S    
C80   C85   A    
C86   H38   S    
C8    C57   S    
C100  H46   S    
C109  N1    T    
C13   C76   A    
C59   H25   S    
C51   H18   S    
Cr5   O15   S    
C96   C97   A    
C62   C63   A    
Cr1   O5    S    
C10   O17   A    
C73   C79   A    
C30   C40   S    
Cr1   O24   S    
C93   C94   A    
C42   C48   A    
C64   C69   A    
C24   C25   A    
C89   C92   A    
Cr3   O3    S    
C75   C77   A    
C76   C87   A    
C2    C98   A    
C98   H52   S    
Cr3   O23   S    
C27   C32   S    
C24   H21   S    
Cr5   O9    S    
C32   O1    A    
C20   C22   A    
C49   C50   A    
C94   C95   A    
Cr6   O10   S    
C6    O7    A    
Cr2   O26   S    
C63   H24   S    
C68   H26   S    
C3    C4    A    
C67   H27   S    
C31   C109  S    
C52   C53   A    
C96   C105  S    
C65   O24   A    
C5    C107  A    
C18   H55   S    
Cr3   O22   S    
C58   C63   A    
C49   H14   S    
C46   C47   A    
C28   C29   A    
C103  H48   S    
Cr4   O6    S    
C2    C19   S    
C34   C38   A    
C52   H17   S    
C14   C19   A    
C108  H53   S    
C78   H40   S    
C44   C45   A    
C80   C81   A    
C17   H54   S    
C15   H32   S    
C1    O12   A    
C8    O6    A    
C7    C76   S    
C3    C108  A    
Cr6   O11   S    
Cr5   O19   S    
C45   H19   S    
C79   H30   S    
C88   H39   S    
C83   H36   S    
C106  C107  A    
C51   C52   A    
C9    O14   A    
C61   C71   S    
C90   C91   A    
C30   C31   A    
C75   H35   S    
C97   H51   S    
Cr5   O16   S    
C100  C101  A    
C10   O16   A    
C7    O10   A    
Cr1   O25   S    
C28   H8    S    
C62   H23   S    
C69   C70   S    
C35   C41   A    
C49   C53   A    
C21   O21   A    
Cr6   O17   S    
C12   H3    S    
C84   H37   S    
C1    C42   S    
C59   C60   A    
C12   C13   A    
C101  H45   S    
C44   C110  S    
C94   H42   S    
C82   C83   A    
C22   C26   A    
C46   C56   S    
C103  C104  A    
C18   C19   A    
C14   C15   A    
C60   C61   A    
C50   H13   S    
C112  N4    T    
C89   C90   A    
C99   C111  S    
Cr1   O1    S    
C10   C72   S    
Cr4   O7    S    
C27   C28   A    
C5    C108  A    
Cr2   O2    S    
