data_mof_unit_57638.cif
_audit_creation_date              2012-12-10T18:53:01-0500
_audit_creation_method            fapswitch 2.2
_symmetry_space_group_name_H-M    P1
_symmetry_Int_Tables_number       1
_space_group_crystal_system       triclinic
_cell_length_a                    9.8246
_cell_length_b                    10.709897
_cell_length_c                    16.865252
_cell_angle_alpha                 90.045126
_cell_angle_beta                  86.348151
_cell_angle_gamma                 89.981201
_cell_volume                      1770.96553074

loop_
_atom_site_label
_atom_site_type_symbol
_atom_type_description
_atom_site_fract_x
_atom_site_fract_y
_atom_site_fract_z
_atom_type_partial_charge
C1    C     C_R   0.500030 0.740150 0.500025 0.862274
C2    C     C_R   0.499948 0.259827 0.500101 0.873645
C3    C     C_R   0.618630 0.935987 0.517638 -0.201269
C4    C     C_R   0.381129 0.063895 0.483163 -0.194340
C5    C     C_R   0.618570 0.063884 0.517737 -0.203972
C6    C     C_R   0.381158 0.936019 0.483128 -0.202169
C7    C     C_R   0.499890 0.127391 0.500354 -0.015267
C8    C     C_R   0.499967 0.872529 0.500227 -0.004401
C9    C     C_R   0.933582 0.423907 0.449601 -0.075496
C10   C     C_R   0.066442 0.576291 0.550273 -0.070253
C11   C     C_R   0.077598 0.423985 0.449593 -0.085570
C12   C     C_R   0.922429 0.576259 0.550257 -0.070814
C13   C     C_R   0.482644 0.505597 0.652282 0.887129
C14   C     C_R   0.517042 0.501367 0.346834 0.867041
C15   C     C_R   0.475469 0.515409 0.737457 -0.076548
C16   C     C_R   0.520605 0.481689 0.261301 -0.113456
C17   C     C_R   0.529469 0.620090 0.776277 0.126414
C18   C     C_R   0.402566 0.505779 0.219454 0.110136
C19   C     C_R   0.531668 0.617614 0.860345 0.176373
C20   C     C_R   0.386223 0.438628 0.148886 0.204091
C21   C     C_R   0.486475 0.507619 0.901094 0.123759
C22   C     C_R   0.504055 0.386821 0.109116 0.137573
C23   C     C_R   0.427508 0.409387 0.860607 -0.198625
C24   C     C_R   0.624323 0.372688 0.147737 -0.213340
C25   C     C_R   0.421346 0.413739 0.779563 -0.261645
C26   C     C_R   0.630295 0.414645 0.225109 -0.241694
C27   C     C_2   0.492796 0.495805 0.986938 -0.216722
C28   C     C_2   0.514373 0.386659 0.022766 -0.237678
H1    H     H_    0.721168 0.395970 0.256309 0.166680
H2    H     H_    0.378749 0.335056 0.749093 0.155437
H3    H     H_    0.544475 0.302745 0.989962 0.154109
H4    H     H_    0.473410 0.578016 0.023526 0.161332
H5    H     H_    0.385686 0.328321 0.891858 0.154236
H6    H     H_    0.714428 0.332686 0.117157 0.149564
H7    H     H_    0.710609 0.887168 0.531811 0.153647
H8    H     H_    0.289025 0.112658 0.469155 0.153117
H9    H     H_    0.710605 0.112658 0.531814 0.158762
H10   H     H_    0.289062 0.887256 0.469136 0.155278
H11   H     H_    0.883346 0.363110 0.409359 0.123569
H12   H     H_    0.116704 0.637247 0.590413 0.126311
H13   H     H_    0.136769 0.363302 0.409316 0.125681
H14   H     H_    0.863295 0.637188 0.590389 0.114389
N1    N     N_R   0.142790 0.500030 0.500020 -0.079322
N2    N     N_R   0.857210 0.499970 0.499980 -0.077609
O1    O     O_R   0.385380 0.683250 0.500010 -0.633432
O2    O     O_R   0.614620 0.316750 0.499990 -0.624173
O3    O     O_R   0.614710 0.683220 0.500000 -0.630625
O4    O     O_R   0.385290 0.316780 0.500000 -0.623614
O5    O     O_R   0.371780 0.500040 0.615800 -0.612474
O6    O     O_R   0.628220 0.499960 0.384200 -0.613235
O7    O     O_R   0.601110 0.500010 0.615800 -0.625829
O8    O     O_R   0.398890 0.499990 0.384200 -0.628233
Zn1   Zn    Zn3+2 0.346870 0.500020 0.500000 0.938473
Zn2   Zn    Zn3+2 0.653130 0.499980 0.500000 0.941955
C29   C     C_3   0.580233 0.733468 0.728136 -0.446338
C30   C     C_3   0.464391 0.825868 0.717701 -0.884893
H15   H     H_    0.385315 0.782541 0.682300 0.261109
H16   H     H_    0.416678 0.855158 0.776202 0.255041
H17   H     H_    0.504746 0.910031 0.685841 0.261469
H18   H     H_    0.666418 0.780222 0.755355 0.210273
H19   H     H_    0.624520 0.707174 0.668554 0.218259
C31   C     C_3   0.302973 0.609851 0.245746 -0.389044
C32   C     C_3   0.295881 0.711251 0.182199 -0.925134
H20   H     H_    0.399539 0.748494 0.166171 0.264403
H21   H     H_    0.251697 0.675463 0.127813 0.254086
H22   H     H_    0.230498 0.789158 0.205770 0.257337
H23   H     H_    0.200085 0.571429 0.262007 0.203257
H24   H     H_    0.335820 0.659783 0.298839 0.226108
C33   C     C_3   0.247238 0.423759 0.114272 -0.423509
C34   C     C_3   0.208946 0.286128 0.107369 -0.886815
H25   H     H_    0.281323 0.236954 0.064805 0.261573
H26   H     H_    0.209389 0.240154 0.166387 0.258282
H27   H     H_    0.105031 0.278227 0.085504 0.248566
H28   H     H_    0.164556 0.468399 0.151862 0.213868
H29   H     H_    0.246158 0.468191 0.054965 0.214457
C35   C     C_3   0.584666 0.728602 0.906219 -0.435637
C36   C     C_3   0.731781 0.707668 0.927246 -0.866267
H30   H     H_    0.739390 0.624659 0.966081 0.271061
H31   H     H_    0.798736 0.693842 0.872357 0.254758
H32   H     H_    0.768172 0.790551 0.959338 0.247854
H33   H     H_    0.578948 0.817478 0.873288 0.216216
H34   H     H_    0.518972 0.747480 0.960703 0.190493

loop_
_geom_bond_atom_site_label_1
_geom_bond_atom_site_label_2
_ccdc_geom_bond_type
C29   C30   S    
C32   H21   S    
C5    H9    S    
C1    C8    S    
C2    C7    S    
C4    H8    S    
C36   H30   S    
C2    O2    A    
O6    Zn2   S    
C31   H23   S    
C19   C35   S    
C19   C21   A    
C24   C26   A    
C15   C25   A    
C9    H11   S    
C30   H15   S    
C10   H12   S    
C12   H14   S    
C13   O7    A    
N1    Zn1   S    
C14   O8    A    
C23   H5    S    
C6    H10   S    
C11   N1    A    
C34   H25   S    
C17   C29   S    
C18   C20   A    
C21   C27   S    
C32   H22   S    
O1    Zn1   S    
C22   C28   S    
C29   H18   S    
C4    C7    A    
C36   H31   S    
C16   C26   A    
O4    Zn1   S    
C35   C36   S    
C4    C6    A    
C3    C8    A    
C35   H34   S    
C5    C7    A    
C1    O3    A    
C6    C8    A    
C2    O4    A    
C24   H6    S    
C31   C32   S    
C3    H7    S    
O2    Zn2   S    
C34   H27   S    
C33   H28   S    
C9    C11   A    
C10   C12   A    
O3    Zn2   S    
C13   O5    A    
C20   C22   A    
C13   C15   S    
C14   C16   S    
C20   C33   S    
C33   H29   S    
O8    Zn1   S    
C36   H32   S    
C25   H2    S    
C15   C17   A    
C9    N2    A    
C27   H4    S    
C28   H3    S    
C18   C31   S    
C3    C5    A    
C35   H33   S    
C10   N1    A    
C30   H17   S    
C31   H24   S    
O7    Zn2   S    
C21   C23   A    
C12   N2    A    
C1    O1    A    
C14   O6    A    
O5    Zn1   S    
C29   H19   S    
C17   C19   A    
C30   H16   S    
C11   H13   S    
C22   C24   A    
C23   C25   A    
C33   C34   S    
C32   H20   S    
N2    Zn2   S    
C26   H1    S    
C16   C18   A    
C27   C28   D    
C34   H26   S    
