data_mof_unit_41091.cif
_audit_creation_date              2012-12-10T18:47:47-0500
_audit_creation_method            fapswitch 2.2
_symmetry_space_group_name_H-M    P1
_symmetry_Int_Tables_number       1
_space_group_crystal_system       triclinic
_cell_length_a                    9.856423
_cell_length_b                    10.662684
_cell_length_c                    15.490788
_cell_angle_alpha                 90.400157
_cell_angle_beta                  67.585172
_cell_angle_gamma                 90.114503
_cell_volume                      1504.9805095

loop_
_atom_site_label
_atom_site_type_symbol
_atom_type_description
_atom_site_fract_x
_atom_site_fract_y
_atom_site_fract_z
_atom_type_partial_charge
C1    C     C_R   0.500123 0.739857 0.499931 0.959624
C2    C     C_R   0.491007 0.934442 0.422677 0.120688
C3    C     C_R   0.499720 0.128015 0.499951 -0.210767
C4    C     C_R   0.499966 0.872352 0.499921 -0.209233
C5    C     C_R   0.965676 0.428870 0.436992 -0.060448
C6    C     C_R   0.034368 0.571232 0.562941 -0.055021
C7    C     C_R   0.109410 0.428842 0.437039 -0.042175
C8    C     C_R   0.890637 0.571270 0.562888 -0.035708
C9    C     C_R   0.408079 0.499738 0.676092 0.919677
C10   C     C_R   0.591825 0.500964 0.323914 0.914087
C11   C     C_R   0.349184 0.498484 0.777786 -0.076985
C12   C     C_R   0.499928 0.260272 0.499886 0.959334
C13   C     C_R   0.647330 0.521432 0.223584 -0.072744
C14   C     C_R   0.166036 0.433918 0.925780 0.174028
C15   C     C_R   0.799830 0.640940 0.089256 0.180495
C16   C     C_R   0.210754 0.449131 0.829512 -0.192137
C17   C     C_R   0.772637 0.593540 0.178186 -0.198038
C18   C     C_R   0.439798 0.538956 0.822413 -0.199725
C19   C     C_R   0.553679 0.491351 0.178750 -0.187948
C20   C     C_R   0.396556 0.530477 0.918965 0.081789
C21   C     C_R   0.569516 0.546421 0.094195 0.079613
C22   C     C_R   0.259314 0.473377 0.971179 0.118221
C23   C     C_R   0.320161 0.480656 0.108081 -0.194579
C24   C     C_R   0.697670 0.618381 0.046765 0.117140
C25   C     C_R   0.492671 0.567925 0.963102 0.091602
C26   C     C_R   0.460862 0.530352 0.055887 0.093619
C27   C     C_R   0.619665 0.641174 0.917474 -0.201432
C28   C     C_R   0.220729 0.454587 0.066649 -0.169730
C29   C     C_R   0.719034 0.666944 0.959095 -0.166520
C30   C     C_R   0.507541 0.936164 0.577482 0.109241
C31   C     C_R   0.492443 0.064422 0.422308 0.109006
C32   C     C_R   0.506679 0.066147 0.577719 0.121203
H1    H     H_    0.115177 0.416342 0.109977 0.179480
H2    H     H_    0.642650 0.684020 0.850501 0.166262
H3    H     H_    0.193733 0.371841 0.386647 0.147193
H4    H     H_    0.806357 0.628375 0.613215 0.145183
H5    H     H_    0.813435 0.723994 0.921001 0.187232
H6    H     H_    0.464677 0.427812 0.213673 0.163030
H7    H     H_    0.548335 0.570475 0.779362 0.162974
H8    H     H_    0.844961 0.618419 0.213526 0.178702
H9    H     H_    0.141044 0.415737 0.794515 0.181288
H10   H     H_    0.941358 0.372004 0.386580 0.139166
H11   H     H_    0.058727 0.628180 0.613297 0.138171
H12   H     H_    0.281863 0.464173 0.182205 0.146799
I1    I     I_    0.963951 0.338236 0.993937 -0.316779
I2    I     I_    0.991572 0.752510 0.028221 -0.299505
I3    I     I_    0.512618 0.836250 0.695755 -0.328953
I4    I     I_    0.491083 0.165206 0.303208 -0.303216
I5    I     I_    0.509373 0.169614 0.696557 -0.252051
I6    I     I_    0.479308 0.832044 0.305970 -0.264037
N1    N     N_R   0.142780 0.500030 0.500020 -0.082419
N2    N     N_R   0.857220 0.499970 0.499980 -0.082609
O1    O     O_R   0.385370 0.683250 0.500010 -0.597522
O2    O     O_R   0.614630 0.316750 0.499990 -0.597591
O3    O     O_R   0.614700 0.683220 0.500000 -0.602345
O4    O     O_R   0.385300 0.316780 0.500000 -0.601863
O5    O     O_R   0.319830 0.500020 0.632250 -0.622039
O6    O     O_R   0.680170 0.499980 0.367750 -0.622482
O7    O     O_R   0.549160 0.499990 0.632240 -0.607430
O8    O     O_R   0.450840 0.500010 0.367760 -0.607199
Zn1   Zn    Zn3+2 0.346870 0.500020 0.500000 0.988640
Zn2   Zn    Zn3+2 0.653130 0.499980 0.500000 0.987746

loop_
_geom_bond_atom_site_label_1
_geom_bond_atom_site_label_2
_ccdc_geom_bond_type
O6    Zn2   S    
C2    C4    A    
C21   C26   A    
C5    N2    A    
O5    Zn1   S    
C19   H6    S    
C6    N1    A    
C27   C29   A    
O2    Zn2   S    
C11   C16   A    
C8    N2    A    
C10   O8    A    
N1    Zn1   S    
C13   C17   A    
C5    H10   S    
C1    C4    S    
C14   C22   A    
C1    O3    A    
C7    N1    A    
C11   C18   A    
C22   C28   A    
C23   C28   A    
C3    C31   A    
C9    C11   S    
C12   O4    A    
O1    Zn1   S    
C12   O2    A    
C6    C8    A    
C15   C24   A    
C10   O6    A    
C20   C22   A    
C28   H1    S    
C14   I1    S    
C18   C20   A    
C31   I4    S    
C27   H2    S    
C3    C32   A    
C14   C16   A    
C32   I5    S    
C21   C24   A    
C25   C27   A    
C20   C25   A    
C13   C19   A    
C30   C32   A    
O3    Zn2   S    
C30   I3    S    
C24   C29   A    
C9    O5    A    
C5    C7    A    
C8    H4    S    
C23   C26   A    
C29   H5    S    
C15   C17   A    
C18   H7    S    
C1    O1    A    
C6    H11   S    
C2    C31   A    
O7    Zn2   S    
N2    Zn2   S    
C3    C12   S    
C2    I6    S    
C15   I2    S    
C19   C21   A    
C25   C26   A    
O4    Zn1   S    
C7    H3    S    
C16   H9    S    
C17   H8    S    
C4    C30   A    
C23   H12   S    
O8    Zn1   S    
C9    O7    A    
C10   C13   S    
