data_mof_unit_52248.cif
_audit_creation_date              2012-12-10T17:27:51-0500
_audit_creation_method            fapswitch 2.2
_symmetry_space_group_name_H-M    P1
_symmetry_Int_Tables_number       1
_space_group_crystal_system       triclinic
_cell_length_a                    10.626617
_cell_length_b                    12.087431
_cell_length_c                    12.929625
_cell_angle_alpha                 92.967741
_cell_angle_beta                  91.768111
_cell_angle_gamma                 86.168827
_cell_volume                      1654.23154053

loop_
_atom_site_label
_atom_site_type_symbol
_atom_type_description
_atom_site_fract_x
_atom_site_fract_y
_atom_site_fract_z
_atom_type_partial_charge
C1    C     C_R   0.496713 0.521212 0.700230 0.915344
C2    C     C_R   0.946197 0.394993 0.478705 -0.026717
C3    C     C_R   0.872277 0.494533 0.463925 -0.163658
C4    C     C_R   0.928967 0.595943 0.459614 0.062102
C5    C     C_R   0.052622 0.602241 0.497188 0.429202
C6    C     C_R   0.123698 0.503167 0.520475 -0.187264
C7    C     C_R   0.506399 0.465462 0.189799 -0.080513
C8    C     C_R   0.498676 0.532125 0.811846 -0.101922
C9    C     C_R   0.558933 0.634789 0.967605 -0.213067
C10   C     C_R   0.539410 0.629203 0.861462 -0.265503
C11   C     C_R   0.470878 0.441118 0.868670 0.392170
C12   C     C_R   0.738320 0.497806 0.484274 0.913137
C13   C     C_R   0.484348 0.448561 0.976141 0.029568
C14   C     C_R   0.535265 0.543849 0.025645 0.017704
C15   C     C_R   0.554716 0.548012 0.133104 0.374392
C16   C     C_R   0.453701 0.373214 0.141210 -0.294243
C17   C     C_R   0.444069 0.363953 0.034944 -0.203384
C18   C     C_R   0.409014 0.952896 0.381748 0.124466
C19   C     C_R   0.408297 0.837878 0.398820 0.249797
C20   C     C_R   0.545166 0.860226 0.547512 0.505620
C21   C     C_R   0.539498 0.976657 0.537322 -0.078140
C22   C     C_R   0.464964 0.024076 0.457755 -0.051431
C23   C     C_R   0.504273 0.478515 0.300320 0.897941
C24   C     C_R   0.450026 0.141584 0.455720 0.468118
C25   C     C_R   0.604144 0.162253 0.591469 0.530892
C26   C     C_R   0.610332 0.046563 0.603692 -0.358228
C27   C     C_R   0.259706 0.501363 0.510173 0.902929
C28   C     C_R   0.903490 0.289685 0.449151 -0.137543
C29   C     C_R   0.968303 0.192109 0.481106 0.112214
C30   C     C_R   0.074990 0.200510 0.548890 0.505171
C31   C     C_R   0.119240 0.306105 0.575184 0.117419
C32   C     C_R   0.065004 0.401586 0.525837 -0.075261
H1    H     H_    0.399400 0.292659 0.000246 0.176574
H2    H     H_    0.560639 0.699481 0.817823 0.210076
H3    H     H_    0.671984 0.011815 0.663678 0.206672
H4    H     H_    0.820120 0.283341 0.399373 0.168214
H5    H     H_    0.416650 0.309605 0.185573 0.186813
H6    H     H_    0.589881 0.711592 0.003346 0.171758
N1    N     N_R   0.523130 0.207800 0.519340 -0.175761
N2    N     N_R   0.476870 0.792180 0.480660 -0.165712
O1    O     O_R   0.506170 0.421690 0.658830 -0.520740
O2    O     O_R   0.491330 0.609320 0.646410 -0.645457
O3    O     O_R   0.690660 0.406170 0.506210 -0.583321
O4    O     O_R   0.675810 0.593790 0.493790 -0.639315
O5    O     O_R   0.508670 0.390680 0.353590 -0.683195
O6    O     O_R   0.493830 0.578310 0.341170 -0.581651
O7    O     O_R   0.324190 0.406210 0.506210 -0.647154
O8    O     O_R   0.309340 0.593830 0.493790 -0.568135
Zn1   Zn    Zn3+2 0.509910 0.374720 0.508290 0.980607
Zn2   Zn    Zn3+2 0.490090 0.625280 0.491710 0.974250
C33   C     C_3   0.863905 0.693470 0.405589 -0.844564
H7    H     H_    0.931659 0.732023 0.356932 0.233593
H8    H     H_    0.787161 0.666654 0.351727 0.281921
H9    H     H_    0.824960 0.756736 0.463463 0.250367
O9    O     O_3   0.428757 0.346615 0.818117 -0.778249
H10   H     H_    0.478209 0.281736 0.845930 0.337913
O10   O     O_3   0.353287 0.187307 0.395349 -0.785466
H11   H     H_    0.367370 0.265084 0.386460 0.383069
O11   O     O_3   0.676698 0.231413 0.652706 -0.714131
H12   H     H_    0.731089 0.186106 0.700287 0.311563
C34   C     C_3   0.360941 0.996687 0.278353 -0.786072
H13   H     H_    0.366065 0.932460 0.214099 0.214714
H14   H     H_    0.261628 0.030680 0.284585 0.270336
H15   H     H_    0.421538 0.061081 0.253126 0.249471
C35   C     C_3   0.330704 0.768447 0.323658 -0.724412
H16   H     H_    0.239276 0.814049 0.304915 0.202006
H17   H     H_    0.382774 0.748707 0.251194 0.238093
H18   H     H_    0.303372 0.691456 0.353272 0.283733
O12   O     O_3   0.620457 0.818170 0.626635 -0.798035
H19   H     H_    0.634329 0.737916 0.613718 0.382973
C36   C     C_3   0.917718 0.081949 0.447079 -0.941505
H20   H     H_    0.833731 0.091994 0.394247 0.244730
H21   H     H_    0.991219 0.029344 0.405075 0.248417
H22   H     H_    0.888838 0.039046 0.515586 0.246399
O13   O     O_3   0.137940 0.109292 0.592205 -0.770612
H23   H     H_    0.100614 0.040051 0.566636 0.349087
C37   C     C_3   0.210300 0.315783 0.666703 -0.609535
H24   H     H_    0.301434 0.269611 0.648574 0.284315
H25   H     H_    0.226555 0.403401 0.690014 0.208725
H26   H     H_    0.170646 0.279209 0.734683 0.228802
O14   O     O_3   0.107248 0.703219 0.509537 -0.751077
H27   H     H_    0.040974 0.764387 0.517251 0.341036
O15   O     O_3   0.618619 0.631211 0.184809 -0.787158
H28   H     H_    0.687919 0.650700 0.141047 0.323720

loop_
_geom_bond_atom_site_label_1
_geom_bond_atom_site_label_2
_ccdc_geom_bond_type
C27   O8    A    
C6    C32   A    
C21   C26   A    
C23   O5    A    
C1    C8    S    
O9    H10   S    
O14   H27   S    
O7    Zn1   S    
C37   H24   S    
C28   C29   A    
C12   O3    A    
C5    C6    A    
C20   N2    A    
N2    Zn2   S    
C16   C17   A    
O4    Zn2   S    
C24   N1    A    
C2    C32   A    
C18   C19   A    
C34   H14   S    
C3    C12   S    
C31   C32   A    
C24   O10   S    
C35   H17   S    
C9    C10   A    
C6    C27   S    
C16   H5    S    
C7    C15   A    
O11   H12   S    
C23   O6    A    
C13   C14   A    
C34   H13   S    
C17   H1    S    
O1    Zn1   S    
C31   C37   S    
C37   H25   S    
C4    C33   S    
C33   H7    S    
C36   H21   S    
C9    C14   A    
O3    Zn1   S    
C15   O15   S    
C25   C26   A    
C33   H8    S    
C34   H15   S    
O13   H23   S    
C29   C30   A    
C5    O14   S    
C26   H3    S    
O15   H28   S    
O5    Zn1   S    
C35   H18   S    
C10   H2    S    
O2    Zn2   S    
C1    O1    A    
C7    C16   A    
N1    Zn1   S    
C22   C24   A    
C20   O12   S    
C3    C4    A    
C11   O9    S    
C37   H26   S    
C27   O7    A    
C18   C22   A    
C4    C5    A    
C36   H22   S    
C18   C34   S    
O6    Zn2   S    
C13   C17   A    
C33   H9    S    
C2    C3    A    
C36   H20   S    
C12   O4    A    
C25   N1    A    
C30   O13   S    
C11   C13   A    
O10   H11   S    
C30   C31   A    
C8    C11   A    
C7    C23   S    
O8    Zn2   S    
C9    H6    S    
C19   C35   S    
O12   H19   S    
C19   N2    A    
C1    O2    A    
C20   C21   A    
C28   H4    S    
C8    C10   A    
C35   H16   S    
C14   C15   A    
C2    C28   A    
C25   O11   S    
C21   C22   A    
C29   C36   S    
