data_mof_unit_55213.cif
_audit_creation_date              2012-12-11T21:29:33-0500
_audit_creation_method            fapswitch 2.2
_symmetry_space_group_name_H-M    P1
_symmetry_Int_Tables_number       1
_space_group_crystal_system       triclinic
_cell_length_a                    8.365141
_cell_length_b                    18.888746
_cell_length_c                    18.863238
_cell_angle_alpha                 103.432882
_cell_angle_beta                  90.996214
_cell_angle_gamma                 91.053325
_cell_volume                      2897.77635237

loop_
_atom_site_label
_atom_site_type_symbol
_atom_type_description
_atom_site_fract_x
_atom_site_fract_y
_atom_site_fract_z
_atom_type_partial_charge
Ba1   Ba    Ba6+2 0.844980 0.532260 0.467660 1.690633
Ba2   Ba    Ba6+2 0.344840 0.467800 0.532350 1.700394
C1    C     C_3   0.603635 0.793166 0.299912 -0.080054
C2    C     C_R   0.918786 0.434026 0.094400 0.038766
C3    C     C_R   0.765927 0.405964 0.073645 -0.073105
C4    C     C_3   0.123596 0.695873 0.280286 0.469197
C5    C     C_R   0.699846 0.410319 0.007137 -0.065562
C6    C     C_R   0.787131 0.440378 0.956799 0.008978
C7    C     C_R   0.940431 0.470649 0.978096 0.005913
C8    C     C_R   0.721793 0.441551 0.887106 -0.032803
C9    C     C_R   0.813780 0.470054 0.835316 -0.062521
C10   C     C_R   0.965977 0.503851 0.859287 -0.001058
C11   C     C_R   0.027064 0.504256 0.930839 -0.000763
C12   C     C_3   0.603003 0.721477 0.324355 0.337079
C13   C     C_R   0.765187 0.464947 0.760443 -0.027261
C14   C     C_R   0.866884 0.492801 0.713546 -0.289731
C15   C     C_R   0.012867 0.529414 0.737319 0.028397
C16   C     C_3   0.198426 0.754583 0.247228 -0.348176
C17   C     C_R   0.059903 0.536683 0.811911 -0.053468
C18   C     C_R   0.155130 0.501297 0.072106 0.012807
C19   C     C_R   0.215097 0.502100 0.143810 -0.005403
C20   C     C_R   0.123532 0.467771 0.190564 -0.055177
C21   C     C_R   0.981648 0.430229 0.162439 -0.038577
C22   C     C_R   0.202692 0.573634 0.839800 -0.033023
C23   C     C_3   0.623503 0.317956 0.286182 0.215513
C24   C     C_R   0.264460 0.572200 0.909098 0.043909
C25   C     C_R   0.177496 0.537095 0.954994 -0.018429
C26   C     C_R   0.241622 0.535145 0.025180 -0.002278
C27   C     C_R   0.415991 0.603029 0.932167 0.131750
C28   C     C_3   0.117992 0.708811 0.654993 0.340348
C29   C     C_R   0.479545 0.599096 0.999850 -0.139581
C30   C     C_R   0.393554 0.566290 0.047677 -0.003439
C31   C     C_R   0.365156 0.537042 0.168353 -0.023817
C32   C     C_R   0.458057 0.564831 0.117302 0.101940
C33   C     C_R   0.412469 0.543907 0.243211 0.013954
C34   C     C_3   0.635421 0.264616 0.211530 -0.257852
C35   C     C_R   0.308059 0.518082 0.290352 -0.229251
C36   C     C_R   0.170878 0.475157 0.264947 0.028049
C37   C     C_R   0.673559 0.954317 0.542792 0.103680
C38   C     C_R   0.733879 0.913869 0.591613 0.143131
C39   C     C_R   0.898858 0.043992 0.560173 -0.030871
C40   C     C_3   0.178554 0.787427 0.689897 -0.057606
C41   C     C_R   0.741729 0.022524 0.536318 0.025583
C42   C     C_R   0.969510 0.108976 0.551004 -0.063022
C43   C     C_R   0.876106 0.160245 0.524854 -0.097288
C44   C     C_R   0.722929 0.135566 0.493139 0.015606
C45   C     C_3   0.093619 0.299700 0.720758 0.338028
C46   C     C_R   0.660951 0.065330 0.495297 0.020927
C47   C     C_R   0.926129 0.234010 0.527418 -0.020339
C48   C     C_R   0.824997 0.278043 0.497768 -0.238973
C49   C     C_R   0.678893 0.253221 0.463740 -0.021542
C50   C     C_R   0.631161 0.180383 0.457948 -0.038621
C51   C     C_R   0.534582 0.926463 0.501141 0.032209
C52   C     C_3   0.046180 0.301797 0.363216 0.289367
C53   C     C_R   0.475125 0.854558 0.498704 -0.004920
C54   C     C_R   0.564210 0.808589 0.533935 -0.055407
C55   C     C_R   0.687315 0.840670 0.583247 -0.032422
C56   C     C_3   0.155708 0.271915 0.786703 -0.268403
C57   C     C_R   0.501876 0.149349 0.412797 -0.022386
C58   C     C_R   0.457484 0.076440 0.404773 -0.077968
C59   C     C_R   0.520154 0.037661 0.454930 -0.032905
C60   C     C_R   0.451291 0.971145 0.463620 0.016066
C61   C     C_R   0.293062 0.952016 0.442591 -0.116759
C62   C     C_R   0.324501 0.830184 0.463540 -0.064725
C63   C     C_R   0.229250 0.883461 0.441026 -0.059185
C64   C     C_3   0.118865 0.226740 0.343127 -0.287439
C65   C     C_R   0.278658 0.755319 0.454643 -0.048172
C66   C     C_R   0.387765 0.707572 0.476550 -0.260744
C67   C     C_3   0.538671 0.280363 0.658387 0.297127
C68   C     C_R   0.521823 0.733500 0.522196 0.059671
C69   C     C_3   0.702289 0.650207 0.698848 0.326350
C70   C     C_3   0.751666 0.688745 0.776120 -0.356392
C71   C     C_2   0.078468 0.821693 0.753760 0.575787
C72   C     C_2   0.550177 0.386284 0.277196 0.556415
C73   C     C_2   0.742172 0.202492 0.215616 0.550925
C74   C     C_2   0.915020 0.299216 0.719577 0.558914
C75   C     C_2   0.492353 0.179912 0.725781 0.655556
C76   C     C_2   0.819520 0.482080 0.636759 0.556364
C77   C     C_2   0.553907 0.415814 0.873858 0.555199
C78   C     C_3   0.567292 0.201104 0.662156 -0.225135
C79   C     C_2   0.145631 0.111396 0.554339 0.545681
C80   C     C_2   0.063317 0.874372 0.413887 0.541311
C81   C     C_2   0.367074 0.039595 0.337084 0.510953
C82   C     C_R   0.005225 0.468638 0.048095 0.016086
H1    H     H_    0.673177 0.728851 0.376216 0.094426
H2    H     H_    0.845920 0.730119 0.775231 0.111312
H3    H     H_    0.800615 0.649123 0.805387 0.050048
H4    H     H_    0.647800 0.716383 0.805144 0.149243
H5    H     H_    0.476949 0.707946 0.333854 -0.044185
H6    H     H_    0.543637 0.834948 0.341631 0.053774
H7    H     H_    0.743973 0.330583 0.310335 0.023334
H8    H     H_    0.513420 0.243420 0.191243 0.140793
H9    H     H_    0.687342 0.292746 0.171232 -0.016294
H10   H     H_    0.536049 0.786070 0.247427 0.071650
H11   H     H_    0.282354 0.729572 0.204007 0.090740
H12   H     H_    0.304613 0.784956 0.709830 0.141683
H13   H     H_    0.287107 0.278862 0.791810 0.156940
H14   H     H_    0.105563 0.303442 0.838476 0.115706
H15   H     H_    0.122589 0.213478 0.780197 0.145790
H16   H     H_    0.627864 0.293498 0.620438 -0.003415
H17   H     H_    0.421861 0.283872 0.633206 0.103785
H18   H     H_    0.697258 0.190821 0.662839 0.104725
H19   H     H_    0.516946 0.164507 0.611764 0.038610
H20   H     H_    0.694010 0.382787 0.110053 0.066470
H21   H     H_    0.578426 0.389685 0.996780 0.111690
H22   H     H_    0.913746 0.399967 0.194053 0.084933
H23   H     H_    0.920470 0.294321 0.375691 -0.088627
H24   H     H_    0.270045 0.602595 0.806967 0.149256
H25   H     H_    0.597872 0.622702 0.013809 0.074043
H26   H     H_    0.222489 0.667362 0.301228 -0.065152
H27   H     H_    0.340485 0.527340 0.347527 0.098351
H28   H     H_    0.866268 0.331694 0.496086 0.113002
H29   H     H_    0.744226 0.810804 0.618691 0.079090
H30   H     H_    0.443916 0.179513 0.378223 0.137462
H31   H     H_    0.357283 0.650051 0.465124 0.066082
H32   H     H_    0.976385 0.005612 0.577118 0.157546
H33   H     H_    0.104828 0.783115 0.222913 0.119029
H34   H     H_    0.109159 0.333430 0.412757 0.100139
H35   H     H_    0.214730 0.991812 0.428287 0.037560
H36   H     H_    0.264392 0.795104 0.290117 0.041404
H37   H     H_    0.986679 0.709722 0.648247 0.038035
H38   H     H_    0.280501 0.826108 0.608025 0.191204
H39   H     H_    0.079075 0.819519 0.601146 0.194076
H40   H     H_    0.954992 0.835152 0.744672 -0.044894
H41   H     H_    0.808434 0.787339 0.241998 0.201024
H42   H     H_    0.761193 0.871712 0.285416 0.178472
H43   H     H_    0.483268 0.388947 0.227647 -0.137751
H44   H     H_    0.871071 0.211480 0.217864 -0.000297
H45   H     H_    0.041467 0.188461 0.302995 0.124631
H46   H     H_    0.167649 0.400804 0.782602 0.160197
H47   H     H_    0.259457 0.371929 0.703317 0.249472
H48   H     H_    0.855211 0.318759 0.677145 -0.089336
H49   H     H_    0.990373 0.603055 0.247153 0.217259
H50   H     H_    0.942939 0.667666 0.203030 0.209021
H51   H     H_    0.366926 0.164551 0.723274 0.033421
H52   H     H_    0.739376 0.518052 0.617905 0.006099
H53   H     H_    0.460324 0.454423 0.874607 -0.018557
H54   H     H_    0.616391 0.607140 0.876423 0.158599
H55   H     H_    0.539162 0.689135 0.913528 0.188200
H56   H     H_    0.131539 0.204351 0.392359 0.083741
H57   H     H_    0.696286 0.561196 0.096921 0.171664
H58   H     H_    0.626906 0.646077 0.133961 0.182238
H59   H     H_    0.211059 0.123864 0.509794 0.011791
H60   H     H_    0.039073 0.864264 0.355876 0.023838
H61   H     H_    0.933917 0.921452 0.655074 0.193585
H62   H     H_    0.764281 0.943836 0.701144 0.193338
H63   H     H_    0.369491 0.980869 0.317773 -0.009111
H64   H     H_    0.294610 0.654159 0.590617 0.174782
H65   H     H_    0.112614 0.650784 0.548101 0.218854
H66   H     H_    0.237911 0.230314 0.319145 0.169838
H67   H     H_    0.812018 0.628679 0.670993 -0.073668
H68   H     H_    0.614625 0.605916 0.700963 0.032332
N1    N     N_3   0.175946 0.834170 0.637872 -0.526930
N2    N     N_3   0.766305 0.818080 0.291225 -0.440311
N3    N     N_3   0.149489 0.374526 0.727796 -0.491071
N4    N     N_3   0.038675 0.642711 0.223050 -0.499247
N5    N     N_3   0.510415 0.635828 0.885530 -0.509520
N6    N     N_3   0.618870 0.590990 0.134904 -0.459541
N7    N     N_3   0.826972 0.948860 0.655018 -0.498076
N8    N     N_3   0.192935 0.683925 0.584769 -0.522140
O1    O     O_2   0.885040 0.450540 0.321170 -0.452166
O2    O     O_2   0.253100 0.248406 0.527025 -0.526440
O3    O     O_3   0.153121 0.253120 0.656704 -0.634582
O4    O     O_3   0.133000 0.456200 0.410860 -0.482599
O5    O     O_3   0.556800 0.589310 0.543550 -0.488435
O6    O     O_2   0.384750 0.321010 0.451130 -0.455892
O7    O     O_3   0.523561 0.286630 0.329512 -0.655662
O8    O     O_2   0.432786 0.464726 0.752804 -0.531994
O9    O     O_3   0.545358 0.329524 0.727596 -0.559501
O10   O     O_3   0.639000 0.584840 0.375630 -0.439586
O11   O     O_2   0.743833 0.530272 0.245879 -0.461527
O12   O     O_3   0.630926 0.700222 0.664972 -0.641198
O13   O     O_3   0.053105 0.334061 0.303324 -0.656432
O14   O     O_3   0.670586 0.666882 0.270400 -0.592325
O15   O     O_2   0.804950 0.679010 0.548920 -0.490951
O16   O     O_3   0.051170 0.624120 0.414780 -0.486500
O17   O     O_2   0.943942 0.752031 0.471339 -0.437638
O18   O     O_2   0.134981 0.835432 0.815850 -0.548383
O19   O     O_2   0.558462 0.438825 0.328576 -0.559772
O20   O     O_2   0.685968 0.141773 0.214499 -0.538258
O21   O     O_2   0.837684 0.281255 0.767161 -0.535372
O22   O     O_2   0.572523 0.177730 0.779844 -0.488922
O23   O     O_3   0.014782 0.728128 0.334160 -0.577775
O24   O     O_2   0.862810 0.428848 0.593051 -0.586884
O25   O     O_2   0.518315 0.351753 0.868376 -0.526981
O26   O     O_2   0.218658 0.093444 0.603700 -0.596069
O27   O     O_2   0.953397 0.886766 0.456151 -0.584401
O28   O     O_2   0.292069 0.074268 0.301157 -0.572776
O29   O     O_2   0.304650 0.549490 0.678880 -0.449475
O30   O     O_3   0.056690 0.543860 0.589150 -0.492164
O31   O     O_3   0.550690 0.415220 0.624380 -0.485076
O32   O     O_3   0.158653 0.665190 0.703279 -0.643456
O33   O     O_3   0.632900 0.410750 0.456460 -0.405280
O34   O     O_3   0.138520 0.375940 0.585230 -0.416221
P1    P     P_3+3 0.058010 0.429760 0.330690 0.992856
P2    P     P_3+3 0.631910 0.669560 0.569730 0.966142
P3    P     P_3+3 0.076306 0.716252 0.419847 0.964921
P4    P     P_3+3 0.131690 0.570300 0.669320 0.982938
P5    P     P_3+3 0.111685 0.280432 0.574472 0.922598
P6    P     P_3+3 0.612411 0.581241 0.283449 1.017222
P7    P     P_3+3 0.563108 0.318353 0.423677 0.986491
P8    P     P_3+3 0.574413 0.419399 0.717199 0.935309

loop_
_geom_bond_atom_site_label_1
_geom_bond_atom_site_label_2
_ccdc_geom_bond_type
O29   P4    D    
C53   C54   A    
C61   C63   A    
Ba1   O16   S    
C16   H36   S    
H49   N4    S    
C4    H26   S    
O15   P2    D    
C38   N7    S    
C16   H33   S    
C56   H14   S    
Ba2   O29   S    
O16   P3    S    
C70   H3    S    
O10   P6    S    
C46   C59   A    
O4    P1    S    
C5    C6    A    
C43   C44   A    
C23   O7    S    
C28   N8    S    
C24   C25   A    
O23   P3    S    
C52   H23   S    
C1    H6    S    
C40   H12   S    
C52   O13   S    
Ba1   P1    S    
C22   C24   A    
C45   C74   S    
C64   H66   S    
C47   P5    S    
H61   N7    S    
C58   C81   S    
C19   C31   A    
C13   C14   A    
C20   C36   A    
C44   C50   A    
Ba1   O10   S    
O33   P7    S    
C36   P1    S    
O1    P1    D    
C23   C72   S    
H64   N8    S    
C7    C11   A    
C11   C25   A    
C15   C17   A    
O9    P8    S    
C9    C13   A    
C34   H9    S    
C69   O12   S    
C69   H67   S    
C72   O19   D    
C72   H43   S    
Ba1   O4    S    
C14   C15   A    
O13   P1    S    
C5    H21   S    
H46   N3    S    
C22   H24   S    
O31   P8    S    
O32   P4    S    
C41   C46   A    
Ba2   O6    S    
C76   O24   D    
C64   H45   S    
C45   O3    S    
Ba1   O30   S    
C34   H8    S    
C3    H20   S    
Ba1   O1    S    
C57   C58   A    
O17   P3    D    
C19   C20   A    
C27   C29   A    
C16   H11   S    
C39   C41   A    
C34   C73   S    
C56   H13   S    
H58   N6    S    
C70   H4    S    
C33   P6    S    
C48   C49   A    
C51   C53   A    
C31   C32   A    
C4    C16   S    
C44   C46   A    
C23   H7    S    
C56   H15   S    
C78   H19   S    
C49   C50   A    
C62   C65   A    
C26   C30   A    
Ba1   P2    S    
H50   N4    S    
Ba2   O31   S    
C80   H60   S    
C42   C79   S    
Ba2   O4    S    
C37   C38   A    
C3    C5    A    
C2    C21   A    
C6    C7    A    
C37   C41   A    
H62   N7    S    
C18   C26   A    
C21   H22   S    
O2    P5    D    
C1    N2    S    
C65   C66   A    
C78   H18   S    
C58   C59   A    
Ba2   O34   S    
O6    P7    D    
C30   C32   A    
Ba1   O33   S    
C67   H16   S    
C12   H5    S    
C35   C36   A    
C50   C57   A    
C61   H35   S    
C51   C60   A    
C70   H2    S    
C29   C30   A    
C2    C82   A    
C28   H37   S    
C43   C47   A    
C8    C77   S    
C71   H40   S    
C53   C62   A    
C40   N1    S    
C60   C61   A    
C48   H28   S    
C75   O22   D    
C29   H25   S    
C15   P4    S    
C67   O9    S    
C10   C11   A    
C73   O20   D    
Ba2   O5    S    
C1    C12   S    
C81   H63   S    
C71   O18   D    
C32   N6    S    
C6    C8    A    
C77   H53   S    
C28   O32   S    
C18   C82   A    
C39   C42   A    
C81   O28   D    
O12   P2    S    
O11   P6    D    
C54   C55   A    
C39   H32   S    
C74   O21   D    
O5    P2    S    
H42   N2    S    
C79   O26   D    
C13   P8    S    
H41   N2    S    
O30   P4    S    
H39   N1    S    
C75   C78   S    
Ba1   O15   S    
C40   C71   S    
C38   C55   A    
C77   O25   D    
C33   C35   A    
Ba1   O5    S    
Ba2   P4    S    
O14   P6    S    
C66   H31   S    
C27   N5    S    
C42   C43   A    
Ba2   O30   S    
C12   H1    S    
C2    C3    A    
C65   P3    S    
C55   H29   S    
C9    C10   A    
C68   P2    S    
C73   H44   S    
C52   C64   S    
C67   H17   S    
C4    O23   S    
C54   C68   A    
C80   O27   D    
Ba2   O33   S    
C62   C63   A    
C52   H34   S    
C17   C22   A    
C69   C70   S    
C12   O14   S    
C23   C34   S    
C45   C56   S    
C74   H48   S    
H54   N5    S    
C63   C80   S    
C37   C51   A    
C45   N3    S    
C57   H30   S    
Ba1   Ba2   S    
C10   C17   A    
H47   N3    S    
C31   C33   A    
O8    P8    D    
C1    H10   S    
C14   C76   S    
O7    P7    S    
C59   C60   A    
H65   N8    S    
H38   N1    S    
C35   H27   S    
C8    C9    A    
C7    C82   A    
O3    P5    S    
O34   P5    S    
H57   N6    S    
C79   H59   S    
C64   H56   S    
C18   C19   A    
H55   N5    S    
C24   C27   A    
C66   C68   A    
C47   C48   A    
C25   C26   A    
C69   H68   S    
C20   C21   A    
C28   C40   S    
C67   C78   S    
C75   H51   S    
C76   H52   S    
C4    N4    S    
C49   P7    S    
