data_mof_unit_41753.cif
_audit_creation_date              2012-12-10T19:46:37-0500
_audit_creation_method            fapswitch 2.2
_symmetry_space_group_name_H-M    P1
_symmetry_Int_Tables_number       1
_space_group_crystal_system       triclinic
_cell_length_a                    12.879378
_cell_length_b                    14.931534
_cell_length_c                    14.25104
_cell_angle_alpha                 88.423969
_cell_angle_beta                  98.273334
_cell_angle_gamma                 91.97843
_cell_volume                      2709.75916838

loop_
_atom_site_label
_atom_site_type_symbol
_atom_type_description
_atom_site_fract_x
_atom_site_fract_y
_atom_site_fract_z
_atom_type_partial_charge
C1    C     C_R   0.501112 0.328333 0.500827 0.862301
C2    C     C_R   0.500717 0.672545 0.499335 0.878077
C3    C     C_R   0.507811 0.233485 0.501540 -0.028477
C4    C     C_R   0.506076 0.769316 0.500084 -0.030057
C5    C     C_R   0.589058 0.195707 0.462559 -0.247220
C6    C     C_R   0.539335 0.812497 0.585877 -0.236990
C7    C     C_R   0.595017 0.103051 0.460008 0.011393
C8    C     C_R   0.543788 0.905592 0.589450 0.014352
C9    C     C_R   0.519155 0.050261 0.500528 0.047709
C10   C     C_R   0.521099 0.954164 0.502857 0.064092
C11   C     C_R   0.433413 0.440615 0.098964 -0.273393
C12   C     C_R   0.528892 0.579291 0.895342 -0.280438
C13   C     C_R   0.436582 0.440657 0.198349 0.031638
C14   C     C_R   0.531211 0.575815 0.796736 0.031396
C15   C     C_R   0.563676 0.559173 0.209078 0.137852
C16   C     C_R   0.466653 0.425794 0.796070 0.143554
C17   C     C_R   0.562759 0.560316 0.110399 -0.318970
C18   C     C_R   0.469358 0.425856 0.894930 -0.306998
C19   C     C_R   0.496832 0.501780 0.052812 0.126873
C20   C     C_R   0.498157 0.502875 0.946682 0.122621
C21   C     C_R   0.297246 0.501775 0.480049 0.887666
C22   C     C_R   0.701761 0.493334 0.520385 0.896600
C23   C     C_R   0.813914 0.477649 0.537233 -0.136723
C24   C     C_R   0.182759 0.498642 0.466380 -0.134888
C25   C     C_R   0.012993 0.460929 0.375978 -0.027192
C26   C     C_R   0.985183 0.491360 0.632567 -0.028066
C27   C     C_R   0.120307 0.483710 0.377707 -0.087683
C28   C     C_R   0.875579 0.484464 0.627463 -0.084719
C29   C     C_R   0.136434 0.503332 0.548349 -0.267003
C30   C     C_R   0.860280 0.457649 0.458689 -0.253602
C31   C     C_R   0.030234 0.487548 0.547669 0.089531
C32   C     C_R   0.967946 0.465655 0.460794 0.106728
C33   C     C_R   0.435465 0.089059 0.535208 -0.166669
C34   C     C_R   0.487374 0.911009 0.417598 -0.182669
C35   C     C_R   0.428812 0.180950 0.533538 -0.193423
C36   C     C_R   0.476795 0.818834 0.416818 -0.219181
H1    H     H_    0.810229 0.441514 0.393845 0.205438
H2    H     H_    0.184700 0.520895 0.613613 0.214821
H3    H     H_    0.616658 0.605780 0.079714 0.135765
H4    H     H_    0.445910 0.365075 0.930433 0.139278
H5    H     H_    0.374778 0.047928 0.562117 0.142172
H6    H     H_    0.465420 0.949194 0.352372 0.139704
H7    H     H_    0.361492 0.211543 0.554893 0.164258
H8    H     H_    0.444197 0.786520 0.351811 0.142893
H9    H     H_    0.647504 0.238567 0.434332 0.155825
H10   H     H_    0.560966 0.773655 0.650665 0.148400
H11   H     H_    0.379446 0.393856 0.059187 0.130465
H12   H     H_    0.550802 0.641907 0.930268 0.132001
H13   H     H_    0.387280 0.393491 0.232133 0.136186
H14   H     H_    0.556985 0.634714 0.759702 0.124384
N1    N     N_R   0.500000 0.499980 0.252470 -0.110912
N2    N     N_R   0.500000 0.500020 0.747530 -0.105361
O1    O     O_R   0.500010 0.369070 0.579480 -0.615533
O2    O     O_R   0.499990 0.630930 0.420520 -0.616827
O3    O     O_R   0.500010 0.369060 0.420520 -0.628272
O4    O     O_R   0.499990 0.630940 0.579480 -0.635759
O5    O     O_R   0.346360 0.499990 0.566340 -0.627486
O6    O     O_R   0.653640 0.500010 0.433660 -0.619540
O7    O     O_R   0.346360 0.499980 0.407390 -0.610773
O8    O     O_R   0.653640 0.500020 0.592610 -0.608962
Zn1   Zn    Zn3+2 0.500000 0.500010 0.606140 0.957339
Zn2   Zn    Zn3+2 0.500000 0.499990 0.393860 0.957084
C37   C     C_R   0.640333 0.620517 0.262594 0.173817
C38   C     C_R   0.615427 0.709785 0.273653 -0.145352
C39   C     C_R   0.692149 0.770800 0.315350 -0.136971
C40   C     C_R   0.795122 0.743558 0.342459 -0.111698
C41   C     C_R   0.821947 0.656333 0.325411 -0.154610
C42   C     C_R   0.745103 0.595712 0.283652 -0.150352
H15   H     H_    0.537473 0.732161 0.247455 0.111553
H16   H     H_    0.672279 0.839466 0.324823 0.161101
H17   H     H_    0.854970 0.790454 0.373926 0.126056
H18   H     H_    0.902535 0.636358 0.342737 0.132822
H19   H     H_    0.766847 0.529993 0.265263 0.131759
C43   C     C_R   0.412954 0.346951 0.749275 0.164254
C44   C     C_R   0.305439 0.351437 0.715300 -0.122397
C45   C     C_R   0.243789 0.273196 0.697712 -0.181591
C46   C     C_R   0.288493 0.189528 0.716680 -0.152141
C47   C     C_R   0.395594 0.184180 0.750275 -0.140464
C48   C     C_R   0.457886 0.262438 0.766027 -0.160427
H20   H     H_    0.267919 0.415213 0.709570 0.142235
H21   H     H_    0.160638 0.277508 0.672681 0.139981
H22   H     H_    0.240471 0.128888 0.704619 0.135271
H23   H     H_    0.429963 0.119350 0.764598 0.166811
H24   H     H_    0.539577 0.257268 0.796346 0.119213
C49   C     C_R   0.828212 0.481338 0.716686 0.141841
C50   C     C_R   0.786383 0.399862 0.748722 -0.133141
C51   C     C_R   0.749542 0.394491 0.836375 -0.141816
C52   C     C_R   0.754652 0.470149 0.892625 -0.088572
C53   C     C_R   0.794596 0.551796 0.860486 -0.161278
C54   C     C_R   0.831092 0.557604 0.772661 -0.121404
H25   H     H_    0.783871 0.340417 0.706458 0.117569
H26   H     H_    0.718034 0.331488 0.861156 0.117893
H27   H     H_    0.727062 0.465663 0.960887 0.139809
H28   H     H_    0.797642 0.610471 0.903845 0.131596
H29   H     H_    0.863198 0.620853 0.748937 0.143344
C55   C     C_R   0.162190 0.499991 0.286500 0.140875
C56   C     C_R   0.160641 0.431258 0.220799 -0.169763
C57   C     C_R   0.183465 0.450968 0.129362 -0.172824
C58   C     C_R   0.212006 0.538547 0.104035 -0.085926
C59   C     C_R   0.217912 0.606538 0.170172 -0.144465
C60   C     C_R   0.192081 0.587661 0.260766 -0.123455
H30   H     H_    0.137896 0.363270 0.239295 0.148381
H31   H     H_    0.179602 0.398236 0.078259 0.134583
H32   H     H_    0.230588 0.553477 0.033461 0.147761
H33   H     H_    0.240590 0.674215 0.150664 0.124631
H34   H     H_    0.192974 0.641636 0.310163 0.114418
C61   C     C_2   0.948421 0.436693 0.284446 0.305367
H35   H     H_    0.951525 0.478934 0.221646 0.084220
O9    O     O_2   0.895040 0.367352 0.277815 -0.578342
C62   C     C_2   0.050223 0.501178 0.727136 0.319540
H36   H     H_    0.043009 0.451102 0.782666 0.077007
O10   O     O_2   0.106583 0.567701 0.745246 -0.582241
C63   C     C_R   0.678783 0.064635 0.413134 0.104499
C64   C     C_R   0.750546 0.004440 0.461565 -0.141577
C65   C     C_R   0.832728 0.973799 0.418079 -0.155326
C66   C     C_R   0.842669 0.000898 0.325136 -0.119823
C67   C     C_R   0.771022 0.059654 0.275849 -0.111505
C68   C     C_R   0.689893 0.091918 0.319732 -0.149641
H37   H     H_    0.744681 0.981909 0.533205 0.122590
H38   H     H_    0.888847 0.929024 0.456677 0.127498
H39   H     H_    0.905963 0.976479 0.291414 0.125445
H40   H     H_    0.778791 0.080768 0.203859 0.131907
H41   H     H_    0.635586 0.138147 0.280852 0.133058
C69   C     C_R   0.565735 0.948630 0.684242 0.103816
C70   C     C_R   0.636985 0.022149 0.701443 -0.132533
C71   C     C_R   0.656332 0.060340 0.790999 -0.146786
C72   C     C_R   0.605539 0.025571 0.864780 -0.132482
C73   C     C_R   0.534645 0.952894 0.848955 -0.149973
C74   C     C_R   0.514610 0.914750 0.759406 -0.174366
H42   H     H_    0.678345 0.050430 0.646572 0.122777
H43   H     H_    0.710908 0.117002 0.803188 0.123736
H44   H     H_    0.620650 0.055274 0.934033 0.124724
H45   H     H_    0.494786 0.926263 0.906028 0.130827
H46   H     H_    0.458374 0.859063 0.748636 0.134045

loop_
_geom_bond_atom_site_label_1
_geom_bond_atom_site_label_2
_ccdc_geom_bond_type
O6    Zn2   S    
C51   C52   A    
C4    C36   A    
C71   C72   A    
C67   C68   A    
C11   H11   S    
C19   C20   S    
C34   H6    S    
C24   C27   A    
C12   H12   S    
C73   C74   A    
C64   C65   A    
C54   H29   S    
C46   C47   A    
C67   H40   S    
C11   C19   A    
C59   H33   S    
C16   C43   S    
C46   H22   S    
C21   O7    A    
N2    Zn1   S    
C22   O8    A    
C48   H24   S    
C39   H16   S    
C57   C58   A    
O3    Zn2   S    
C66   C67   A    
C15   C17   A    
C41   H18   S    
C17   H3    S    
C53   H28   S    
C1    O1    A    
C72   H44   S    
C18   H4    S    
C17   C19   A    
C13   N1    A    
O1    Zn1   S    
C47   H23   S    
C14   N2    A    
C31   C32   A    
C29   H2    S    
C61   H35   S    
C15   N1    A    
C35   H7    S    
C44   H20   S    
C26   C62   S    
C18   C20   A    
C56   H30   S    
C25   C32   A    
C58   H32   S    
C26   C31   A    
C55   C60   A    
C9    C33   A    
C61   O9    D    
C27   C55   S    
N1    Zn2   S    
C70   H42   S    
C56   C57   A    
C22   C23   S    
C66   H39   S    
C41   C42   A    
C23   C30   A    
C45   C46   A    
C4    C6    A    
C43   C44   A    
C5    C7    A    
C47   C48   A    
C8    C69   S    
C6    C8    A    
O2    Zn2   S    
C42   H19   S    
C49   C50   A    
C5    H9    S    
C62   H36   S    
C30   H1    S    
O8    Zn1   S    
C1    C3    S    
C2    C4    S    
C44   C45   A    
C21   O5    A    
C40   H17   S    
C3    C35   A    
C55   C56   A    
C12   C20   A    
C10   C34   A    
C23   C28   A    
C13   H13   S    
C16   C18   A    
C12   C14   A    
C39   C40   A    
C43   C48   A    
C2    O2    A    
C70   C71   A    
C36   H8    S    
C72   C73   A    
C25   C61   S    
C63   C64   A    
C9    C10   S    
C60   H34   S    
C7    C9    A    
C52   H27   S    
O7    Zn2   S    
C6    H10   S    
C50   C51   A    
C16   N2    A    
C37   C38   A    
C3    C5    A    
C45   H21   S    
C22   O6    A    
C49   C54   A    
O5    Zn1   S    
C25   C27   A    
C38   H15   S    
C37   C42   A    
C26   C28   A    
C58   C59   A    
C50   H25   S    
C33   H5    S    
C38   C39   A    
C7    C63   S    
C1    O3    A    
C29   C31   A    
C2    O4    A    
C73   H45   S    
C30   C32   A    
C11   C13   A    
C65   C66   A    
C14   H14   S    
C64   H37   S    
C71   H43   S    
C59   C60   A    
C33   C35   A    
C69   C74   A    
C40   C41   A    
C34   C36   A    
C68   H41   S    
C62   O10   D    
C74   H46   S    
C63   C68   A    
C24   C29   A    
C52   C53   A    
C8    C10   A    
C65   H38   S    
C21   C24   S    
C28   C49   S    
C15   C37   S    
O4    Zn1   S    
C53   C54   A    
C51   H26   S    
C57   H31   S    
C69   C70   A    
