data_mof_unit_25565.cif
_audit_creation_date              2012-12-10T17:35:34-0500
_audit_creation_method            fapswitch 2.2
_symmetry_space_group_name_H-M    P1
_symmetry_Int_Tables_number       1
_space_group_crystal_system       triclinic
_cell_length_a                    10.732373
_cell_length_b                    12.32013
_cell_length_c                    13.395203
_cell_angle_alpha                 116.319673
_cell_angle_beta                  77.296846
_cell_angle_gamma                 101.251081
_cell_volume                      1539.02120992

loop_
_atom_site_label
_atom_site_type_symbol
_atom_type_description
_atom_site_fract_x
_atom_site_fract_y
_atom_site_fract_z
_atom_type_partial_charge
C1    C     C_R   0.516555 0.854875 0.287578 0.776682
C2    C     C_3   0.122641 0.001615 0.499681 -0.049992
C3    C     C_3   0.047041 0.030533 0.619853 -0.512295
C4    C     C_3   0.066688 0.875298 0.417679 -0.340125
C5    C     C_R   0.372363 0.273199 0.022882 0.560073
C6    C     C_R   0.481995 0.230039 0.833105 -0.309247
C7    C     C_R   0.658803 0.811129 0.107991 -0.157839
C8    C     C_R   0.727671 0.726287 0.015930 -0.156638
C9    C     C_R   0.685413 0.602945 0.980809 -0.200760
C10   C     C_R   0.564360 0.561960 0.027563 0.121161
C11   C     C_R   0.499705 0.647544 0.127283 0.080701
C12   C     C_R   0.739927 0.000239 0.500476 0.782801
C13   C     C_R   0.509897 0.437265 0.983303 -0.038649
C14   C     C_R   0.415128 0.397030 0.055588 -0.082605
C15   C     C_R   0.357441 0.481793 0.156784 -0.126675
C16   C     C_R   0.390611 0.605314 0.186192 -0.236188
C17   C     C_R   0.537361 0.354261 0.868090 -0.137900
C18   C     C_R   0.407916 0.189987 0.913492 0.531457
C19   C     C_R   0.550527 0.772251 0.169250 -0.097437
C20   C     C_R   0.695241 0.338488 0.320491 0.514429
C21   C     C_R   0.322572 0.758094 0.641150 0.029508
C22   C     C_R   0.276630 0.657406 0.664916 -0.306306
C23   C     C_R   0.488315 0.145570 0.712576 0.874075
C24   C     C_R   0.337747 0.551582 0.608056 0.575093
C25   C     C_R   0.450421 0.546541 0.527666 -0.103133
C26   C     C_R   0.490613 0.651295 0.503636 0.208130
C27   C     C_R   0.523982 0.443172 0.469473 -0.077809
C28   C     C_R   0.630103 0.443796 0.384158 -0.025768
C29   C     C_R   0.669675 0.549401 0.364924 -0.056937
C30   C     C_R   0.597914 0.648064 0.421100 -0.187962
C31   C     C_R   0.501614 0.340556 0.495450 0.095435
C32   C     C_R   0.666967 0.241876 0.350659 0.009269
C33   C     C_R   0.260305 0.000443 0.499845 0.814774
C34   C     C_3   0.960599 0.099462 0.463863 -0.497048
C35   C     C_3   0.103807 0.099686 0.462502 0.495126
C36   C     C_3   0.902531 0.029335 0.620621 0.498246
C37   C     C_3   0.923236 0.875637 0.417232 -0.362837
C38   C     C_3   0.878303 0.000984 0.500826 -0.033694
Cu1   Cu    Cu3+1 0.529690 0.098270 0.475420 0.982115
Cu2   Cu    Cu3+1 0.470310 0.901730 0.524580 0.979587
H1    H     H_    0.931566 0.190932 0.523154 0.132483
H2    H     H_    0.076982 0.804130 0.444170 0.177059
H3    H     H_    0.060156 0.962540 0.649249 0.239745
H4    H     H_    0.280653 0.452584 0.210047 0.200038
H5    H     H_    0.699331 0.905806 0.139018 0.167925
H6    H     H_    0.751322 0.540645 0.919924 0.158530
H7    H     H_    0.818474 0.755637 0.975939 0.168152
H8    H     H_    0.943935 0.082388 0.378673 0.243337
H9    H     H_    0.331982 0.666873 0.257804 0.158242
H10   H     H_    0.717550 0.161906 0.303337 0.155144
H11   H     H_    0.430515 0.334105 0.563150 0.214764
H12   H     H_    0.272828 0.838812 0.684417 0.190831
H13   H     H_    0.191164 0.660475 0.726266 0.182654
H14   H     H_    0.631794 0.722769 0.399208 0.194680
H15   H     H_    0.142001 0.191606 0.521304 0.126725
H16   H     H_    0.871854 0.119933 0.681128 0.059946
H17   H     H_    0.085157 0.121603 0.679985 0.134277
H18   H     H_    0.865990 0.803682 0.441942 0.210224
H19   H     H_    0.907442 0.854205 0.330741 0.168970
H20   H     H_    0.120598 0.851320 0.330955 0.202443
N1    N     N_R   0.574690 0.246280 0.438200 -0.241432
N2    N     N_R   0.426100 0.754320 0.561190 -0.204069
O1    O     O_R   0.537340 0.972510 0.318130 -0.561581
O2    O     O_R   0.487200 0.806530 0.359650 -0.616915
O3    O     O_R   0.707380 0.082980 0.479220 -0.605886
O4    O     O_R   0.657240 0.917000 0.520740 -0.554974
O5    O     O_R   0.512800 0.193470 0.640350 -0.598452
O6    O     O_R   0.462660 0.027490 0.681870 -0.508623
O7    O     O_R   0.342760 0.083000 0.479260 -0.540985
O8    O     O_R   0.292620 0.917020 0.520780 -0.610265
F1    F     F_    0.831565 0.943452 0.657396 -0.640077
F2    F     F_    0.357708 0.071753 0.883977 -0.609201
F3    F     F_    0.289204 0.233283 0.095199 -0.595923
C39   C     C_R   0.607727 0.401695 0.783505 0.178138
C40   C     C_R   0.728169 0.364383 0.722809 -0.115908
C41   C     C_R   0.800999 0.421167 0.655161 -0.146686
C42   C     C_R   0.754817 0.515481 0.647957 -0.119326
C43   C     C_R   0.634769 0.551995 0.706788 -0.130775
C44   C     C_R   0.559759 0.493275 0.771759 -0.118669
H21   H     H_    0.767118 0.294946 0.731475 0.107360
H22   H     H_    0.894896 0.394736 0.610727 0.144244
H23   H     H_    0.812289 0.560770 0.597266 0.138100
H24   H     H_    0.599944 0.626144 0.702276 0.161125
H25   H     H_    0.467279 0.523317 0.817630 0.157429
C45   C     C_R   0.795208 0.565979 0.297125 0.167359
C46   C     C_R   0.801678 0.589232 0.202702 -0.137013
C47   C     C_R   0.920537 0.603653 0.138801 -0.121865
C48   C     C_R   0.033641 0.596124 0.169725 -0.100933
C49   C     C_R   0.027827 0.574963 0.264928 -0.117179
C50   C     C_R   0.909485 0.560496 0.328722 -0.052913
H26   H     H_    0.714633 0.595507 0.179077 0.145418
H27   H     H_    0.925224 0.621141 0.065678 0.139986
H28   H     H_    0.125709 0.608098 0.120817 0.141727
H29   H     H_    0.114700 0.572278 0.291277 0.114596
H30   H     H_    0.906741 0.545171 0.402794 0.108694
F4    F     F_    0.782400 0.325462 0.226669 -0.646216
F5    F     F_    0.279743 0.454903 0.629864 -0.714403
F6    F     F_    0.169931 0.077474 0.355049 -0.610894

loop_
_geom_bond_atom_site_label_1
_geom_bond_atom_site_label_2
_ccdc_geom_bond_type
C2    C35   S    
C47   C48   A    
C31   N1    A    
C7    C8    A    
C42   C43   A    
C30   H14   S    
C3    H3    S    
C29   C30   A    
Cu2   O8    S    
C7    H5    S    
C28   C29   A    
C4    C37   S    
C15   H4    S    
C46   H26   S    
C44   H25   S    
C15   C16   A    
Cu2   N2    S    
C34   C35   S    
C23   O5    A    
C49   H29   S    
C43   H24   S    
C8    C9    A    
C24   C25   A    
C12   O4    A    
C13   C14   A    
C35   F6    S    
C9    C10   A    
C29   C45   S    
C37   H18   S    
C36   F1    S    
C33   O7    A    
C20   F4    S    
C9    H6    S    
Cu2   O4    S    
C47   H27   S    
C5    F3    S    
Cu1   O3    S    
C34   H1    S    
Cu1   N1    S    
C1    O1    A    
C22   H13   S    
C18   F2    S    
C6    C18   A    
C1    C19   S    
C39   C40   A    
C35   H15   S    
C24   F5    S    
C50   H30   S    
C16   H9    S    
Cu1   Cu2   S    
C46   C47   A    
C5    C18   A    
C20   C28   A    
C25   C26   A    
C45   C46   A    
C27   C31   A    
C34   C38   S    
C23   O6    A    
C2    C4    S    
C40   C41   A    
C37   C38   S    
C36   H16   S    
C11   C16   A    
C11   C19   A    
C4    H20   S    
Cu1   O7    S    
C41   C42   A    
C32   H10   S    
C5    C14   A    
C37   H19   S    
C33   O8    A    
C3    H17   S    
C2    C33   S    
C26   C30   A    
C7    C19   A    
C39   C44   A    
C17   C39   S    
C22   C24   A    
C34   H8    S    
C1    O2    A    
C20   C32   A    
C6    C17   A    
C48   H28   S    
C43   C44   A    
Cu1   O5    S    
C31   H11   S    
C10   C13   A    
C41   H22   S    
C32   N1    A    
C45   C50   A    
C25   C27   A    
Cu1   O1    S    
C12   O3    A    
Cu2   O2    S    
C13   C17   A    
C3    C36   S    
C36   C38   S    
C2    C3    S    
C26   N2    A    
C8    H7    S    
C4    H2    S    
C42   H23   S    
C6    C23   S    
C12   C38   S    
C10   C11   A    
C40   H21   S    
C48   C49   A    
Cu2   O6    S    
C27   C28   A    
C14   C15   A    
C21   N2    A    
C49   C50   A    
C21   C22   A    
C21   H12   S    
