data_mof_unit_41738.cif
_audit_creation_date              2013-03-05T15:46:53-0500
_audit_creation_method            fapswitch 2.2
_symmetry_space_group_name_H-M    P1
_symmetry_Int_Tables_number       1
_space_group_crystal_system       triclinic
_cell_length_a                    15.124411
_cell_length_b                    15.10642
_cell_length_c                    15.112757
_cell_angle_alpha                 108.798443
_cell_angle_beta                  109.815522
_cell_angle_gamma                 109.999053
_cell_volume                      2651.22971446

loop_
_atom_site_label
_atom_site_type_symbol
_atom_site_description
_atom_site_fract_x
_atom_site_fract_y
_atom_site_fract_z
_atom_type_partial_charge
C1    C     C_R   0.205470 0.012006 0.922003 0.304285
C2    C     C_R   0.758729 0.945071 0.036264 0.330699
N1    N     N_R   0.293810 0.002730 0.945950 -0.104483
N2    N     N_R   0.706190 0.997270 0.054050 -0.100405
C3    C     C_R   0.801130 0.213414 0.302210 -0.074791
C4    C     C_R   0.252944 0.778237 0.687933 -0.080184
H1    H     H_    0.832439 0.189101 0.359562 0.202201
H2    H     H_    0.237290 0.796098 0.622710 0.180542
N3    N     N_R   0.706160 0.152130 0.208910 -0.076645
N4    N     N_R   0.293840 0.847870 0.791090 -0.056909
C5    C     C_R   0.408350 0.970439 0.220968 -0.172918
C6    C     C_R   0.593044 0.078049 0.785395 -0.117980
H3    H     H_    0.324588 0.932737 0.201736 0.151447
H4    H     H_    0.676599 0.131687 0.811132 0.161753
N5    N     N_R   0.443140 0.945920 0.152090 -0.073510
N6    N     N_R   0.556860 0.054080 0.847910 -0.070574
C7    C     C_R   0.591424 0.314600 0.050313 -0.097521
C8    C     C_R   0.408543 0.704759 0.008694 -0.116092
H5    H     H_    0.674893 0.379987 0.095406 0.149937
H6    H     H_    0.325830 0.652771 0.985772 0.183606
N7    N     N_R   0.556830 0.208940 0.002760 -0.044391
N8    N     N_R   0.443170 0.791060 0.997240 -0.066913
C9    C     C_R   0.591307 0.055271 0.313892 0.330228
C10   C     C_R   0.410706 0.989132 0.693876 0.331493
N9    N     N_R   0.556790 0.002750 0.208910 -0.093504
N10   N     N_R   0.443210 0.997250 0.791090 -0.096974
C11   C     C_R   0.407934 0.221292 0.960511 -0.101577
C12   C     C_R   0.588982 0.791295 0.095708 -0.039308
H7    H     H_    0.324183 0.200943 0.923805 0.160586
H8    H     H_    0.671490 0.817155 0.151089 0.182763
N11   N     N_R   0.443180 0.152110 0.945950 -0.055391
N12   N     N_R   0.556820 0.847890 0.054050 -0.068466
C13   C     C_R   0.800326 0.301453 0.208721 0.293398
C14   C     C_R   0.244785 0.685890 0.777807 0.336734
N13   N     N_R   0.706170 0.208950 0.152090 -0.094517
N14   N     N_R   0.293830 0.791050 0.847910 -0.090886
C15   C     C_R   0.205842 0.920190 0.012672 -0.084742
C16   C     C_R   0.752466 0.031104 0.939484 -0.007715
H9    H     H_    0.176931 0.865498 0.041148 0.162014
H10   H     H_    0.772262 0.069725 0.894596 0.145487
N15   N     N_R   0.293800 0.945910 0.002760 -0.077581
N16   N     N_R   0.706200 0.054090 0.997240 -0.065718
C17   C     C_R   0.152032 0.962915 0.964835 0.044074
C18   C     C_R   0.785808 0.962865 0.962273 -0.034199
C19   C     C_R   0.859460 0.306621 0.303621 -0.117781
C20   C     C_R   0.220717 0.676299 0.676984 -0.138169
C21   C     C_R   0.499424 0.039242 0.322835 0.035325
C22   C     C_R   0.502879 0.034517 0.688068 -0.029642
C23   C     C_R   0.499039 0.322958 0.023420 0.008257
C24   C     C_R   0.497321 0.702364 0.068398 -0.023456
Ni1   Ni    Ni4+2 0.369690 0.999990 0.869700 0.313469
Ni2   Ni    Ni4+2 0.630310 0.000010 0.130300 0.294434
Ni3   Ni    Ni4+2 0.369670 0.869670 0.000000 0.261356
Ni4   Ni    Ni4+2 0.630330 0.130330 0.000000 0.297467
H11   H     H_    0.194055 0.109251 0.531093 0.157539
H12   H     H_    0.816014 0.948502 0.561218 0.143108
C25   C     C_R   0.353862 0.218084 0.672894 -0.060172
C26   C     C_R   0.654358 0.845246 0.421600 -0.008941
H13   H     H_    0.394724 0.193788 0.631986 0.137922
H14   H     H_    0.619851 0.886236 0.458846 0.128961
C27   C     C_R   0.414278 0.297173 0.782388 -0.139045
C28   C     C_R   0.588400 0.757569 0.315792 -0.125184
H15   H     H_    0.502143 0.334135 0.825392 0.142912
H16   H     H_    0.502528 0.730836 0.272366 0.135108
C29   C     C_R   0.361360 0.329952 0.835235 0.056044
C30   C     C_R   0.632822 0.703374 0.267495 0.081958
C31   C     C_R   0.247411 0.282153 0.777118 -0.078263
C32   C     C_R   0.744334 0.739127 0.326564 -0.132783
H17   H     H_    0.205387 0.307080 0.816380 0.166384
H18   H     H_    0.780353 0.698746 0.290943 0.144982
C33   C     C_R   0.187305 0.202190 0.668021 -0.041096
C34   C     C_R   0.810129 0.827555 0.431902 -0.052892
H19   H     H_    0.099553 0.165369 0.623746 0.151088
H20   H     H_    0.895960 0.854864 0.476816 0.163198
C35   C     C_R   0.240564 0.170604 0.615795 0.009912
C36   C     C_R   0.765094 0.880325 0.479514 0.003223
C37   C     C_R   0.421699 0.512716 0.966559 -0.190118
C38   C     C_R   0.563651 0.511368 0.140650 -0.207883
H21   H     H_    0.370623 0.514516 0.897225 0.166899
H22   H     H_    0.616128 0.507974 0.207769 0.137614
C39   C     C_R   0.490967 0.605996 0.068169 0.074398
C40   C     C_R   0.496383 0.419512 0.037532 0.084741
C41   C     C_R   0.562178 0.606727 0.157404 0.042632
C42   C     C_R   0.425403 0.419887 0.948983 0.025427
C43   C     C_R   0.049033 0.395151 0.446680 -0.111899
C44   C     C_R   0.041117 0.585925 0.523803 -0.109480
H23   H     H_    0.050494 0.320460 0.416484 0.149184
H24   H     H_    0.036154 0.658473 0.554897 0.160097
C45   C     C_R   0.139794 0.488013 0.538540 -0.044896
C46   C     C_R   0.952178 0.494750 0.432419 -0.070642
H25   H     H_    0.212571 0.486235 0.580670 0.145050
H26   H     H_    0.879069 0.497096 0.392422 0.120774
C47   C     C_R   0.134178 0.582140 0.577045 0.157827
C48   C     C_R   0.956335 0.400024 0.394757 0.175969
C49   C     C_R   0.460535 0.939083 0.503417 0.414839
C50   C     C_R   0.538838 0.141545 0.508722 0.430246
C51   C     C_R   0.453742 0.943197 0.412221 -0.330504
C52   C     C_R   0.545466 0.137266 0.600791 -0.318939
H27   H     H_    0.422680 0.868842 0.339827 0.178269
H28   H     H_    0.578621 0.210919 0.674761 0.183720
C53   C     C_R   0.493646 0.042912 0.415288 -0.044260
C54   C     C_R   0.505387 0.037169 0.596747 -0.026263
C55   C     C_R   0.064691 0.057493 0.015110 -0.321027
C56   C     C_R   0.866477 0.861123 0.898865 -0.297874
H29   H     H_    0.141747 0.133164 0.060440 0.197234
H30   H     H_    0.789537 0.785767 0.855147 0.205309
C57   C     C_R   0.974272 0.058619 0.013387 0.817363
C58   C     C_R   0.958349 0.860109 0.901930 0.842801
C59   C     C_R   0.875717 0.960363 0.955216 -0.172073
C60   C     C_R   0.056230 0.958715 0.960241 -0.184715
N17   N     N_R   0.150520 0.019109 0.829111 0.235039
O1    O     O_R   0.101301 0.934928 0.733871 -0.343126
O2    O     O_R   0.119797 0.090650 0.840049 -0.428040
N18   N     N_R   0.813226 0.917158 0.111042 0.221962
O3    O     O_R   0.836209 0.841475 0.079095 -0.390394
O4    O     O_R   0.848099 0.973816 0.213542 -0.386428
N19   N     N_R   0.423915 0.836186 0.500757 0.230597
O5    O     O_R   0.346068 0.747386 0.410744 -0.350300
O6    O     O_R   0.476250 0.828894 0.583959 -0.417788
N20   N     N_R   0.578233 0.244469 0.511454 0.249229
O7    O     O_R   0.644372 0.334434 0.603686 -0.331701
O8    O     O_R   0.542328 0.249943 0.423134 -0.390543
F1    F     F_    0.983451 0.154531 0.071334 -0.662670
F2    F     F_    0.952292 0.764869 0.848276 -0.641963
N21   N     N_R   0.693265 0.081420 0.396313 0.206258
O9    O     O_R   0.734649 0.151728 0.496909 -0.381532
O10   O     O_R   0.741969 0.029435 0.371537 -0.421682
N22   N     N_R   0.306505 0.972319 0.626861 0.206437
O11   O     O_R   0.244592 0.982023 0.666872 -0.383725
O12   O     O_R   0.275007 0.952865 0.527805 -0.408155
N23   N     N_R   0.845600 0.357605 0.160349 0.236899
O13   O     O_R   0.939324 0.447345 0.219391 -0.344948
O14   O     O_R   0.798844 0.312765 0.055446 -0.396885
N24   N     N_R   0.189799 0.602087 0.796613 0.225153
O15   O     O_R   0.147585 0.620204 0.857754 -0.355675
O16   O     O_R   0.176517 0.506142 0.748837 -0.428413

loop_
_geom_bond_atom_site_label_1
_geom_bond_atom_site_label_2
_geom_bond_distance
_ccdc_geom_bond_type
C26   C28   1.398623 A    
C30   C32   1.406591 A    
H12   C36   1.082426 S    
C11   H7    1.074283 S    
C13   C19   1.368712 A    
C5    C21   1.378202 A    
N17   O1    1.299775 A    
C57   F1    1.359306 S    
C6    C22   1.363420 A    
N22   O11   1.297939 A    
C56   H30   1.083721 S    
N18   O3    1.300364 A    
C26   C36   1.397169 A    
C49   N19   1.442326 S    
C16   C18   1.379211 A    
N7    N11   1.394195 A    
N8    N12   1.394196 A    
N2    Ni2   1.882836 S    
C55   C60   1.389468 A    
C21   C53   1.413903 S    
N5    Ni3   1.879153 S    
C16   H10   1.078669 S    
C10   N10   1.329720 A    
C16   N16   1.325535 A    
N19   O6    1.301485 A    
C56   C59   1.394798 A    
C44   H24   1.084344 S    
N5    N9    1.394195 A    
N4    Ni1   1.876566 S    
C26   H14   1.080842 S    
C5    H3    1.078848 S    
C8    H6    1.077300 S    
C27   H15   1.083122 S    
N12   Ni2   1.876690 S    
C28   H16   1.083113 S    
N14   Ni3   1.879017 S    
C51   H27   1.085323 S    
C30   C41   1.484441 S    
C12   C24   1.370341 A    
C38   C41   1.389402 A    
C1    C17   1.369770 A    
C6    N6    1.326153 A    
C2    C18   1.385394 A    
C29   C31   1.405981 A    
C50   C52   1.384951 A    
N4    N14   1.396124 A    
C14   C20   1.385934 A    
C17   C60   1.405120 S    
C45   H25   1.083406 S    
C31   C33   1.397534 A    
C49   C54   1.400703 A    
C34   C36   1.396835 A    
C9    N21   1.431596 S    
H11   C35   1.082297 S    
C18   C59   1.411658 S    
C13   N23   1.436859 S    
C43   H23   1.083456 S    
C50   C53   1.405065 A    
N13   Ni4   1.879015 S    
C45   C47   1.396632 A    
C57   C59   1.398235 A    
N3    Ni2   1.876566 S    
C5    N5    1.324300 A    
C58   F2    1.357756 S    
C19   C48   1.414175 S    
C39   C41   1.405806 A    
N20   O8    1.301434 A    
C46   C48   1.391577 A    
N8    Ni3   1.884184 S    
C37   H21   1.085993 S    
N6    N10   1.394195 A    
C9    C21   1.387934 A    
C28   C30   1.406424 A    
C11   N11   1.318026 A    
C10   C22   1.374468 A    
C12   N12   1.337017 A    
C34   H20   1.082541 S    
C44   C46   1.364220 A    
C7    C23   1.379208 A    
C3    H1    1.075292 S    
N1    Ni1   1.882835 S    
C7    H5    1.078772 S    
C29   C42   1.484891 S    
C4    H2    1.075790 S    
C37   C42   1.365256 A    
C52   C54   1.395010 A    
C3    C19   1.370950 A    
C7    N7    1.331337 A    
N3    N13   1.396124 A    
N18   O4    1.301208 A    
C1    N1    1.329912 A    
C23   C40   1.421259 S    
C15   C17   1.364808 A    
C2    N2    1.327508 A    
C3    N3    1.335815 A    
C44   C47   1.395919 A    
C43   C48   1.395974 A    
C38   C40   1.398180 A    
C51   C53   1.396299 A    
C46   H26   1.084767 S    
C37   C39   1.395068 A    
C32   C34   1.398269 A    
C22   C54   1.406353 S    
C38   H22   1.084905 S    
N17   O2    1.300633 A    
N15   Ni3   1.884244 S    
C6    H4    1.080764 S    
C52   H28   1.084342 S    
N21   O9    1.300213 A    
C55   H29   1.084901 S    
N23   O13   1.300678 A    
C56   C58   1.380031 A    
N20   O7    1.301709 A    
C8    C24   1.360585 A    
C10   N22   1.432551 S    
N1    N15   1.396002 A    
C43   C45   1.383896 A    
C4    C20   1.379864 A    
C8    N8    1.320518 A    
C50   N20   1.443060 S    
N11   Ni1   1.876690 S    
N23   O14   1.300949 A    
N22   O12   1.300584 A    
C4    N4    1.328085 A    
N24   O16   1.300183 A    
C49   C51   1.370206 A    
C25   C27   1.398050 A    
N24   O15   1.301100 A    
C40   C42   1.406548 A    
C25   C35   1.397603 A    
C12   H8    1.076141 S    
N9    Ni2   1.882797 S    
C15   H9    1.081030 S    
N10   Ni1   1.882800 S    
N16   Ni4   1.884243 S    
C33   C35   1.396672 A    
C2    N18   1.430944 S    
N7    Ni4   1.884185 S    
C20   C47   1.421001 S    
N2    N16   1.396002 A    
C13   N13   1.324717 A    
C58   C60   1.395766 A    
C14   N14   1.331449 A    
C9    N9    1.327821 A    
C15   N15   1.327477 A    
N6    Ni4   1.879156 S    
C25   H13   1.080201 S    
C27   C29   1.404714 A    
C32   H18   1.083140 S    
C33   H19   1.082432 S    
N21   O10   1.301045 A    
C14   N24   1.430740 S    
C55   C57   1.364981 A    
C31   H17   1.083167 S    
N19   O5    1.301534 A    
C1    N17   1.428307 S    
C11   C23   1.372780 A    
C24   C39   1.424569 S    
