data_mof_unit_32194.cif
_audit_creation_date              2012-12-10T17:50:37-0500
_audit_creation_method            fapswitch 2.2
_symmetry_space_group_name_H-M    P1
_symmetry_Int_Tables_number       1
_space_group_crystal_system       triclinic
_cell_length_a                    15.696743
_cell_length_b                    10.684793
_cell_length_c                    9.948887
_cell_angle_alpha                 91.918176
_cell_angle_beta                  88.115638
_cell_angle_gamma                 92.703832
_cell_volume                      1664.98134132

loop_
_atom_site_label
_atom_site_type_symbol
_atom_type_description
_atom_site_fract_x
_atom_site_fract_y
_atom_site_fract_z
_atom_type_partial_charge
C1    C     C_R   0.506816 0.260501 0.498107 0.851626
C2    C     C_3   0.082902 0.497672 0.504223 0.126636
C3    C     C_3   0.974748 0.614572 0.529774 -0.249609
C4    C     C_3   0.917084 0.498197 0.496612 0.175592
C5    C     C_3   0.034712 0.577757 0.409318 -0.163062
C6    C     C_3   0.975961 0.461497 0.378010 0.211372
C7    C     C_1   0.173718 0.498500 0.506654 -0.058478
C8    C     C_1   0.826206 0.499011 0.493848 -0.051958
C9    C     C_R   0.572648 0.121488 0.723633 -0.223475
C10   C     C_R   0.568561 0.069653 0.851078 0.208528
C11   C     C_R   0.512661 0.963935 0.873882 0.226689
C12   C     C_R   0.338113 0.500367 0.501860 0.882193
C13   C     C_R   0.471330 0.903101 0.762875 0.146209
C14   C     C_R   0.491813 0.944113 0.630474 0.036143
C15   C     C_R   0.526936 0.065042 0.616596 0.009648
C16   C     C_R   0.512642 0.126474 0.496317 -0.073870
C17   C     C_R   0.485753 0.058693 0.382026 -0.234163
C18   C     C_R   0.472097 0.931265 0.387502 -0.221796
C19   C     C_R   0.478682 0.872296 0.509838 -0.102810
C20   C     C_R   0.408752 0.311723 0.142178 -0.160911
C21   C     C_R   0.382989 0.201352 0.075677 -0.283223
C22   C     C_R   0.386350 0.195136 0.936870 -0.151930
C23   C     C_R   0.491391 0.739138 0.503060 0.878960
C24   C     C_R   0.401464 0.306131 0.867028 0.247150
C25   C     C_R   0.451833 0.406956 0.928732 0.132744
C26   C     C_R   0.453699 0.407635 0.072925 0.136951
C27   C     C_R   0.547436 0.585269 0.071786 -0.122927
C28   C     C_R   0.547678 0.585005 0.928947 -0.149375
C29   C     C_R   0.661911 0.500366 0.498113 0.902222
C30   C     C_3   0.966350 0.419297 0.590134 0.212156
C31   C     C_3   0.025910 0.380637 0.470955 -0.183899
C32   C     C_1   0.249104 0.499474 0.505857 -0.194550
C33   C     C_1   0.750878 0.499688 0.494214 -0.186614
C34   C     C_3   0.024988 0.534883 0.624828 -0.164137
H1    H     H_    0.064809 0.642328 0.334568 0.141195
H2    H     H_    0.047068 0.564087 0.726514 0.141395
N1    N     N_R   0.499210 0.498800 0.142780 -0.112277
N2    N     N_R   0.499180 0.498720 0.857170 -0.117722
O1    O     O_R   0.500000 0.316780 0.614690 -0.615314
O2    O     O_R   0.499990 0.316750 0.385360 -0.642717
O3    O     O_R   0.376780 0.500000 0.614650 -0.622469
O4    O     O_R   0.376770 0.499980 0.385310 -0.629378
O5    O     O_R   0.500010 0.683250 0.614640 -0.609683
O6    O     O_R   0.500000 0.683220 0.385310 -0.620669
O7    O     O_R   0.623230 0.500020 0.614690 -0.613892
O8    O     O_R   0.623220 0.500000 0.385350 -0.604503
Zn1   Zn    Zn3+2 0.500010 0.500020 0.653130 0.933216
Zn2   Zn    Zn3+2 0.499990 0.499980 0.346870 0.936015
H3    H     H_    0.048437 0.285211 0.447236 0.137460
C35   C     C_3   0.493537 0.918732 0.014614 -0.943739
H4    H     H_    0.534291 0.965397 0.091636 0.251585
H5    H     H_    0.426134 0.934471 0.044402 0.237600
H6    H     H_    0.503775 0.817639 0.017683 0.241831
C36   C     C_3   0.395033 0.813630 0.788546 -0.831568
H7    H     H_    0.361770 0.785446 0.694803 0.228355
H8    H     H_    0.414608 0.728413 0.837602 0.262066
H9    H     H_    0.347346 0.860496 0.855225 0.212899
H10   H     H_    0.457211 0.878586 0.295776 0.178412
H11   H     H_    0.586157 0.655446 0.125644 0.151179
H12   H     H_    0.392567 0.319068 0.246785 0.212155
H13   H     H_    0.354162 0.124111 0.131372 0.156651
H14   H     H_    0.355795 0.113613 0.887632 0.152438
C37   C     C_3   0.325543 0.329659 0.785115 -0.811007
H15   H     H_    0.337277 0.298150 0.679183 0.248482
H16   H     H_    0.267192 0.274425 0.818803 0.195908
H17   H     H_    0.306558 0.427800 0.801700 0.246922
H18   H     H_    0.586374 0.655104 0.875940 0.158918
C38   C     C_3   0.926243 0.329943 0.692520 -0.936860
H19   H     H_    0.977158 0.285461 0.746268 0.243960
H20   H     H_    0.885796 0.382412 0.766319 0.249556
H21   H     H_    0.886272 0.256154 0.640376 0.244695
C39   C     C_3   0.946907 0.420467 0.238410 -0.933427
H22   H     H_    0.003281 0.399974 0.172492 0.243940
H23   H     H_    0.904323 0.334847 0.245144 0.246888
H24   H     H_    0.911753 0.496345 0.194784 0.247784
H25   H     H_    0.952039 0.709883 0.553471 0.150866
H26   H     H_    0.475728 0.103690 0.288509 0.174362
H27   H     H_    0.611684 0.206399 0.707984 0.174162
C40   C     C_3   0.618334 0.135203 0.962220 -0.896547
H28   H     H_    0.658719 0.215739 0.924962 0.235788
H29   H     H_    0.573997 0.172103 0.041583 0.257876
H30   H     H_    0.661125 0.068720 0.006208 0.239178

loop_
_geom_bond_atom_site_label_1
_geom_bond_atom_site_label_2
_ccdc_geom_bond_type
C37   H16   S    
C2    C7    S    
C4    C8    S    
C6    C39   S    
C5    C6    S    
C15   C16   A    
C29   C33   S    
C23   O5    A    
C18   C19   A    
C12   O4    A    
C1    O2    A    
C18   H10   S    
C38   H19   S    
C35   H5    S    
C20   H12   S    
C9    C10   A    
C21   H13   S    
C9    H27   S    
C2    C34   S    
C6    C31   S    
C37   H17   S    
C13   C14   A    
C12   C32   S    
C31   H3    S    
C39   H24   S    
C35   H4    S    
O8    Zn2   S    
O7    Zn1   S    
C36   H8    S    
C35   H6    S    
C30   C34   S    
C28   H18   S    
C24   C25   A    
C39   H23   S    
C40   H29   S    
C16   C17   A    
C3    C34   S    
C25   C26   A    
C23   O6    A    
C40   H28   S    
C29   O7    A    
C2    C31   S    
C19   C23   S    
C12   O3    A    
C25   N2    A    
C22   H14   S    
C28   N2    A    
C17   H26   S    
C17   C18   A    
O3    Zn1   S    
C1    C16   S    
O4    Zn2   S    
N1    Zn2   S    
C3    H25   S    
N2    Zn1   S    
C4    C6    S    
C24   C37   S    
C22   C24   A    
C2    C5    S    
C3    C4    S    
O1    Zn1   S    
C13   C36   S    
O2    Zn2   S    
C36   H7    S    
C7    C32   T    
C14   C19   A    
C39   H22   S    
C3    C5    S    
C40   H30   S    
C10   C40   S    
C26   N1    A    
C29   O8    A    
C9    C15   A    
C11   C35   S    
C27   H11   S    
C11   C13   A    
C30   C31   S    
C20   C26   A    
C27   N1    A    
C38   H21   S    
C5    H1    S    
C34   H2    S    
C8    C33   T    
C30   C38   S    
C10   C11   A    
C1    O1    A    
C37   H15   S    
C20   C21   A    
C38   H20   S    
C27   C28   A    
C14   C15   A    
C21   C22   A    
O5    Zn1   S    
C4    C30   S    
O6    Zn2   S    
C36   H9    S    
