data_mof_unit_28464.cif
_audit_creation_date              2012-12-11T17:37:46-0500
_audit_creation_method            fapswitch 2.2
_symmetry_space_group_name_H-M    P1
_symmetry_Int_Tables_number       1
_space_group_crystal_system       triclinic
_cell_length_a                    12.93182
_cell_length_b                    13.041626
_cell_length_c                    15.310278
_cell_angle_alpha                 115.947126
_cell_angle_beta                  64.023654
_cell_angle_gamma                 97.032829
_cell_volume                      2079.60119285

loop_
_atom_site_label
_atom_site_type_symbol
_atom_type_description
_atom_site_fract_x
_atom_site_fract_y
_atom_site_fract_z
_atom_type_partial_charge
C1    C     C_R   0.002111 0.832383 0.051080 -0.120070
C2    C     C_R   0.301569 0.590581 0.789712 -0.174190
C3    C     C_R   0.259621 0.416241 0.047505 -0.118660
C4    C     C_R   0.678975 0.471007 0.220779 -0.097547
C5    C     C_R   0.037057 0.282501 0.684761 -0.140290
C6    C     C_R   0.362329 0.434267 0.974301 0.166084
C7    C     C_R   0.011598 0.175336 0.679911 0.059136
C8    C     C_R   0.298230 0.559331 0.693255 0.081150
C9    C     C_R   0.014710 0.150358 0.038812 0.045683
C10   C     C_R   0.439195 0.810125 0.162237 -0.099744
C11   C     C_R   0.334477 0.834692 0.254850 -0.102611
C12   C     C_R   0.674027 0.543694 0.321751 0.107971
C13   C     C_R   0.266460 0.937355 0.304397 -0.009023
C14   C     C_R   0.303521 0.017047 0.259925 0.166135
C15   C     C_R   0.406909 0.992729 0.167164 -0.109392
C16   C     C_R   0.756964 0.517144 0.890377 -0.223323
C17   C     C_R   0.475451 0.889507 0.116589 -0.108412
C18   C     C_R   0.137197 0.051429 0.496932 -0.168088
C19   C     C_R   0.029029 0.075793 0.584731 0.054834
C20   C     C_R   0.938454 0.005821 0.580478 0.010403
C21   C     C_R   0.960471 0.907391 0.488899 -0.234718
C22   C     C_R   0.066464 0.884622 0.399013 0.058905
C23   C     C_R   0.664963 0.454719 0.920961 0.181271
C24   C     C_R   0.155482 0.957756 0.400646 0.078343
C25   C     C_R   0.753812 0.975747 0.715549 -0.169915
C26   C     C_R   0.634926 0.001060 0.779620 -0.040280
C27   C     C_R   0.577211 0.090033 0.786480 -0.130341
C28   C     C_R   0.016437 0.696439 0.301023 -0.144573
C29   C     C_R   0.638479 0.154015 0.729605 -0.102366
C30   C     C_R   0.757747 0.131096 0.667867 -0.111706
C31   C     C_R   0.816169 0.041200 0.659819 0.094615
C32   C     C_R   0.857105 0.313945 0.357923 -0.103116
C33   C     C_R   0.752507 0.360413 0.378991 -0.098974
C34   C     C_R   0.069933 0.793486 0.302728 0.063402
C35   C     C_R   0.702769 0.467124 0.466183 0.014240
C36   C     C_R   0.758571 0.526499 0.534268 -0.015824
C37   C     C_R   0.863060 0.477120 0.512279 -0.123185
C38   C     C_R   0.911978 0.371996 0.424431 -0.150485
C39   C     C_R   0.496633 0.518257 0.575244 -0.238797
C40   C     C_R   0.677842 0.419162 0.987862 -0.022213
C41   C     C_R   0.391266 0.567595 0.603105 0.037162
C42   C     C_R   0.377728 0.620118 0.545462 -0.067357
C43   C     C_R   0.474336 0.617691 0.454154 0.165244
C44   C     C_R   0.578783 0.559987 0.422242 -0.024628
C45   C     C_R   0.338522 0.516585 0.950757 -0.097799
C46   C     C_R   0.591682 0.515236 0.486397 -0.013873
C47   C     C_R   0.204494 0.643389 0.519937 -0.130616
C48   C     C_R   0.099224 0.701375 0.556129 -0.107519
C49   C     C_R   0.054002 0.796259 0.656172 -0.049977
C50   C     C_R   0.113676 0.833333 0.720335 -0.124596
C51   C     C_R   0.219274 0.776092 0.684186 -0.116318
C52   C     C_R   0.093166 0.800590 0.209072 -0.117918
C53   C     C_R   0.265794 0.680983 0.583400 0.152236
C54   C     C_2   0.476213 0.391407 0.944631 -0.156766
C55   C     C_2   0.569224 0.434911 0.892514 -0.224460
C56   C     C_R   0.954133 0.181640 0.782090 -0.118959
C57   C     C_2   0.839082 0.956160 0.080101 -0.215998
C58   C     C_2   0.818018 0.035115 0.179289 -0.140351
C59   C     C_R   0.783971 0.563328 0.312438 -0.101856
C60   C     C_R   0.902887 0.747305 0.953053 -0.123718
C61   C     C_R   0.915875 0.851410 0.027093 0.120417
C62   C     C_2   0.580801 0.864546 0.014153 0.467217
C63   C     C_2   0.510218 0.703099 0.117406 0.554714
C64   C     C_2   0.710806 0.640689 0.626177 0.403975
C65   C     C_R   0.201077 0.504155 0.693355 -0.107281
C66   C     C_R   0.055196 0.254405 0.085443 -0.137709
C67   C     C_R   0.955817 0.170707 0.989959 -0.119231
H1    H     H_    0.031875 0.894868 0.107852 0.106807
H2    H     H_    0.607794 0.435317 0.201195 0.128833
H3    H     H_    0.432294 0.054122 0.133052 0.179338
H4    H     H_    0.205686 0.107288 0.502738 0.152095
H5    H     H_    0.889640 0.854499 0.484147 0.139429
H6    H     H_    0.796693 0.904108 0.707806 0.155975
H7    H     H_    0.587061 0.949973 0.821841 0.156983
H8    H     H_    0.484807 0.108214 0.834422 0.114335
H9    H     H_    0.593258 0.219787 0.731347 0.129538
H10   H     H_    0.803760 0.180078 0.622692 0.121509
H11   H     H_    0.992917 0.335693 0.407792 0.164652
H12   H     H_    0.916800 0.113713 0.805286 0.103103
H13   H     H_    0.779740 0.546657 0.828786 0.132663
H14   H     H_    0.896263 0.232948 0.289742 0.127940
H15   H     H_    0.710826 0.314018 0.326628 0.129569
H16   H     H_    0.907882 0.520439 0.562363 0.153789
H17   H     H_    0.504719 0.480235 0.622785 0.139916
H18   H     H_    0.238369 0.569490 0.442597 0.143687
H19   H     H_    0.052624 0.672707 0.506742 0.114509
H20   H     H_    0.972725 0.841015 0.684128 0.117496
H21   H     H_    0.078202 0.906585 0.797992 0.116725
H22   H     H_    0.995164 0.660326 0.357843 0.096820
H23   H     H_    0.168388 0.478130 0.633385 0.107211
H24   H     H_    0.264999 0.805962 0.734440 0.111069
H25   H     H_    0.480132 0.343793 0.986136 0.135083
H26   H     H_    0.566660 0.478135 0.846963 0.126562
H27   H     H_    0.792842 0.966750 0.039856 0.180249
H28   H     H_    0.858459 0.027391 0.225301 0.137794
H29   H     H_    0.631430 0.356755 0.015821 0.080565
H30   H     H_    0.141862 0.862535 0.181520 0.114974
H31   H     H_    0.809956 0.612742 0.376183 0.096968
H32   H     H_    0.840362 0.730793 0.920427 0.114900
H33   H     H_    0.397592 0.555892 0.901200 0.083656
H34   H     H_    0.093058 0.272759 0.140572 0.115184
H35   H     H_    0.625759 0.779799 0.964366 0.009121
H36   H     H_    0.602201 0.695384 0.068469 -0.008533
H37   H     H_    0.637814 0.686344 0.637754 0.042305
H38   H     H_    0.902851 0.111709 0.955960 0.104908
H39   H     H_    0.360544 0.645582 0.818195 0.101936
H40   H     H_    0.249687 0.361859 0.086679 0.104664
H41   H     H_    0.074974 0.307771 0.619454 0.127752
H42   H     H_    0.305687 0.774091 0.289891 0.181345
I1    I     I_    0.203882 0.171314 0.321866 -0.567160
I2    I     I_    0.469630 0.716524 0.375634 -0.429650
N1    N     N_R   0.037320 0.720000 0.995830 -0.046747
N2    N     N_R   0.824900 0.517970 0.936430 -0.042164
N3    N     N_R   0.003190 0.648180 0.211390 -0.036994
N4    N     N_R   0.774330 0.457010 0.995830 -0.052268
N5    N     N_R   0.053760 0.709130 0.151980 -0.042681
N6    N     N_R   0.853840 0.498830 0.211390 -0.046694
N7    N     N_R   0.974250 0.667320 0.936430 -0.042019
N8    N     N_R   0.225670 0.542990 0.004170 -0.048302
N9    N     N_R   0.946240 0.290870 0.848020 -0.044296
N10   N     N_R   0.146160 0.501170 0.788610 -0.043222
N11   N     N_R   0.025750 0.332680 0.063570 -0.042215
N12   N     N_R   0.962680 0.280000 0.004170 -0.043218
N13   N     N_R   0.209230 0.553860 0.848010 -0.040209
N14   N     N_R   0.175100 0.482030 0.063570 -0.045605
N15   N     N_R   0.996810 0.351820 0.788610 -0.042053
N16   N     N_R   0.790770 0.446140 0.151990 -0.053842
Ni1   Ni    Ni4+2 0.130310 0.630310 0.000000 0.215979
Ni2   Ni    Ni4+2 0.869690 0.369690 0.000000 0.223522
Ni3   Ni    Ni4+2 0.985660 0.509480 0.863750 0.220377
Ni4   Ni    Ni4+2 0.014340 0.490520 0.136250 0.225533
O1    O     O_2   0.618219 0.938827 0.982829 -0.608855
O2    O     O_2   0.466643 0.622621 0.136919 -0.572581
O3    O     O_2   0.752719 0.685557 0.690497 -0.616426

loop_
_geom_bond_atom_site_label_1
_geom_bond_atom_site_label_2
_ccdc_geom_bond_type
C25   C31   A    
C6    C45   A    
C62   H35   S    
C11   H42   S    
N3    Ni4   S    
C49   H20   S    
C19   C20   A    
N10   Ni3   S    
C55   H26   S    
C3    C6    A    
C16   N2    A    
C9    C67   A    
C39   C41   A    
C29   H9    S    
C32   H14   S    
C26   C27   A    
C29   C30   A    
C56   H12   S    
C18   C24   A    
C63   O2    D    
C21   C22   A    
C36   C37   A    
C40   H29   S    
C39   H17   S    
C1    N1    A    
C30   C31   A    
C33   C35   A    
N9    N15   A    
C40   N4    A    
C27   C29   A    
N15   Ni3   S    
C10   C17   A    
C23   C40   A    
C52   H30   S    
C1    H1    S    
C15   C17   A    
C18   C19   A    
C41   C42   A    
C9    C66   A    
N10   N13   A    
C51   H24   S    
C30   H10   S    
C10   C63   S    
C5    N15   A    
C66   N11   A    
C60   N7    A    
C28   H22   S    
C32   C38   A    
C4    C12   A    
C33   H15   S    
C25   H6    S    
C50   H21   S    
C47   C53   A    
N8    Ni1   S    
C45   N8    A    
C28   C34   A    
C8    C65   A    
C59   N6    A    
C13   C14   A    
N12   Ni2   S    
C56   N9    A    
C66   H34   S    
C43   I2    S    
C7    C56   A    
C6    C54   S    
C27   H8    S    
C4    H2    S    
C44   C46   A    
C52   N5    A    
C65   H23   S    
C22   C34   S    
C64   O3    D    
N2    Ni3   S    
C21   H5    S    
N9    Ni2   S    
C62   O1    D    
C8    C41   S    
C63   H36   S    
C5    C7    A    
C67   H38   S    
C38   H11   S    
C3    H40   S    
C25   C26   A    
C2    H39   S    
C13   C24   S    
C1    C61   A    
C60   C61   A    
C51   C53   A    
C35   C36   A    
C58   H28   S    
N16   Ni2   S    
C54   H25   S    
C37   C38   A    
N7    Ni3   S    
C17   C62   S    
N14   Ni4   S    
C47   C48   A    
C50   C51   A    
C57   C61   S    
N6    N16   A    
C28   N3    A    
C39   C46   A    
N8    N14   A    
C48   C49   A    
C16   C23   A    
C65   N10   A    
C57   H27   S    
C43   C44   A    
C22   C24   A    
C42   C43   A    
C47   H18   S    
N11   Ni4   S    
N4    Ni2   S    
C18   H4    S    
C64   H37   S    
C15   H3    S    
C54   C55   D    
C4    N16   A    
C34   C52   A    
C2    C8    A    
C45   H33   S    
C67   N12   A    
C60   H32   S    
N3    N5    A    
C3    N14   A    
C23   C55   S    
C2    N13   A    
C7    C19   S    
N13   Ni1   S    
C32   C33   A    
C42   C53   S    
N1    N7    A    
C11   C13   A    
C57   C58   D    
C14   I1    S    
C26   H7    S    
C48   H19   S    
C12   C59   A    
N6    Ni4   S    
N1    Ni1   S    
C10   C11   A    
C20   C21   A    
C12   C44   S    
C49   C50   A    
N5    Ni1   S    
C59   H31   S    
C14   C15   A    
C37   H16   S    
C16   H13   S    
N11   N12   A    
C36   C64   S    
C35   C46   S    
C5    H41   S    
N2    N4    A    
C20   C31   S    
