data_mof_unit_51347.cif
_audit_creation_date              2012-10-26T20:40:15-0400
_audit_creation_method            fapswitch 2.2
_symmetry_space_group_name_H-M    P1
_symmetry_Int_Tables_number       1
_space_group_crystal_system       triclinic
_cell_length_a                    15.078237
_cell_length_b                    10.859432
_cell_length_c                    9.638662
_cell_angle_alpha                 88.628426
_cell_angle_beta                  89.33441
_cell_angle_gamma                 94.991089
_cell_volume                      1571.66151932

loop_
_atom_site_label
_atom_site_type_symbol
_atom_type_description
_atom_site_fract_x
_atom_site_fract_y
_atom_site_fract_z
_atom_type_partial_charge
Br1   Br    Br    0.715212 0.930042 0.129576 -0.541565
C1    C     C_R   0.504607 0.262385 0.502185 0.569676
C2    C     C_R   0.186178 0.497738 0.374826 -0.131704
C3    C     C_R   0.231828 0.500602 0.501047 -0.013027
C4    C     C_R   0.328762 0.499496 0.500583 0.528476
C5    C     C_R   0.184669 0.505029 0.626917 -0.119248
C6    C     C_R   0.495533 0.102057 0.766886 -0.067774
C7    C     C_R   0.459689 0.033750 0.881505 -0.131766
C8    C     C_R   0.413795 0.918985 0.863543 -0.046814
C9    C     C_R   0.410166 0.866906 0.732679 0.282805
C10   C     C_R   0.458752 0.928793 0.619271 0.001616
C11   C     C_R   0.487749 0.055002 0.631222 -0.041405
C12   C     C_R   0.906398 0.507162 0.626452 0.020300
C13   C     C_R   0.508857 0.126927 0.507248 0.035902
C14   C     C_R   0.523525 0.066531 0.381823 0.233357
C15   C     C_R   0.513443 0.937956 0.380059 -0.124387
C16   C     C_R   0.493178 0.736120 0.498963 0.575233
C17   C     C_R   0.483283 0.868739 0.497671 -0.052755
C18   C     C_R   0.614346 0.689024 0.126909 0.231653
C19   C     C_R   0.655088 0.787199 0.043059 0.104656
C20   C     C_R   0.655045 0.778027 0.899612 0.196602
C21   C     C_R   0.611153 0.675314 0.842898 -0.063963
C22   C     C_R   0.554790 0.587972 0.920033 0.031569
C23   C     C_R   0.955692 0.496053 0.247185 -0.113025
C24   C     C_R   0.555031 0.591080 0.069264 0.120209
C25   C     C_R   0.448276 0.416492 0.078666 0.080203
C26   C     C_R   0.446832 0.416424 0.932140 0.336778
C27   C     C_R   0.671240 0.500588 0.499473 0.568440
C28   C     C_R   0.814009 0.506696 0.625192 -0.117098
C29   C     C_R   0.768306 0.502106 0.499017 -0.003741
C30   C     C_R   0.815575 0.498987 0.373108 -0.120010
C31   C     C_R   0.908077 0.499594 0.372589 0.019758
C32   C     C_R   0.953683 0.503352 0.499741 0.064757
C33   C     C_R   0.048133 0.495678 0.247639 -0.119544
C34   C     C_R   0.093901 0.498837 0.373505 0.014872
C35   C     C_R   0.046654 0.502923 0.500209 0.063654
C36   C     C_R   0.092251 0.506227 0.627372 0.014330
C37   C     C_R   0.044659 0.510450 0.752732 -0.117269
C38   C     C_R   0.952210 0.510957 0.752274 -0.114944
Cu1   Cu    Cu3+1 0.499990 0.499990 0.640660 0.970202
Cu2   Cu    Cu3+1 0.500010 0.500010 0.359340 1.022836
H1    H     H_    0.777837 0.509666 0.722787 0.133592
H2    H     H_    0.083802 0.492675 0.149672 0.111840
H3    H     H_    0.222281 0.494400 0.277229 0.134999
H4    H     H_    0.219707 0.507587 0.724557 0.161243
H5    H     H_    0.078894 0.513132 0.851008 0.114177
H6    H     H_    0.916532 0.514007 0.850231 0.113375
H7    H     H_    0.336649 0.755730 0.619272 0.315894
H8    H     H_    0.702486 0.715263 0.269697 0.341991
H9    H     H_    0.726898 0.934680 0.860410 0.378065
H10   H     H_    0.386496 0.342378 0.775081 0.380549
H11   H     H_    0.558061 0.077848 0.185603 0.337929
H12   H     H_    0.533201 0.188092 0.788809 0.180180
H13   H     H_    0.464775 0.072075 0.983929 0.138946
H14   H     H_    0.380304 0.870511 0.951466 0.135098
H15   H     H_    0.530857 0.891853 0.286482 0.172680
H16   H     H_    0.405642 0.348269 0.137442 0.148487
H17   H     H_    0.623125 0.670301 0.735167 0.225046
H18   H     H_    0.780541 0.495660 0.275471 0.140464
H19   H     H_    0.921450 0.493319 0.148909 0.113573
N1    N     N_R   0.500860 0.501210 0.147910 -0.258024
N2    N     N_R   0.500890 0.501290 0.852040 -0.246623
O1    O     O_R   0.499990 0.319640 0.618810 -0.552889
O2    O     O_3   0.637973 0.689519 0.262550 -0.628647
O3    O     O_3   0.699219 0.864054 0.809261 -0.678221
O4    O     O_3   0.388539 0.327640 0.875363 -0.734460
O5    O     O_3   0.552142 0.134249 0.263820 -0.659474
O6    O     O_R   0.500000 0.319660 0.381240 -0.442390
O7    O     O_R   0.370250 0.499960 0.618800 -0.504606
O8    O     O_R   0.370260 0.499980 0.381230 -0.526578
O9    O     O_R   0.500000 0.680340 0.618760 -0.486296
O10   O     O_R   0.500010 0.680360 0.381190 -0.447034
O11   O     O_R   0.629740 0.500020 0.618770 -0.545835
O12   O     O_R   0.629750 0.500040 0.381200 -0.437702
O13   O     O_3   0.353936 0.761007 0.717978 -0.677194

loop_
_geom_bond_atom_site_label_1
_geom_bond_atom_site_label_2
_ccdc_geom_bond_type
C10   C17   A    
C5    H4    S    
C28   H1    S    
C34   C35   A    
Cu2   N1    S    
C27   O12   A    
C15   H15   S    
C6    C7    A    
C25   C26   A    
C36   C37   A    
Cu1   O1    S    
C12   C28   A    
C35   C36   A    
Cu1   O9    S    
C25   N1    A    
C1    O6    A    
C29   C30   A    
C14   C15   A    
C32   C35   A    
Cu1   N2    S    
Cu1   O11   S    
C33   C34   A    
C30   H18   S    
C4    O7    A    
Cu2   O12   S    
C22   N2    A    
C18   C19   A    
C7    C8    A    
C8    H14   S    
C8    C9    A    
H8    O2    S    
C20   C21   A    
H7    O13   S    
C18   C24   A    
C27   O11   A    
H9    O3    S    
Cu2   O6    S    
C6    C11   A    
C2    H3    S    
C12   C38   A    
Cu1   O7    S    
C3    C5    A    
C7    H13   S    
C23   C33   A    
H10   O4    S    
C23   C31   A    
C12   C32   A    
C28   C29   A    
C26   N2    A    
C9    O13   S    
C30   C31   A    
C2    C34   A    
C18   O2    S    
C23   H19   S    
C14   O5    S    
C16   C17   S    
C5    C36   A    
C24   N1    A    
H11   O5    S    
Cu2   O10   S    
Cu1   Cu2   S    
C11   C13   A    
C16   O9    A    
C6    H12   S    
C2    C3    A    
C1    O1    A    
C38   H6    S    
Br1   C19   S    
C20   O3    S    
C13   C14   A    
C33   H2    S    
C3    C4    S    
C4    O8    A    
C21   H17   S    
C10   C11   A    
C31   C32   A    
C27   C29   S    
C26   O4    S    
C37   C38   A    
C22   C24   A    
C1    C13   S    
C25   H16   S    
C37   H5    S    
C9    C10   A    
C19   C20   A    
C16   O10   A    
C15   C17   A    
C21   C22   A    
Cu2   O8    S    
