data_mof_unit_44486.cif
_audit_creation_date              2012-12-10T16:42:55-0500
_audit_creation_method            fapswitch 2.2
_symmetry_space_group_name_H-M    P1
_symmetry_Int_Tables_number       1
_space_group_crystal_system       triclinic
_cell_length_a                    7.451217
_cell_length_b                    8.677122
_cell_length_c                    12.949844
_cell_angle_alpha                 88.130995
_cell_angle_beta                  78.82948
_cell_angle_gamma                 102.750374
_cell_volume                      798.666946929

loop_
_atom_site_label
_atom_site_type_symbol
_atom_type_description
_atom_site_fract_x
_atom_site_fract_y
_atom_site_fract_z
_atom_type_partial_charge
C1    C     C_R   0.452778 0.199642 0.503229 0.892890
C2    C     C_R   0.547222 0.800358 0.496771 0.892875
C3    C     C_R   0.464107 0.486815 0.701673 0.840607
C4    C     C_R   0.535895 0.513202 0.298327 0.840601
C5    C     C_R   0.558503 0.528740 0.183880 -0.141584
C6    C     C_R   0.441496 0.471286 0.816122 -0.141590
C7    C     C_R   0.260577 0.378681 0.992917 0.165612
C8    C     C_R   0.739413 0.621359 0.007087 0.165617
C9    C     C_R   0.275696 0.381232 0.882980 0.149973
C10   C     C_R   0.724282 0.618837 0.117027 0.149954
C11   C     C_R   0.591829 0.549792 0.857920 -0.215672
C12   C     C_R   0.408182 0.450209 0.142081 -0.215668
C13   C     C_R   0.583891 0.542664 0.965976 0.051524
C14   C     C_R   0.416111 0.457355 0.034027 0.051510
C15   C     C_2   0.426039 0.031835 0.504921 -0.334203
C16   C     C_2   0.573961 0.968165 0.495079 -0.334189
Cu1   Cu    Cu3+1 0.686350 0.517570 0.488220 1.001756
Cu2   Cu    Cu3+1 0.313650 0.482430 0.511780 1.001755
N1    N     N_2   0.033570 0.455950 0.529530 -0.207013
N2    N     N_2   0.966430 0.544050 0.470470 -0.207015
O1    O     O_R   0.621060 0.286250 0.492350 -0.585846
O2    O     O_R   0.378940 0.713750 0.507650 -0.585851
O3    O     O_R   0.306310 0.256580 0.512240 -0.577125
O4    O     O_R   0.693690 0.743420 0.487760 -0.577126
O5    O     O_R   0.631800 0.512400 0.642670 -0.595189
O6    O     O_R   0.368200 0.487600 0.357330 -0.595188
O7    O     O_R   0.317060 0.482730 0.662570 -0.551046
O8    O     O_R   0.682940 0.517270 0.337430 -0.551042
H1    H     H_    0.285441 0.381203 0.195833 0.199577
H2    H     H_    0.714585 0.618772 0.804168 0.199582
I1    I     I_    0.946005 0.763388 0.179881 -0.254631
I2    I     I_    0.053928 0.236811 0.820148 -0.254643
I3    I     I_    0.999254 0.259868 0.095636 -0.266628
I4    I     I_    0.000699 0.740205 0.904374 -0.266648
H3    H     H_    0.933495 0.376072 0.583208 0.240856
H4    H     H_    0.066505 0.623927 0.416792 0.240852
H5    H     H_    0.283389 0.960326 0.514273 0.186177
H6    H     H_    0.716611 0.039674 0.485726 0.186179

loop_
_geom_bond_atom_site_label_1
_geom_bond_atom_site_label_2
_ccdc_geom_bond_type
C2    O2    A    
C4    O6    A    
C1    O1    A    
C8    C13   A    
C1    C15   S    
C12   H1    S    
C7    I3    S    
N1    N2    D    
Cu2   O6    S    
C3    C6    S    
Cu1   O5    S    
C6    C9    A    
C3    O7    A    
Cu1   Cu2   S    
C5    C10   A    
C8    I4    S    
C13   C14   A    
C11   C13   A    
C4    O8    A    
C12   C14   A    
C1    O3    A    
C2    O4    A    
Cu1   O4    S    
Cu2   O3    S    
N2    H4    S    
C3    O5    A    
Cu1   N2    S    
C2    C16   S    
C5    C12   A    
C8    C10   A    
Cu2   N1    S    
C6    C11   A    
C7    C9    A    
C15   H5    S    
N1    H3    S    
C9    I2    S    
Cu2   O2    S    
Cu1   O8    S    
C10   I1    S    
C7    C14   A    
Cu1   O1    S    
Cu2   O7    S    
C15   C16   D    
C11   H2    S    
C16   H6    S    
C4    C5    S    
