data_mof_unit_42867.cif
_audit_creation_date              2013-03-05T15:39:31-0500
_audit_creation_method            fapswitch 2.2
_symmetry_space_group_name_H-M    P1
_symmetry_Int_Tables_number       1
_space_group_crystal_system       triclinic
_cell_length_a                    19.701091
_cell_length_b                    16.906989
_cell_length_c                    15.630117
_cell_angle_alpha                 90.044642
_cell_angle_beta                  53.879053
_cell_angle_gamma                 89.911707
_cell_volume                      4205.40096995

loop_
_atom_site_label
_atom_site_type_symbol
_atom_site_description
_atom_site_fract_x
_atom_site_fract_y
_atom_site_fract_z
_atom_type_partial_charge
C1    C     C_R   0.340588 0.175365 0.049200 -0.063157
C2    C     C_R   0.346018 0.818802 0.036168 -0.026145
C3    C     C_R   0.873625 0.697850 0.997199 -0.078793
C4    C     C_R   0.839941 0.325643 0.049670 -0.067474
H1    H     H_    0.330901 0.223406 0.100570 0.118229
H2    H     H_    0.342373 0.763158 0.071488 0.121376
H3    H     H_    0.880169 0.752739 0.026794 0.134370
H4    H     H_    0.830452 0.276940 0.099954 0.118190
N1    N     N_R   0.408680 0.130160 0.995800 -0.052401
N2    N     N_R   0.408680 0.869840 0.995800 -0.053568
N3    N     N_R   0.908680 0.630160 0.995800 -0.059512
N4    N     N_R   0.908680 0.369840 0.995800 -0.051782
C5    C     C_R   0.358763 0.819867 0.218262 -0.004299
C6    C     C_R   0.400087 0.200592 0.203754 -0.079877
C7    C     C_R   0.899448 0.299619 0.203893 -0.079643
C8    C     C_R   0.853266 0.675662 0.216335 -0.025363
H5    H     H_    0.350399 0.761834 0.197854 0.102524
H6    H     H_    0.403546 0.256731 0.168493 0.146548
H7    H     H_    0.902545 0.243475 0.168748 0.144134
H8    H     H_    0.838100 0.728732 0.192723 0.106693
N5    N     N_R   0.421680 0.867580 0.153120 -0.057221
N6    N     N_R   0.421680 0.132420 0.153120 -0.066060
N7    N     N_R   0.921680 0.367580 0.153120 -0.064782
N8    N     N_R   0.921680 0.632420 0.153120 -0.061988
C9    C     C_R   0.334589 0.907265 0.941486 -0.118376
C10   C     C_R   0.331287 0.091058 0.948039 -0.086671
C11   C     C_R   0.829134 0.413170 0.952465 -0.072033
C12   C     C_R   0.866154 0.612357 0.896698 -0.125185
H9    H     H_    0.316547 0.935863 0.896060 0.137928
H10   H     H_    0.311919 0.063145 0.903675 0.135896
H11   H     H_    0.807528 0.447124 0.914150 0.138605
H12   H     H_    0.863572 0.587464 0.834883 0.140176
N9    N     N_R   0.403730 0.921770 0.935950 -0.057770
N10   N     N_R   0.403730 0.078230 0.935950 -0.054256
N11   N     N_R   0.903730 0.421770 0.935950 -0.054615
N12   N     N_R   0.903730 0.578230 0.935950 -0.057112
C13   C     C_R   0.408989 0.109990 0.299719 -0.186244
C14   C     C_R   0.361404 0.918129 0.312836 -0.155743
C15   C     C_R   0.858279 0.579636 0.311630 -0.142058
C16   C     C_R   0.908284 0.390199 0.300104 -0.191842
H13   H     H_    0.412377 0.080987 0.358733 0.125495
H14   H     H_    0.351291 0.953588 0.376980 0.120370
H15   H     H_    0.846541 0.543409 0.375964 0.115925
H16   H     H_    0.911559 0.419127 0.359295 0.125169
N13   N     N_R   0.426630 0.075970 0.212960 -0.048481
N14   N     N_R   0.426630 0.924030 0.212960 -0.045069
N15   N     N_R   0.926630 0.575970 0.212960 -0.045878
N16   N     N_R   0.926630 0.424030 0.212960 -0.048662
C17   C     C_R   0.289044 0.150558 0.022753 0.111653
C18   C     C_R   0.294795 0.844960 0.010188 0.109062
C19   C     C_R   0.847629 0.688856 0.933578 0.115667
C20   C     C_R   0.787264 0.352360 0.025430 0.107976
C21   C     C_R   0.317853 0.851959 0.318209 0.154992
C22   C     C_R   0.388362 0.187513 0.297607 0.170712
C23   C     C_R   0.887075 0.312913 0.298115 0.172706
C24   C     C_R   0.812621 0.644502 0.317041 0.157895
C25   C     C_R   0.619150 0.201002 0.017667 -0.014530
C26   C     C_R   0.662221 0.824719 0.952688 -0.045799
C27   C     C_R   0.118764 0.700577 0.017389 -0.002500
C28   C     C_R   0.119041 0.299319 0.018381 -0.014535
H17   H     H_    0.603914 0.258583 0.004453 0.156591
H18   H     H_    0.675515 0.775415 0.902587 0.175536
H19   H     H_    0.102556 0.757968 0.004983 0.163049
H20   H     H_    0.103502 0.241623 0.005961 0.155128
N17   N     N_R   0.591320 0.134600 0.004200 -0.064602
N18   N     N_R   0.591320 0.865400 0.004200 -0.056812
N19   N     N_R   0.091320 0.634600 0.004200 -0.057821
N20   N     N_R   0.091320 0.365400 0.004200 -0.064122
C29   C     C_R   0.601891 0.800003 0.792781 0.374920
C30   C     C_R   0.637910 0.183019 0.782886 0.395495
C31   C     C_R   0.139176 0.317686 0.782877 0.395951
C32   C     C_R   0.109795 0.697265 0.789584 0.420852
N21   N     N_R   0.578320 0.867660 0.846880 -0.093105
N22   N     N_R   0.578320 0.132340 0.846880 -0.094261
N23   N     N_R   0.078320 0.367660 0.846880 -0.093250
N24   N     N_R   0.078320 0.632340 0.846880 -0.089917
C33   C     C_R   0.632814 0.086516 0.686306 -0.148197
C34   C     C_R   0.592285 0.892621 0.698857 -0.184613
C35   C     C_R   0.096500 0.606343 0.696761 -0.192746
C36   C     C_R   0.134048 0.414200 0.686510 -0.145147
H21   H     H_    0.640073 0.050147 0.624727 0.122186
H22   H     H_    0.582425 0.922229 0.645836 0.133107
H23   H     H_    0.086401 0.577450 0.643609 0.129928
H24   H     H_    0.141667 0.450669 0.624926 0.121417
N25   N     N_R   0.573370 0.074390 0.787040 -0.060942
N26   N     N_R   0.573370 0.925610 0.787040 -0.060898
N27   N     N_R   0.073370 0.574390 0.787040 -0.058249
N28   N     N_R   0.073370 0.425610 0.787040 -0.060307
C37   C     C_R   0.669972 0.918790 0.049741 -0.113581
C38   C     C_R   0.633043 0.105577 0.105482 -0.115600
C39   C     C_R   0.134434 0.395862 0.104103 -0.092075
C40   C     C_R   0.134494 0.604564 0.103718 -0.090862
H25   H     H_    0.690805 0.952612 0.088896 0.106555
H26   H     H_    0.637842 0.078159 0.164209 0.101252
H27   H     H_    0.141073 0.424752 0.160552 0.099984
H28   H     H_    0.141982 0.576068 0.159621 0.095378
N29   N     N_R   0.596270 0.927870 0.064040 -0.051496
N30   N     N_R   0.596270 0.072130 0.064040 -0.051047
N31   N     N_R   0.096270 0.427870 0.064040 -0.050526
N32   N     N_R   0.096270 0.572130 0.064040 -0.050170
Ni1   Ni    Ni4+2 0.500000 0.131190 0.000000 0.275498
Ni2   Ni    Ni4+2 0.500000 0.868810 0.000000 0.308167
Ni3   Ni    Ni4+2 1.000000 0.631190 0.000000 0.281269
Ni4   Ni    Ni4+2 0.000000 0.368810 0.000000 0.278450
Ni5   Ni    Ni4+2 0.488650 0.000000 0.862740 0.236480
Ni6   Ni    Ni4+2 0.988650 0.500000 0.862740 0.229930
Ni7   Ni    Ni4+2 0.511350 0.000000 0.137260 0.224682
Ni8   Ni    Ni4+2 0.011350 0.500000 0.137260 0.222331
C41   C     C_R   0.648063 0.184939 0.076864 0.118205
C42   C     C_R   0.712409 0.856209 0.979341 0.119794
C43   C     C_R   0.148763 0.683848 0.075127 0.098268
C44   C     C_R   0.148724 0.316325 0.076659 0.112229
C45   C     C_R   0.614003 0.813997 0.696603 -0.051957
C46   C     C_R   0.675496 0.155515 0.678836 -0.073610
C47   C     C_R   0.177431 0.345568 0.678912 -0.073160
C48   C     C_R   0.123308 0.683262 0.692890 -0.079066
C49   C     C_3   0.252556 0.189004 0.463085 -0.553943
C50   C     C_3   0.189134 0.860213 0.499192 -0.548687
C51   C     C_3   0.678340 0.639609 0.495470 -0.554874
C52   C     C_3   0.751082 0.312360 0.463542 -0.553160
H29   H     H_    0.262068 0.124404 0.466019 0.207025
H30   H     H_    0.210861 0.919829 0.503248 0.209892
H31   H     H_    0.696805 0.578562 0.500529 0.211071
H32   H     H_    0.760937 0.376815 0.466744 0.207350
H33   H     H_    0.216396 0.192970 0.429051 0.234753
H34   H     H_    0.145930 0.871139 0.476516 0.241784
H35   H     H_    0.638436 0.632255 0.467180 0.244720
H36   H     H_    0.715067 0.309043 0.429273 0.235454
C53   C     C_3   0.200654 0.223024 0.574335 0.125051
C54   C     C_3   0.141231 0.818811 0.607580 0.134389
C55   C     C_3   0.627221 0.681276 0.604746 0.148619
C56   C     C_3   0.698807 0.278332 0.574680 0.124127
H37   H     H_    0.562873 0.691674 0.626517 0.152214
H38   H     H_    0.635197 0.265784 0.595120 0.146224
H39   H     H_    0.136948 0.235997 0.595167 0.144568
H40   H     H_    0.074144 0.814646 0.637236 0.141945
H41   H     H_    0.383463 0.182367 0.474622 0.129833
H42   H     H_    0.329950 0.838891 0.481318 0.129327
H43   H     H_    0.814426 0.648321 0.489489 0.123506
H44   H     H_    0.881730 0.317759 0.475384 0.129276
C57   C     C_3   0.381507 0.242645 0.448067 0.170962
C58   C     C_3   0.318371 0.783294 0.453864 0.182098
C59   C     C_3   0.807862 0.706313 0.461670 0.185041
C60   C     C_3   0.879672 0.257544 0.448664 0.171401
C61   C     C_3   0.725600 0.768514 0.398985 0.378211
C62   C     C_3   0.812271 0.182064 0.374855 0.376339
C63   C     C_3   0.314206 0.318961 0.374693 0.377657
C64   C     C_3   0.225765 0.732529 0.400390 0.372727
C65   C     C_3   0.336368 0.235142 0.392848 0.087302
C66   C     C_3   0.263368 0.807278 0.415556 0.068220
C67   C     C_3   0.756608 0.689527 0.415795 0.067056
C68   C     C_3   0.834717 0.265597 0.393297 0.087640
H45   H     H_    0.780977 0.807894 0.347761 0.114933
H46   H     H_    0.870278 0.144798 0.331237 0.135652
H47   H     H_    0.372314 0.355817 0.331260 0.139125
H48   H     H_    0.277619 0.689823 0.347887 0.119032
C69   C     C_3   0.665458 0.766224 0.596482 -0.155155
C70   C     C_3   0.737031 0.196060 0.576274 -0.140136
C71   C     C_3   0.239063 0.304979 0.576100 -0.141113
C72   C     C_3   0.174410 0.730425 0.593971 -0.142351
C73   C     C_3   0.761324 0.765948 0.554708 0.648471
C74   C     C_3   0.829905 0.199870 0.544984 0.650539
C75   C     C_3   0.331990 0.300562 0.544548 0.649989
C76   C     C_3   0.271648 0.722376 0.544905 0.641231
C77   C     C_3   0.664502 0.808731 0.507066 -0.503848
C78   C     C_3   0.746240 0.146307 0.483899 -0.510200
C79   C     C_3   0.248257 0.354893 0.483904 -0.511389
C80   C     C_3   0.164544 0.693698 0.508723 -0.499873
H49   H     H_    0.599534 0.808910 0.528759 0.220901
H50   H     H_    0.684497 0.144475 0.496077 0.214237
H51   H     H_    0.186523 0.357016 0.496059 0.213473
H52   H     H_    0.098511 0.700487 0.535197 0.216305
H53   H     H_    0.684167 0.871648 0.495959 0.172278
H54   H     H_    0.764752 0.083799 0.482096 0.184406
H55   H     H_    0.266736 0.417303 0.482382 0.186834
H56   H     H_    0.179138 0.629508 0.495405 0.171152
C81   C     C_2   0.192167 0.740758 0.095175 -0.156283
C82   C     C_2   0.190301 0.259616 0.100953 -0.143479
C83   C     C_2   0.689044 0.242408 0.101684 -0.145876
C84   C     C_2   0.787066 0.818267 0.957614 -0.134528
H57   H     H_    0.214747 0.721263 0.140327 0.135101
H58   H     H_    0.216839 0.282346 0.140140 0.141300
H59   H     H_    0.714975 0.220069 0.141784 0.141223
H60   H     H_    0.807234 0.837605 0.005465 0.136417
C85   C     C_2   0.711078 0.313481 0.053691 -0.117839
C86   C     C_2   0.813514 0.749813 0.904132 -0.143313
C87   C     C_2   0.219905 0.807028 0.036952 -0.128718
C88   C     C_2   0.212584 0.188894 0.052297 -0.123522
H61   H     H_    0.684021 0.336738 0.015455 0.162847
H62   H     H_    0.796430 0.731805 0.852619 0.187435
H63   H     H_    0.196756 0.827978 0.993139 0.167046
H64   H     H_    0.185183 0.165248 0.014710 0.160976
N33   N     N_R   0.190450 0.161134 0.646768 0.266562
O1    O     O_R   0.255648 0.128806 0.634407 -0.323407
O2    O     O_R   0.119703 0.122679 0.701546 -0.276942
N34   N     N_R   0.143843 0.869775 0.681445 0.271978
O3    O     O_R   0.215208 0.895018 0.658259 -0.307546
O4    O     O_R   0.075797 0.907594 0.753907 -0.279554
N35   N     N_R   0.618274 0.627323 0.684032 0.274629
O5    O     O_R   0.683214 0.589388 0.665570 -0.286509
O6    O     O_R   0.543816 0.600482 0.757710 -0.278104
N36   N     N_R   0.688420 0.340026 0.647585 0.267474
O7    O     O_R   0.753555 0.372259 0.635238 -0.321618
O8    O     O_R   0.617456 0.378435 0.702966 -0.267334
N37   N     N_R   0.774515 0.746984 0.636854 0.225351
O9    O     O_R   0.777037 0.804535 0.690365 -0.429321
O10   O     O_R   0.805426 0.679275 0.638219 -0.364113
N38   N     N_R   0.834404 0.223869 0.632456 0.252160
O11   O     O_R   0.877191 0.285697 0.624370 -0.352963
O12   O     O_R   0.815514 0.172225 0.705209 -0.368618
N39   N     N_R   0.336619 0.276445 0.631822 0.252648
O13   O     O_R   0.317739 0.328118 0.704721 -0.361371
O14   O     O_R   0.379547 0.214456 0.623385 -0.352583
N40   N     N_R   0.291708 0.733522 0.622046 0.242178
O15   O     O_R   0.337796 0.792329 0.613941 -0.350276
O16   O     O_R   0.283433 0.673979 0.680342 -0.378435
O17   O     O_3   0.685145 0.755041 0.350313 -0.753192
H65   H     H_    0.681524 0.806995 0.323638 0.314400
O18   O     O_3   0.777982 0.185441 0.317355 -0.784477
H66   H     H_    0.780996 0.131020 0.291348 0.316624
O19   O     O_3   0.279916 0.316205 0.317172 -0.784544
H67   H     H_    0.283089 0.370711 0.291427 0.319321
O20   O     O_3   0.183954 0.752161 0.354994 -0.759675
H68   H     H_    0.174793 0.701798 0.330474 0.309125
O21   O     O_3   0.464852 0.268508 0.374648 -0.708802
H69   H     H_    0.495170 0.257278 0.406296 0.358116
O22   O     O_3   0.396825 0.752615 0.369389 -0.696248
H70   H     H_    0.434641 0.755133 0.391741 0.361899
O23   O     O_3   0.889147 0.734204 0.381752 -0.701962
H71   H     H_    0.923935 0.726449 0.407981 0.355332
O24   O     O_3   0.962968 0.231116 0.375326 -0.709917
H72   H     H_    0.993221 0.242040 0.407118 0.357725
O25   O     O_3   0.797350 0.841248 0.512589 -0.706806
H73   H     H_    0.765507 0.881709 0.568917 0.336469
O26   O     O_3   0.868813 0.124670 0.509891 -0.705151
H74   H     H_    0.833574 0.085773 0.567178 0.342538
O27   O     O_3   0.371021 0.375528 0.509531 -0.702078
H75   H     H_    0.335868 0.414612 0.566890 0.345303
O28   O     O_3   0.301405 0.646418 0.498896 -0.711776
H76   H     H_    0.269330 0.605803 0.554639 0.335532
N41   N     N_R   0.579796 0.725609 0.846302 0.234162
O29   O     O_R   0.502285 0.713173 0.926179 -0.397458
O30   O     O_R   0.637684 0.678766 0.833013 -0.312941
N42   N     N_R   0.637577 0.260716 0.819127 0.231058
O31   O     O_R   0.702629 0.287616 0.811592 -0.316528
O32   O     O_R   0.565550 0.295965 0.883634 -0.381985
N43   N     N_R   0.139840 0.240111 0.818601 0.231362
O33   O     O_R   0.068290 0.204270 0.882423 -0.385627
O34   O     O_R   0.205061 0.213866 0.811331 -0.317722
N44   N     N_R   0.106745 0.771313 0.835196 0.226986
O35   O     O_R   0.174259 0.798689 0.821183 -0.323479
O36   O     O_R   0.034219 0.799400 0.912605 -0.425621

loop_
_geom_bond_atom_site_label_1
_geom_bond_atom_site_label_2
_geom_bond_distance
_ccdc_geom_bond_type
C26   H18   1.064506 S    
C35   H23   1.078391 S    
N42   O32   1.301922 A    
N38   O12   1.302916 A    
C34   H22   1.079456 S    
N18   Ni2   1.839384 S    
C60   O24   1.409168 S    
O20   H68   0.992973 S    
N17   Ni1   1.839555 S    
C49   C65   1.551850 S    
C4    H4    1.076526 S    
C29   N41   1.430147 S    
C77   H49   1.114251 S    
C35   N27   1.316996 A    
N19   Ni3   1.839555 S    
C23   C68   1.453407 S    
C61   C77   1.537322 S    
N37   O9    1.302546 A    
C30   C46   1.409760 A    
C7    H7    1.079804 S    
N31   Ni8   1.824855 S    
N27   Ni6   1.856901 S    
C29   C45   1.396631 A    
O23   H71   0.993018 S    
N6    Ni1   1.937811 S    
N36   O8    1.301973 A    
C4    C20   1.373682 A    
C1    H1    1.076415 S    
C72   C76   1.594825 S    
N18   N29   1.451254 A    
C15   N15   1.321650 A    
N3    N12   1.327400 A    
C63   C65   1.556976 S    
C64   O20   1.407367 S    
C64   C66   1.552941 S    
N17   N30   1.452096 A    
C48   C72   1.486303 S    
C54   N34   1.465146 S    
C58   C76   1.547226 S    
C12   C19   1.373913 A    
N40   O16   1.302708 A    
N44   O36   1.299914 A    
C77   H53   1.110862 S    
C40   H28   1.081556 S    
N42   O31   1.298880 A    
C54   C72   1.593155 S    
N41   O29   1.299418 A    
C50   H30   1.111915 S    
C25   H17   1.073785 S    
C55   C69   1.592422 S    
C63   C79   1.533654 S    
C49   H29   1.113422 S    
C9    C18   1.374452 A    
C46   C70   1.490776 S    
C2    C18   1.364134 A    
C27   N19   1.308434 A    
C53   H39   1.116510 S    
H43   C59   1.110705 S    
C10   N10   1.341902 A    
C25   C41   1.369525 A    
O22   H70   0.992911 S    
C24   C67   1.472117 S    
N38   O11   1.302535 A    
N33   O2    1.301966 A    
C30   N22   1.316381 A    
C51   C55   1.547804 S    
O26   H74   0.992785 S    
C62   O18   1.408216 S    
C29   N21   1.331539 A    
C38   C41   1.390731 A    
C31   N43   1.428935 S    
C43   C81   1.439843 S    
C4    N4    1.327041 A    
C49   C53   1.516692 S    
O25   H73   0.991572 S    
C87   H63   1.081885 S    
C63   O19   1.408189 S    
C36   H24   1.077078 S    
C30   N42   1.428623 S    
C34   N26   1.319966 A    
N24   Ni3   1.937886 S    
C7    N7    1.317216 A    
C62   C78   1.533834 S    
C33   N25   1.311428 A    
N35   O5    1.301304 A    
C8    N8    1.324061 A    
C52   C56   1.517675 S    
C35   C48   1.392250 A    
C36   N28   1.311282 A    
C9    H9    1.077856 S    
N10   Ni5   1.895125 S    
C73   N37   1.487498 S    
C2    H2    1.072048 S    
C34   C45   1.389865 A    
N25   Ni5   1.856901 S    
C18   C87   1.427881 S    
C12   H12   1.081942 S    
C26   N18   1.320108 A    
C38   H26   1.081311 S    
C22   C65   1.453112 S    
C5    C21   1.377422 A    
N43   O34   1.298787 A    
O28   H76   0.991517 S    
C57   O21   1.409142 S    
N32   Ni8   1.829485 S    
C78   H54   1.112362 S    
N36   O7    1.300487 A    
N12   Ni6   1.895125 S    
C83   H59   1.083394 S    
H44   C60   1.109931 S    
C58   O22   1.411297 S    
C1    N1    1.325186 A    
N34   O4    1.301884 A    
H42   C58   1.111362 S    
C10   C17   1.384941 A    
C69   C77   1.581970 S    
O18   H66   0.993047 S    
C75   N39   1.477417 S    
N40   O15   1.302469 A    
C15   H15   1.080266 S    
C11   N11   1.342018 A    
N44   O35   1.299991 A    
C11   H11   1.081520 S    
C37   C42   1.392865 A    
C37   H25   1.079960 S    
C56   C70   1.587908 S    
N30   Ni7   1.829485 S    
N7    Ni4   1.937902 S    
C47   C71   1.490926 S    
N41   O30   1.299478 A    
C7    C23   1.361928 A    
C39   C44   1.388205 A    
C86   H62   1.083358 S    
C55   N35   1.464099 S    
C8    C24   1.383096 A    
N39   O13   1.302931 A    
O19   H67   0.993049 S    
C28   C44   1.372040 A    
N28   Ni6   1.852163 S    
C41   C83   1.455161 S    
N15   Ni8   1.870355 S    
C27   C43   1.368356 A    
C15   C24   1.387849 A    
C62   H46   1.116388 S    
C36   C47   1.402887 A    
C42   C84   1.448454 S    
C31   C47   1.410383 A    
C16   C23   1.378365 A    
N14   Ni7   1.875148 S    
C76   O28   1.417488 S    
C74   O26   1.416027 S    
O21   H69   0.992780 S    
N9    Ni5   1.899963 S    
C32   N24   1.319218 A    
C40   C43   1.389072 A    
C8    H8    1.077152 S    
C38   N30   1.348380 A    
C59   O23   1.411391 S    
N4    N11   1.328165 A    
C85   H61   1.082237 S    
N24   N27   1.396655 A    
C14   C21   1.383093 A    
C61   C67   1.553343 S    
C84   C86   1.338967 D    
N19   N32   1.452096 A    
N22   Ni1   1.937886 S    
C62   C68   1.557165 S    
N5    Ni2   1.937902 S    
N1    Ni1   1.838675 S    
N21   Ni2   1.937801 S    
C6    C22   1.362097 A    
C57   C75   1.563624 S    
C52   C68   1.551536 S    
N23   Ni4   1.937801 S    
C64   C80   1.532725 S    
C71   C75   1.592352 S    
C27   H19   1.073977 S    
N26   Ni5   1.852163 S    
C20   C85   1.449780 S    
C13   C22   1.377806 A    
C13   N13   1.316444 A    
C33   C46   1.403226 A    
C2    N2    1.323825 A    
C69   C73   1.593568 S    
C53   C71   1.587778 S    
C84   H60   1.083773 S    
C63   H47   1.116372 S    
C11   C20   1.390474 A    
C40   N32   1.343050 A    
C79   H55   1.112443 S    
N5    N14   1.378992 A    
C80   H52   1.114276 S    
C74   N38   1.477776 S    
N39   O14   1.302535 A    
H41   C57   1.109841 S    
C16   N16   1.317002 A    
C3    C19   1.369194 A    
N7    N16   1.378992 A    
C60   C74   1.563200 S    
C21   C66   1.454884 S    
C26   C42   1.386195 A    
N8    N15   1.379793 A    
C56   N36   1.466586 S    
C6    H6    1.079810 S    
C54   H40   1.115675 S    
N20   Ni4   1.839384 S    
C25   N17   1.320186 A    
N34   O3    1.300602 A    
C55   H37   1.115548 S    
C73   O25   1.418150 S    
C75   O27   1.416038 S    
C79   H51   1.115359 S    
N43   O33   1.301943 A    
C52   H36   1.114276 S    
C50   C54   1.539342 S    
N4    Ni4   1.838623 S    
C83   C85   1.346900 D    
C51   H31   1.112100 S    
C82   H58   1.083503 S    
C50   H34   1.113341 S    
C32   C48   1.391390 A    
C3    H3    1.077878 S    
C81   C87   1.341371 D    
C88   H64   1.081948 S    
C28   H20   1.074061 S    
N8    Ni3   1.937811 S    
C76   N40   1.485623 S    
C45   C69   1.501367 S    
C6    N6    1.317542 A    
C50   C66   1.545591 S    
O17   H65   0.992928 S    
N20   N31   1.451254 A    
C61   H45   1.117049 S    
C57   C65   1.567456 S    
C60   C68   1.566915 S    
N11   Ni6   1.899963 S    
C39   N31   1.343370 A    
C5    N5    1.319188 A    
C31   N23   1.316644 A    
C58   C66   1.568810 S    
N16   Ni8   1.875148 S    
C17   C88   1.441826 S    
C49   H33   1.114315 S    
C81   H57   1.083806 S    
N2    Ni2   1.838623 S    
C59   C67   1.571145 S    
C78   H50   1.115341 S    
C71   C79   1.586248 S    
N1    N10   1.327400 A    
C44   C82   1.448880 S    
N2    N9    1.328165 A    
C72   C80   1.582134 S    
N22   N25   1.396655 A    
C13   H13   1.081156 S    
C33   H21   1.077710 S    
N35   O6    1.301976 A    
N21   N26   1.397466 A    
C14   N14   1.316724 A    
C51   C67   1.543521 S    
C3    N3    1.329242 A    
C28   N20   1.317891 A    
C70   C74   1.592679 S    
C39   H27   1.081526 S    
C5    H5    1.074043 S    
N29   Ni7   1.824855 S    
C14   H14   1.080492 S    
C52   H32   1.113439 S    
N23   N28   1.397466 A    
C16   H16   1.081205 S    
N6    N13   1.379793 A    
C61   O17   1.407472 S    
C12   N12   1.338669 A    
C56   H38   1.116454 S    
N33   O1    1.300393 A    
C70   C78   1.585531 S    
C37   N29   1.341082 A    
O24   H72   0.992787 S    
C19   C86   1.445333 S    
C53   N33   1.466703 S    
N3    Ni3   1.838675 S    
C64   H48   1.116613 S    
C80   H56   1.109916 S    
C32   N44   1.423757 S    
O27   H75   0.992817 S    
N37   O10   1.301915 A    
C1    C17   1.368898 A    
C82   C88   1.343169 D    
C59   C73   1.547511 S    
N13   Ni7   1.870355 S    
C9    N9    1.336118 A    
C10   H10   1.077560 S    
C51   H35   1.113130 S    
