data_mof_unit_53158.cif
_audit_creation_date              2012-12-10T18:35:26-0500
_audit_creation_method            fapswitch 2.2
_symmetry_space_group_name_H-M    P1
_symmetry_Int_Tables_number       1
_space_group_crystal_system       triclinic
_cell_length_a                    14.813921
_cell_length_b                    15.446852
_cell_length_c                    16.635383
_cell_angle_alpha                 91.816261
_cell_angle_beta                  99.183111
_cell_angle_gamma                 97.860996
_cell_volume                      3716.96741951

loop_
_atom_site_label
_atom_site_type_symbol
_atom_type_description
_atom_site_fract_x
_atom_site_fract_y
_atom_site_fract_z
_atom_type_partial_charge
C1    C     C_R   0.557455 0.662598 0.513289 0.878502
C2    C     C_R   0.471154 0.187435 0.509094 -0.273296
C3    C     C_R   0.555863 0.901400 0.555727 0.065192
C4    C     C_R   0.447824 0.103570 0.534173 0.071996
C5    C     C_R   0.651808 0.934465 0.568119 0.144377
C6    C     C_R   0.353390 0.072419 0.536242 0.115994
C7    C     C_R   0.489212 0.958641 0.557571 0.086767
C8    C     C_R   0.516702 0.048814 0.553175 0.088576
C9    C     C_R   0.612132 0.081350 0.568235 -0.236297
C10   C     C_R   0.396070 0.928662 0.563127 -0.235309
C11   C     C_R   0.678286 0.025246 0.578175 -0.257868
C12   C     C_R   0.442265 0.337354 0.490099 0.887736
C13   C     C_R   0.330027 0.985019 0.554776 -0.258209
C14   C     C_R   0.176192 0.650393 0.389463 0.012032
C15   C     C_R   0.838315 0.401044 0.649830 0.010163
C16   C     C_R   0.513585 0.502675 0.349738 0.857236
C17   C     C_R   0.489854 0.505866 0.651261 0.848582
C18   C     C_R   0.260779 0.618863 0.405067 -0.009434
C19   C     C_R   0.747033 0.403178 0.613279 -0.014867
C20   C     C_R   0.203549 0.515075 0.492875 -0.087510
C21   C     C_R   0.795650 0.487808 0.507902 -0.067025
C22   C     C_R   0.120057 0.549895 0.487364 -0.050923
C23   C     C_R   0.591943 0.755387 0.531734 -0.079301
C24   C     C_R   0.888393 0.496914 0.545934 -0.039803
C25   C     C_R   0.101183 0.606778 0.423194 0.059751
C26   C     C_R   0.909118 0.456887 0.620564 0.058707
C27   C     C_R   0.052929 0.526315 0.538647 -0.020702
C28   C     C_R   0.960802 0.542411 0.510668 -0.026047
C29   C     C_R   0.943112 0.599912 0.446676 0.069863
C30   C     C_R   0.073257 0.497834 0.620776 0.080092
C31   C     C_R   0.008672 0.617329 0.394872 0.119304
C32   C     C_R   0.999015 0.478186 0.664692 0.061865
C33   C     C_R   0.532153 0.531467 0.270697 -0.027490
C34   C     C_R   0.407047 0.245141 0.497194 -0.105096
C35   C     C_R   0.491367 0.527124 0.737448 -0.033605
C36   C     C_R   0.480883 0.592669 0.231865 -0.209460
C37   C     C_R   0.562125 0.504552 0.795785 -0.207883
C38   C     C_R   0.503563 0.628053 0.160987 -0.162773
C39   C     C_R   0.570203 0.534076 0.876581 -0.148925
C40   C     C_R   0.576063 0.600565 0.126578 0.210721
C41   C     C_R   0.507907 0.587267 0.899830 0.206896
C42   C     C_R   0.630885 0.543562 0.167772 -0.178147
C43   C     C_R   0.435902 0.607958 0.841897 -0.189398
C44   C     C_R   0.609131 0.509155 0.239708 -0.219010
C45   C     C_R   0.717796 0.875597 0.567930 0.103893
C46   C     C_R   0.428006 0.578681 0.761000 -0.201186
C47   C     C_2   0.585244 0.617074 0.041950 -0.245389
C48   C     C_2   0.508953 0.612000 0.985567 -0.230913
C49   C     C_3   0.974150 0.621266 0.303846 -0.423498
C50   C     C_3   0.919151 0.533333 0.266531 -0.350969
C51   C     C_3   0.981060 0.462305 0.262865 -0.827773
C52   C     C_3   0.012250 0.500635 0.756441 -0.448943
C53   C     C_3   0.036039 0.600134 0.774909 -0.327298
C54   C     C_3   0.056677 0.622585 0.866583 -0.903151
C55   C     C_3   0.172312 0.735728 0.346531 -0.475680
C56   C     C_R   0.285189 0.129183 0.519111 0.107246
C57   C     C_3   0.241885 0.811265 0.392051 -0.328799
C58   C     C_3   0.232781 0.897173 0.350592 -0.877395
C59   C     C_3   0.857374 0.337353 0.716284 -0.460416
C60   C     C_3   0.814216 0.242937 0.688764 -0.341838
C61   C     C_3   0.843760 0.179374 0.752912 -0.881685
C62   C     C_3   0.881243 0.670194 0.455911 -0.437472
C63   C     C_3   0.793737 0.666439 0.390357 -0.346007
C64   C     C_3   0.781242 0.756150 0.357754 -0.887612
C65   C     C_3   0.169671 0.489908 0.666456 -0.427912
C66   C     C_3   0.180138 0.392435 0.673262 -0.348240
C67   C     C_R   0.686387 0.786209 0.550526 -0.240463
C68   C     C_3   0.276738 0.379156 0.713257 -0.866704
C69   C     C_3   0.821283 0.904699 0.586372 -0.451635
C70   C     C_3   0.853974 0.918724 0.678643 -0.320233
C71   C     C_3   0.955592 0.958316 0.698414 -0.901734
C72   C     C_3   0.183398 0.095518 0.519858 -0.434216
C73   C     C_3   0.114997 0.160544 0.496378 -0.346168
C74   C     C_3   0.015511 0.118270 0.495820 -0.895361
C75   C     C_R   0.314357 0.216536 0.501904 -0.208519
C76   C     C_R   0.527973 0.812695 0.535000 -0.276316
H1    H     H_    0.775664 0.513515 0.449651 0.140091
H2    H     H_    0.373128 0.862014 0.576439 0.143357
H3    H     H_    0.037393 0.483698 0.227980 0.252130
H4    H     H_    0.011589 0.447086 0.325296 0.264937
H5    H     H_    0.939324 0.401679 0.231997 0.234726
H6    H     H_    0.863787 0.509573 0.301581 0.212755
H7    H     H_    0.885495 0.543145 0.203483 0.201706
H8    H     H_    0.931223 0.674385 0.293170 0.183742
H9    H     H_    0.031024 0.636224 0.268436 0.198961
H10   H     H_    0.996003 0.598220 0.895318 0.261202
H11   H     H_    0.117383 0.592800 0.894909 0.259770
H12   H     H_    0.215586 0.458349 0.526501 0.150237
H13   H     H_    0.072414 0.694709 0.877991 0.249573
H14   H     H_    0.096668 0.627885 0.747748 0.216243
H15   H     H_    0.976483 0.632314 0.747690 0.222048
H16   H     H_    0.948015 0.481489 0.781508 0.206082
H17   H     H_    0.065240 0.464966 0.790152 0.201354
H18   H     H_    0.690259 0.370589 0.639705 0.132657
H19   H     H_    0.319306 0.648857 0.379382 0.131670
H20   H     H_    0.242534 0.890336 0.285983 0.260583
H21   H     H_    0.163643 0.916393 0.352945 0.251648
H22   H     H_    0.286360 0.949803 0.382239 0.263604
H23   H     H_    0.687407 0.522120 0.142094 0.117848
H24   H     H_    0.229244 0.818934 0.455803 0.221514
H25   H     H_    0.313779 0.797524 0.393682 0.216439
H26   H     H_    0.186685 0.725890 0.283554 0.198713
H27   H     H_    0.103199 0.756763 0.342801 0.213509
H28   H     H_    0.919266 0.177532 0.759340 0.259102
H29   H     H_    0.826497 0.199217 0.812761 0.262865
H30   H     H_    0.806644 0.112795 0.734211 0.249779
H31   H     H_    0.737790 0.237684 0.679498 0.212993
H32   H     H_    0.835613 0.223850 0.630364 0.224208
H33   H     H_    0.932733 0.336928 0.734204 0.216718
H34   H     H_    0.386007 0.647077 0.859285 0.127198
H35   H     H_    0.829041 0.357991 0.770683 0.194301
H36   H     H_    0.776737 0.803256 0.408232 0.264742
H37   H     H_    0.840009 0.781765 0.327243 0.251870
H38   H     H_    0.716423 0.750421 0.312733 0.260043
H39   H     H_    0.793929 0.620191 0.338427 0.223731
H40   H     H_    0.731599 0.643191 0.417436 0.233506
H41   H     H_    0.859851 0.668362 0.516961 0.179992
H42   H     H_    0.924894 0.735071 0.457280 0.205016
H43   H     H_    0.296764 0.416752 0.772944 0.269243
H44   H     H_    0.278210 0.308628 0.723434 0.246002
H45   H     H_    0.749958 0.054432 0.590094 0.160396
H46   H     H_    0.326947 0.399892 0.672570 0.269157
H47   H     H_    0.129824 0.360922 0.710169 0.217623
H48   H     H_    0.164314 0.358092 0.611994 0.205971
H49   H     H_    0.226236 0.527557 0.641220 0.201704
H50   H     H_    0.181378 0.520835 0.728806 0.202121
H51   H     H_    0.373682 0.598174 0.716766 0.154587
H52   H     H_    0.651669 0.464487 0.270486 0.145423
H53   H     H_    0.441899 0.614113 0.003488 0.148394
H54   H     H_    0.652116 0.614496 0.023825 0.144697
H55   H     H_    0.623662 0.513069 0.920647 0.122699
H56   H     H_    0.260096 0.958001 0.560121 0.145414
H57   H     H_    0.462447 0.674597 0.131718 0.126085
H58   H     H_    0.540183 0.209202 0.497954 0.164893
H59   H     H_    0.455575 0.787664 0.517741 0.159279
H60   H     H_    0.266175 0.263270 0.492895 0.150310
H61   H     H_    0.735793 0.740638 0.551117 0.160961
H62   H     H_    0.998989 0.916608 0.670462 0.260978
H63   H     H_    0.965490 0.025028 0.675415 0.258402
H64   H     H_    0.978191 0.963274 0.765530 0.251520
H65   H     H_    0.812235 0.962721 0.705712 0.220677
H66   H     H_    0.844441 0.854741 0.707266 0.222564
H67   H     H_    0.424066 0.614374 0.256858 0.147808
H68   H     H_    0.858505 0.854029 0.562771 0.195350
H69   H     H_    0.840786 0.964407 0.554011 0.201768
H70   H     H_    0.996959 0.061301 0.450937 0.260626
H71   H     H_    0.006684 0.096255 0.557276 0.259459
H72   H     H_    0.967862 0.166710 0.478677 0.249637
H73   H     H_    0.130372 0.217533 0.541196 0.214568
H74   H     H_    0.120995 0.183484 0.434519 0.224466
H75   H     H_    0.162832 0.037450 0.476263 0.204762
H76   H     H_    0.176199 0.074283 0.582053 0.201659
H77   H     H_    0.611552 0.464591 0.778921 0.147525
H78   H     H_    0.637445 0.150451 0.574862 0.139311
N1    N     N_R   0.271750 0.551950 0.454510 -0.110779
N2    N     N_R   0.728250 0.448050 0.545490 -0.114094
O1    O     O_R   0.615140 0.606020 0.522930 -0.620336
O2    O     O_R   0.384860 0.393980 0.477070 -0.611657
O3    O     O_R   0.468580 0.639400 0.493740 -0.626726
O4    O     O_R   0.531420 0.360600 0.506260 -0.614806
O5    O     O_R   0.581950 0.481350 0.400520 -0.623077
O6    O     O_R   0.418050 0.518650 0.599480 -0.621669
O7    O     O_R   0.435380 0.514730 0.371330 -0.614459
O8    O     O_R   0.564620 0.485270 0.628670 -0.615224
Zn1   Zn    Zn3+2 0.597860 0.477710 0.519490 0.925341
Zn2   Zn    Zn3+2 0.402140 0.522290 0.480510 0.924696

loop_
_geom_bond_atom_site_label_1
_geom_bond_atom_site_label_2
_ccdc_geom_bond_type
C25   C31   A    
C40   C47   S    
C66   C68   S    
C26   C32   A    
C19   N2    A    
C20   N1    A    
C73   H74   S    
C7    C10   A    
C69   H69   S    
C73   C74   S    
C14   C18   A    
C58   H22   S    
C23   C76   A    
C4    C8    A    
C10   H2    S    
C7    C8    A    
C39   C41   A    
C53   C54   S    
C69   H68   S    
C15   C19   A    
C55   H26   S    
C50   H6    S    
C2    H58   S    
C49   H8    S    
C74   H72   S    
C28   C29   A    
C35   C37   A    
C36   H67   S    
C24   C26   A    
C5    C11   A    
C3    C7    A    
C68   H43   S    
C54   H11   S    
C64   H36   S    
N1    Zn2   S    
C55   H27   S    
C33   C36   A    
C38   H57   S    
C23   C67   A    
C49   C50   S    
C58   H20   S    
C51   H4    S    
C32   C52   S    
C62   H41   S    
O6    Zn2   S    
C21   N2    A    
C8    C9    A    
C56   C72   S    
C22   C25   A    
C45   C67   A    
C59   H35   S    
C70   C71   S    
C43   H34   S    
C30   C32   A    
C61   H29   S    
C51   H5    S    
C60   H32   S    
C34   C75   A    
C63   H39   S    
C2    C34   A    
C40   C42   A    
C14   C55   S    
C59   C60   S    
C56   C75   A    
C27   C30   A    
C18   H19   S    
C41   C43   A    
O8    Zn1   S    
C11   H45   S    
C58   H21   S    
C42   C44   A    
C31   C49   S    
C76   H59   S    
C50   H7    S    
C71   H62   S    
C16   O7    A    
C70   H66   S    
C64   H38   S    
C47   H54   S    
C45   C69   S    
C49   H9    S    
C46   H51   S    
C1    O3    A    
C61   H28   S    
C54   H13   S    
C4    C6    A    
O1    Zn1   S    
C54   H10   S    
C75   H60   S    
C15   C26   A    
C71   H63   S    
C72   H76   S    
C57   H24   S    
C5    C45   A    
C60   C61   S    
C65   H49   S    
C2    C4    A    
C53   H15   S    
C62   C63   S    
C3    C76   A    
C17   O8    A    
C37   H77   S    
C16   C33   S    
C19   H18   S    
C74   H71   S    
C47   C48   D    
C72   H75   S    
O7    Zn2   S    
C50   C51   S    
C52   H17   S    
O4    Zn1   S    
C12   O4    A    
C61   H30   S    
C9    C11   A    
C60   H31   S    
C68   H46   S    
C63   H40   S    
C20   C22   A    
C9    H78   S    
C1    C23   S    
C22   C27   A    
C55   C57   S    
C66   H48   S    
C48   H53   S    
C52   H16   S    
C12   C34   S    
C53   H14   S    
C52   C53   S    
O2    Zn2   S    
C29   C62   S    
C44   H52   S    
C70   H65   S    
C64   H37   S    
C73   H73   S    
C33   C44   A    
C15   C59   S    
C74   H70   S    
C24   C28   A    
C6    C56   A    
C72   C73   S    
C3    C5    A    
C10   C13   A    
C71   H64   S    
C16   O5    A    
C57   H25   S    
O3    Zn2   S    
C13   H56   S    
C65   H50   S    
C1    O1    A    
C37   C39   A    
C42   H23   S    
C68   H44   S    
C6    C13   A    
C38   C40   A    
C57   C58   S    
C39   H55   S    
N2    Zn1   S    
C20   H12   S    
C36   C38   A    
C59   H33   S    
C41   C48   S    
C14   C25   A    
C69   C70   S    
C67   H61   S    
C43   C46   A    
C51   H3    S    
C62   H42   S    
C30   C65   S    
C17   O6    A    
C63   C64   S    
C29   C31   A    
C65   C66   S    
C21   C24   A    
C21   H1    S    
C27   C28   A    
C66   H47   S    
C17   C35   S    
C12   O2    A    
C35   C46   A    
O5    Zn1   S    
C18   N1    A    
