data_mof_unit_12000.cif
_audit_creation_date              2012-12-10T18:10:48-0500
_audit_creation_method            fapswitch 2.2
_symmetry_space_group_name_H-M    P1
_symmetry_Int_Tables_number       1
_space_group_crystal_system       triclinic
_cell_length_a                    12.577015
_cell_length_b                    13.178411
_cell_length_c                    15.735679
_cell_angle_alpha                 89.546806
_cell_angle_beta                  102.054444
_cell_angle_gamma                 82.971125
_cell_volume                      2529.92744198

loop_
_atom_site_label
_atom_site_type_symbol
_atom_type_description
_atom_site_fract_x
_atom_site_fract_y
_atom_site_fract_z
_atom_type_partial_charge
C1    C     C_R   0.439986 0.690822 0.481747 0.918326
C2    C     C_3   0.392536 0.454425 0.030839 0.310821
C3    C     C_3   0.499767 0.490529 0.082362 -0.000514
C4    C     C_3   0.600604 0.416716 0.068310 0.322385
C5    C     C_3   0.605906 0.416596 0.968226 0.809505
C6    C     C_1   0.498243 0.493473 0.173830 0.093491
C7    C     C_1   0.501359 0.492136 0.825646 0.128488
C8    C     C_1   0.501414 0.496063 0.750392 -0.129997
C9    C     C_R   0.732939 0.054316 0.505421 -0.164399
C10   C     C_R   0.596314 0.199215 0.507486 -0.186769
C11   C     C_R   0.294554 0.841183 0.450790 0.478986
C12   C     C_R   0.500311 0.499707 0.661367 0.879683
C13   C     C_R   0.262791 0.944783 0.428717 -0.220953
C14   C     C_R   0.341499 0.009553 0.428643 -0.194502
C15   C     C_R   0.454079 0.970733 0.445875 0.027153
C16   C     C_R   0.483405 0.864532 0.441815 -0.121161
C17   C     C_R   0.538191 0.033705 0.468634 0.009647
C18   C     C_R   0.649431 0.992055 0.479642 -0.096958
C19   C     C_R   0.675741 0.890040 0.461704 0.475612
C20   C     C_R   0.591437 0.829410 0.429888 0.417065
C21   C     C_R   0.514459 0.135639 0.487696 -0.270093
C22   C     C_R   0.706629 0.158079 0.517758 0.586328
C23   C     C_R   0.560766 0.308531 0.509857 0.892851
C24   C     C_R   0.404761 0.799012 0.454387 -0.185667
C25   C     C_R   0.090179 0.341924 0.386098 0.535810
C26   C     C_R   0.800524 0.626564 0.604027 0.612969
C27   C     C_R   0.908365 0.644693 0.634434 0.275738
C28   C     C_R   0.991122 0.592579 0.598800 0.426818
C29   C     C_R   0.965289 0.524308 0.530316 -0.137063
C30   C     C_R   0.855378 0.503133 0.506873 0.003439
C31   C     C_R   0.043370 0.473727 0.486086 -0.006329
C32   C     C_R   0.012912 0.395692 0.427118 0.002484
C33   C     C_R   0.905621 0.373152 0.409060 -0.135972
C34   C     C_R   0.499617 0.499455 0.338497 0.882908
C35   C     C_R   0.827950 0.427422 0.447145 -0.045999
C36   C     C_R   0.150116 0.499180 0.495478 0.013271
C37   C     C_R   0.195961 0.367181 0.402578 -0.104934
C38   C     C_3   0.393350 0.454181 0.932545 0.359933
C39   C     C_3   0.505632 0.599176 0.950406 -0.566059
C40   C     C_3   0.507509 0.599476 0.048401 -0.511827
C41   C     C_1   0.498658 0.496326 0.249291 -0.173308
C42   C     C_3   0.502151 0.488575 0.917435 -0.003059
H1    H     H_    0.321102 0.508297 0.040855 0.085256
H2    H     H_    0.818550 0.023700 0.513536 0.219129
H3    H     H_    0.431513 0.167028 0.488123 0.186420
H4    H     H_    0.311952 0.089653 0.415279 0.170245
H5    H     H_    0.177243 0.976491 0.417619 0.176677
H6    H     H_    0.323269 0.509552 0.897948 0.083711
H7    H     H_    0.257501 0.325782 0.372690 0.169226
H8    H     H_    0.880658 0.314383 0.364064 0.206137
H9    H     H_    0.178413 0.562830 0.531612 0.221884
H10   H     H_    0.747159 0.406908 0.429432 0.206902
H11   H     H_    0.578523 0.631749 0.937451 0.261263
H12   H     H_    0.432396 0.650511 0.915202 0.186064
H13   H     H_    0.438114 0.654248 0.060800 0.185567
H14   H     H_    0.584439 0.626923 0.082608 0.263283
H15   H     H_    0.596188 0.341229 0.097065 0.100275
N1    N     N_R   0.222200 0.444690 0.455710 -0.155931
N2    N     N_R   0.776960 0.554780 0.543830 -0.194072
O1    O     O_R   0.366740 0.627160 0.478850 -0.588719
O2    O     O_R   0.544830 0.662520 0.507140 -0.518061
O3    O     O_R   0.410920 0.482310 0.608710 -0.607276
O4    O     O_R   0.589010 0.517670 0.637000 -0.564615
O5    O     O_R   0.455170 0.337480 0.492860 -0.631808
O6    O     O_R   0.633260 0.372840 0.521150 -0.583559
O7    O     O_R   0.410990 0.482330 0.363000 -0.604093
O8    O     O_R   0.589080 0.517690 0.391290 -0.631312
Zn1   Zn    Zn3+2 0.381090 0.476390 0.481110 0.980945
Zn2   Zn    Zn3+2 0.618910 0.523610 0.518890 1.035943
F1    F     F_    0.376413 0.359768 0.897898 -0.616843
F2    F     F_    0.379354 0.358603 0.061028 -0.637857
F3    F     F_    0.694938 0.448152 0.117943 -0.681526
F4    F     F_    0.788601 0.217354 0.538915 -0.663337
F5    F     F_    0.783136 0.850352 0.475385 -0.703811
O9    O     O_3   0.217463 0.780146 0.465789 -0.636543
C43   C     C_3   0.181339 0.808637 0.542888 0.101462
H16   H     H_    0.105490 0.773364 0.542670 0.218447
H17   H     H_    0.157805 0.892629 0.545323 0.135262
C44   C     C_3   0.267049 0.769177 0.624796 -0.349609
H18   H     H_    0.283669 0.684480 0.624585 0.260889
H19   H     H_    0.345076 0.800972 0.625671 0.196259
C45   C     C_3   0.227773 0.800269 0.707389 -0.851135
H20   H     H_    0.217071 0.884895 0.711359 0.255863
H21   H     H_    0.289383 0.767286 0.765184 0.246173
H22   H     H_    0.148623 0.771674 0.708186 0.319877
O10   O     O_3   0.608871 0.739841 0.384274 -0.626151
C46   C     C_3   0.697826 0.739309 0.341384 0.144325
H23   H     H_    0.775627 0.710316 0.387390 0.202769
H24   H     H_    0.702208 0.816846 0.314265 0.145446
C47   C     C_3   0.685831 0.667339 0.265626 -0.367710
H25   H     H_    0.693983 0.587315 0.290600 0.262133
H26   H     H_    0.603840 0.687415 0.222553 0.222099
C48   C     C_3   0.775068 0.675223 0.214014 -0.906994
H27   H     H_    0.766013 0.753080 0.183722 0.255095
H28   H     H_    0.768893 0.618936 0.161794 0.314792
H29   H     H_    0.857546 0.658641 0.257296 0.269728
F6    F     F_    0.063778 0.265741 0.330987 -0.671583
F7    F     F_    0.719513 0.677416 0.637887 -0.628505
F8    F     F_    0.095482 0.603089 0.638147 -0.695176
O11   O     O_3   0.933047 0.716746 0.696391 -0.578131
C49   C     C_3   0.946088 0.670402 0.779749 0.123413
H30   H     H_    0.008776 0.601357 0.788890 0.157268
H31   H     H_    0.866655 0.648083 0.789334 0.162229
C50   C     C_3   0.984462 0.747206 0.848203 -0.309082
H32   H     H_    0.064767 0.768383 0.840257 0.226005
H33   H     H_    0.924217 0.817613 0.838758 0.244585
C51   C     C_3   0.996746 0.703306 0.940230 -0.978912
H34   H     H_    0.916059 0.686982 0.951268 0.270830
H35   H     H_    0.028298 0.759775 0.988005 0.277115
H36   H     H_    0.055449 0.631930 0.950908 0.266286
O12   O     O_3   0.611065 0.319911 0.925775 -0.684183
C52   C     C_3   0.580319 0.233991 0.964701 0.090836
H37   H     H_    0.543584 0.186857 0.910779 0.219483
H38   H     H_    0.514900 0.252236 0.001224 0.222523
C53   C     C_3   0.681123 0.168199 0.018740 -0.450121
H39   H     H_    0.740180 0.145129 0.976667 0.242943
H40   H     H_    0.722885 0.212131 0.072742 0.228994
C54   C     C_3   0.649411 0.072374 0.057040 -0.878462
H41   H     H_    0.591892 0.093777 0.100652 0.274790
H42   H     H_    0.723955 0.026127 0.095429 0.266764
H43   H     H_    0.610036 0.025062 0.004331 0.264161
O13   O     O_3   0.698497 0.465050 0.958181 -0.630520
C55   C     C_3   0.797229 0.397010 0.971044 0.211141
H44   H     H_    0.796929 0.347629 0.913976 0.166200
H45   H     H_    0.809150 0.348112 0.030976 0.171492
C56   C     C_3   0.893259 0.459432 0.979276 -0.401245
H46   H     H_    0.883596 0.506365 0.918522 0.220978
H47   H     H_    0.893096 0.511643 0.034423 0.257102
C57   C     C_3   0.002736 0.390599 0.994585 -0.863782
H48   H     H_    0.015104 0.344086 0.055853 0.284363
H49   H     H_    0.070552 0.438376 0.999957 0.274610
H50   H     H_    0.005348 0.338889 0.939448 0.268861

loop_
_geom_bond_atom_site_label_1
_geom_bond_atom_site_label_2
_ccdc_geom_bond_type
O7    Zn1   S    
C46   H23   S    
C38   F1    S    
C49   H30   S    
C19   C20   A    
C43   C44   S    
C5    C42   S    
C3    C6    S    
C34   O7    A    
C52   H38   S    
C7    C8    T    
C14   H4    S    
C10   C22   A    
C26   C27   A    
C48   H27   S    
C30   C35   A    
O5    Zn1   S    
C28   C29   A    
C43   H17   S    
C38   C42   S    
C36   N1    A    
C9    C22   A    
C55   H45   S    
C39   H12   S    
O2    Zn2   S    
C15   C16   A    
C11   C24   A    
C12   O3    A    
C18   C19   A    
C7    C42   S    
C54   H41   S    
C50   H32   S    
C25   C37   A    
O4    Zn2   S    
C40   H14   S    
C6    C41   T    
C20   O10   S    
C4    H15   S    
C51   H34   S    
C26   N2    A    
C38   H6    S    
C37   N1    A    
C16   C20   A    
C57   H50   S    
C40   H13   S    
C25   C32   A    
C16   C24   A    
C13   C14   A    
C51   H35   S    
C34   C41   S    
C50   H33   S    
C52   H37   S    
C39   C42   S    
C21   H3    S    
C10   C21   A    
C48   H28   S    
C27   O11   S    
C55   H44   S    
C43   H16   S    
C1    O1    A    
C39   C40   S    
C13   H5    S    
C12   O4    A    
O10   C46   S    
C55   C56   S    
C5    O12   S    
C56   C57   S    
C53   H40   S    
C33   H8    S    
C5    O13   S    
C17   C21   A    
O8    Zn2   S    
C54   H43   S    
O9    C43   S    
C29   C30   A    
C37   H7    S    
C2    C38   S    
C47   H26   S    
C31   C32   A    
C2    H1    S    
C8    C12   S    
C53   C54   S    
C30   N2    A    
C17   C18   A    
C36   H9    S    
C26   F7    S    
C28   F8    S    
C25   F6    S    
C23   O5    A    
N2    Zn2   S    
C3    C40   S    
C49   C50   S    
C45   H21   S    
C46   H24   S    
C51   H36   S    
C2    F2    S    
C4    F3    S    
C47   C48   S    
C44   H19   S    
C57   H48   S    
N1    Zn1   S    
C15   C17   A    
C35   H10   S    
C9    H2    S    
C56   H47   S    
O12   C52   S    
C14   C15   A    
C19   F5    S    
C4    C5    S    
C1    O2    A    
C34   O8    A    
C44   C45   S    
C10   C23   S    
C48   H29   S    
C45   H22   S    
O3    Zn1   S    
C32   C33   A    
C23   O6    A    
C2    C3    S    
C29   C31   A    
C11   O9    S    
C11   C13   A    
C47   H25   S    
C39   H11   S    
C56   H46   S    
O6    Zn2   S    
O11   C49   S    
C33   C35   A    
C52   C53   S    
C54   H42   S    
C44   H18   S    
C9    C18   A    
O1    Zn1   S    
C1    C24   S    
C49   H31   S    
C45   H20   S    
C46   C47   S    
C27   C28   A    
C31   C36   A    
C22   F4    S    
C53   H39   S    
O13   C55   S    
C50   C51   S    
C3    C4    S    
C57   H49   S    
