data_mof_unit_55603.cif
_audit_creation_date              2012-12-11T13:59:58-0500
_audit_creation_method            fapswitch 2.2
_symmetry_space_group_name_H-M    P1
_symmetry_Int_Tables_number       1
_space_group_crystal_system       triclinic
_cell_length_a                    11.394347
_cell_length_b                    11.37622
_cell_length_c                    18.946979
_cell_angle_alpha                 90.004397
_cell_angle_beta                  90.089399
_cell_angle_gamma                 120.008614
_cell_volume                      2126.7653886

loop_
_atom_site_label
_atom_site_type_symbol
_atom_type_description
_atom_site_fract_x
_atom_site_fract_y
_atom_site_fract_z
_atom_type_partial_charge
C1    C     C_R   0.544762 0.478194 0.853024 0.544281
C2    C     C_R   0.480325 0.545362 0.351519 0.561339
C3    C     C_R   0.068691 0.521503 0.352647 0.577492
C4    C     C_R   0.453152 0.931706 0.352366 0.574267
C5    C     C_2   0.004323 0.491263 0.581136 -0.135610
C6    C     C_2   0.513537 0.506451 0.578296 -0.114182
C7    C     C_2   0.483147 0.980479 0.586145 -0.104032
C8    C     C_2   0.480298 0.979570 0.424010 -0.106188
C9    C     C_2   0.508340 0.511179 0.420593 -0.113363
C10   C     C_2   0.017161 0.499908 0.423785 -0.076915
C11   C     C_2   0.033748 0.414017 0.465932 0.247772
C12   C     C_R   0.521547 0.065213 0.852399 0.535502
C13   C     C_2   0.592288 0.613042 0.463801 0.240713
C14   C     C_2   0.377828 0.924319 0.470833 0.246774
C15   C     C_2   0.397988 0.987355 0.539348 0.252639
C16   C     C_2   0.616721 0.586246 0.534775 0.235378
C17   C     C_2   0.981136 0.389258 0.536520 0.231550
C18   C     C_2   0.996847 0.492548 0.922685 0.287268
C19   C     C_2   0.499632 0.506915 0.919492 0.290061
C20   C     C_2   0.492895 0.985877 0.917138 0.292956
C21   C     C_2   0.491680 0.996268 0.077290 0.288057
C22   C     C_2   0.505962 0.498366 0.080630 0.291612
C23   C     C_R   0.931419 0.453909 0.853810 0.538365
C24   C     C_2   0.985796 0.492583 0.082745 0.293328
C25   C     C_2   0.019323 0.596460 0.037983 -0.099480
C26   C     C_2   0.401800 0.424947 0.036582 -0.121394
C27   C     C_2   0.573368 0.973654 0.035385 -0.094018
C28   C     C_2   0.596411 0.020437 0.962298 -0.102362
C29   C     C_2   0.423911 0.402680 0.962964 -0.121664
C30   C     C_2   0.973251 0.573593 0.964721 -0.091806
C31   C     C_3   0.180284 0.333030 0.473170 -0.069135
C32   C     C_3   0.653945 0.836223 0.474200 -0.071177
C33   C     C_3   0.156656 0.862822 0.447540 -0.050920
C34   C     C_R   0.477923 0.544490 0.146986 0.543459
C35   C     C_3   0.394140 0.181825 0.519881 -0.113940
C36   C     C_3   0.834849 0.634137 0.524616 -0.077379
C37   C     C_3   0.793819 0.182487 0.523995 -0.075827
C38   C     C_3   0.823808 0.277036 0.120484 -0.107366
C39   C     C_3   0.720241 0.536081 0.105068 -0.116097
C40   C     C_3   0.453315 0.174904 0.087346 -0.113869
C41   C     C_3   0.278673 0.822353 0.878586 -0.106699
C42   C     C_3   0.540994 0.723155 0.897100 -0.115250
C43   C     C_3   0.174673 0.453222 0.911284 -0.112994
C44   C     C_R   0.065150 0.521429 0.147554 0.536219
C45   C     C_R   0.453630 0.931185 0.146179 0.540071
C46   C     C_R   0.545856 0.479922 0.648156 0.558365
C47   C     C_R   0.518241 0.061645 0.649848 0.551852
C48   C     C_R   0.936762 0.455516 0.649064 0.553061
Cr1   Cr    Cr6+3 0.464030 0.233680 0.750360 1.037672
Cr2   Cr    Cr6+3 0.766320 0.230350 0.750360 1.047622
Cr3   Cr    Cr6+3 0.769650 0.535970 0.750360 1.046212
Cr4   Cr    Cr6+3 0.233680 0.464030 0.249640 1.034877
Cr5   Cr    Cr6+3 0.230350 0.766320 0.249640 1.028411
Cr6   Cr    Cr6+3 0.535970 0.769650 0.249640 1.044254
H1    H     H_    0.979571 0.563204 0.444146 0.006456
H2    H     H_    0.700564 0.090137 0.946983 0.134327
H3    H     H_    0.375676 0.298321 0.944504 0.119435
H4    H     H_    0.925846 0.629213 0.944507 0.126902
H5    H     H_    0.155682 0.291331 0.527571 0.157556
H6    H     H_    0.262918 0.440832 0.474155 0.101280
H7    H     H_    0.215781 0.273007 0.443288 0.130137
H8    H     H_    0.700097 0.857854 0.527658 0.158150
H9    H     H_    0.543484 0.799510 0.477696 0.101063
H10   H     H_    0.702239 0.932091 0.443817 0.138159
H11   H     H_    0.198876 0.962662 0.420412 0.135393
H12   H     H_    0.451620 0.407612 0.439003 -0.014182
H13   H     H_    0.118319 0.868175 0.500432 0.154393
H14   H     H_    0.069433 0.790246 0.415171 0.125378
H15   H     H_    0.388621 0.170571 0.461506 0.084799
H16   H     H_    0.501510 0.244226 0.537355 0.109149
H17   H     H_    0.340380 0.235991 0.534715 0.135842
H18   H     H_    0.849574 0.668154 0.468816 0.136823
H19   H     H_    0.797585 0.523183 0.527595 0.083978
H20   H     H_    0.934070 0.689298 0.551264 0.142183
H21   H     H_    0.806851 0.174677 0.466408 0.136099
H22   H     H_    0.728218 0.227490 0.534164 0.087193
H23   H     H_    0.579186 0.062507 0.437920 -0.027107
H24   H     H_    0.743556 0.079202 0.545736 0.128401
H25   H     H_    0.720829 0.203315 0.103758 0.113726
H26   H     H_    0.811626 0.332523 0.165805 0.066980
H27   H     H_    0.874463 0.219912 0.137334 0.165452
H28   H     H_    0.736525 0.455390 0.083868 0.147638
H29   H     H_    0.678820 0.505619 0.159407 0.077558
H30   H     H_    0.819427 0.631054 0.109275 0.150700
H31   H     H_    0.532450 0.262093 0.057497 0.141635
H32   H     H_    0.488747 0.178954 0.142653 0.075254
H33   H     H_    0.361495 0.184752 0.090076 0.146385
H34   H     H_    0.533470 0.923476 0.574642 0.004773
H35   H     H_    0.334755 0.809196 0.833960 0.068859
H36   H     H_    0.222497 0.873433 0.860824 0.166760
H37   H     H_    0.204073 0.719689 0.895317 0.114790
H38   H     H_    0.458161 0.736236 0.917936 0.146929
H39   H     H_    0.514618 0.685372 0.841858 0.083369
H40   H     H_    0.634928 0.823544 0.895159 0.151719
H41   H     H_    0.263370 0.532539 0.940259 0.138141
H42   H     H_    0.177053 0.487928 0.856012 0.079115
H43   H     H_    0.183263 0.360546 0.908374 0.147504
H44   H     H_    0.409618 0.453537 0.560459 0.000144
H45   H     H_    0.062961 0.596605 0.565046 0.058973
H46   H     H_    0.087971 0.700860 0.053701 0.134125
H47   H     H_    0.297510 0.379150 0.054487 0.120420
H48   H     H_    0.629787 0.927184 0.055696 0.125559
O1    O     O_R   0.434100 0.092480 0.829780 -0.510347
O2    O     O_R   0.362730 0.477510 0.175360 -0.542715
O3    O     O_R   0.114780 0.637270 0.175360 -0.541652
O4    O     O_R   0.522490 0.885220 0.175360 -0.542237
O5    O     O_R   0.432250 0.092620 0.670380 -0.452022
O6    O     O_R   0.907380 0.339630 0.670380 -0.446577
O7    O     O_R   0.660370 0.567750 0.670380 -0.448868
O8    O     O_R   0.092620 0.432250 0.329620 -0.458823
O9    O     O_R   0.339630 0.907380 0.329620 -0.493507
O10   O     O_R   0.567750 0.660370 0.329620 -0.451784
O11   O     O_R   0.475790 0.362860 0.676880 -0.509628
O12   O     O_R   0.907520 0.341620 0.829780 -0.490758
O13   O     O_R   0.637140 0.112930 0.676880 -0.508872
O14   O     O_R   0.887070 0.524210 0.676880 -0.506854
O15   O     O_R   0.362860 0.475790 0.323120 -0.510588
O16   O     O_R   0.112930 0.637140 0.323120 -0.498783
O17   O     O_R   0.524210 0.887070 0.323120 -0.503179
O18   O     O_3   0.666667 0.333333 0.749450 -0.274744
O19   O     O_3   0.333333 0.666667 0.250550 -0.266358
O20   O     O_3   0.065306 0.319771 0.438629 -0.519871
O21   O     O_3   0.679061 0.743012 0.438519 -0.520830
O22   O     O_3   0.250853 0.816602 0.452750 -0.559611
O23   O     O_R   0.658380 0.565900 0.829780 -0.492784
O24   O     O_3   0.328459 0.055306 0.554040 -0.542109
O25   O     O_3   0.747635 0.667776 0.559790 -0.514004
O26   O     O_3   0.919121 0.255230 0.558379 -0.508963
O27   O     O_3   0.891918 0.360503 0.062016 -0.535021
O28   O     O_3   0.638315 0.556526 0.056448 -0.513453
O29   O     O_3   0.420129 0.055103 0.050038 -0.512960
O30   O     O_3   0.361175 0.890889 0.937383 -0.534863
O31   O     O_3   0.561225 0.639294 0.944434 -0.512613
O32   O     O_3   0.057013 0.422124 0.949852 -0.513904
O33   O     O_R   0.092480 0.434100 0.170220 -0.511060
O34   O     O_R   0.341620 0.907520 0.170220 -0.492616
O35   O     O_R   0.565900 0.658380 0.170220 -0.494091
O36   O     O_R   0.477510 0.362730 0.824640 -0.540069
O37   O     O_R   0.637270 0.114780 0.824640 -0.539430
O38   O     O_R   0.885220 0.522490 0.824640 -0.541524

loop_
_geom_bond_atom_site_label_1
_geom_bond_atom_site_label_2
_ccdc_geom_bond_type
C40   H31   S    
C41   H35   S    
Cr6   O19   S    
C43   O32   S    
C42   H39   S    
C31   H7    S    
Cr1   O11   S    
C4    C8    S    
C28   H2    S    
C33   H11   S    
Cr1   O5    S    
C44   O3    A    
C47   O13   A    
C2    O10   A    
C42   O31   S    
Cr2   O18   S    
C6    H44   S    
C40   H33   S    
C1    O23   A    
C39   H30   S    
C26   H47   S    
C13   O21   S    
Cr6   O35   S    
C5    C17   D    
C38   H25   S    
C3    O8    A    
C31   H5    S    
Cr2   O13   S    
C40   H32   S    
C9    C13   D    
C9    H12   S    
C21   O29   S    
C24   O27   S    
C11   C17   S    
C5    H45   S    
C35   H16   S    
C15   O24   S    
C33   O22   S    
C43   H41   S    
C4    O17   A    
C18   C30   D    
C48   O14   A    
C37   O26   S    
Cr3   O38   S    
Cr5   O9    S    
C44   O33   A    
C7    C15   D    
C41   H36   S    
C37   H21   S    
C35   H17   S    
Cr3   O7    S    
C42   H40   S    
Cr1   O36   S    
C22   O28   S    
Cr2   O6    S    
C32   O21   S    
Cr5   O34   S    
C20   O30   S    
C2    O15   A    
Cr3   O18   S    
C21   C45   S    
C22   C34   S    
C5    C48   S    
C1    C19   S    
C14   O22   S    
Cr6   O4    S    
C18   C23   S    
Cr3   O23   S    
C38   O27   S    
C23   O38   A    
C24   C25   D    
C32   H10   S    
C12   O1    A    
C36   H19   S    
Cr5   O16   S    
C20   C28   D    
C34   O2    A    
Cr2   O12   S    
C7    C47   S    
C31   H6    S    
C35   O24   S    
C11   O20   S    
C3    O16   A    
Cr4   O19   S    
C25   H46   S    
C7    H34   S    
Cr4   O8    S    
C12   C20   S    
C34   O35   A    
C43   H42   S    
C12   O37   A    
Cr6   O10   S    
C10   H1    S    
C36   H20   S    
C41   H37   S    
C4    O9    A    
C29   H3    S    
C47   O5    A    
C38   H27   S    
C8    H23   S    
C24   C44   S    
C46   O7    A    
C36   O25   S    
C19   O31   S    
C19   C29   D    
C45   O4    A    
C33   H13   S    
C25   C30   S    
Cr4   O2    S    
C45   O34   A    
C8    C14   D    
C6    C46   S    
C46   O11   A    
Cr2   O37   S    
C37   H22   S    
C43   H43   S    
C39   H28   S    
Cr1   O1    S    
C41   O30   S    
C17   O26   S    
C40   O29   S    
C32   H9    S    
C37   H24   S    
C27   H48   S    
Cr3   O14   S    
C39   H29   S    
C3    C10   S    
Cr5   O19   S    
Cr4   O15   S    
C23   O12   A    
C48   O6    A    
C38   H26   S    
C30   H4    S    
C31   O20   S    
C18   O32   S    
C42   H38   S    
C21   C27   D    
C16   O25   S    
C10   C11   D    
C6    C16   D    
Cr1   O18   S    
Cr5   O3    S    
C35   H15   S    
C26   C29   S    
C22   C26   D    
C13   C16   S    
C27   C28   S    
Cr4   O33   S    
C14   C15   S    
C32   H8    S    
C39   O28   S    
Cr6   O17   S    
C2    C9    S    
C1    O36   A    
C36   H18   S    
C33   H14   S    
