data_mof_unit_30943.cif
_audit_creation_date              2012-12-10T17:54:25-0500
_audit_creation_method            fapswitch 2.2
_symmetry_space_group_name_H-M    P1
_symmetry_Int_Tables_number       1
_space_group_crystal_system       triclinic
_cell_length_a                    27.729646
_cell_length_b                    10.611359
_cell_length_c                    9.943573
_cell_angle_alpha                 90.428424
_cell_angle_beta                  90.707904
_cell_angle_gamma                 92.114785
_cell_volume                      2923.58056541

loop_
_atom_site_label
_atom_site_type_symbol
_atom_type_description
_atom_site_fract_x
_atom_site_fract_y
_atom_site_fract_z
_atom_type_partial_charge
C1    C     C_R   0.500846 0.260841 0.499667 0.852872
C2    C     C_R   0.972728 0.377710 0.512708 0.045778
C3    C     C_R   0.976262 0.609202 0.484803 0.047112
C4    C     C_R   0.406137 0.499045 0.499202 0.853928
C5    C     C_R   0.949280 0.493893 0.500038 0.075102
C6    C     C_R   0.944220 0.266711 0.535469 -0.210088
C7    C     C_R   0.894312 0.269020 0.539611 -0.128276
C8    C     C_R   0.870924 0.381933 0.522013 -0.035328
C9    C     C_R   0.898215 0.494784 0.502590 -0.050526
C10   C     C_R   0.874306 0.608520 0.485581 -0.027178
C11   C     C_R   0.823879 0.607191 0.487905 0.537317
C12   C     C_R   0.277965 0.499570 0.372727 -0.103726
C13   C     C_R   0.820550 0.384942 0.523816 0.567499
C14   C     C_R   0.722255 0.493937 0.628775 0.514573
C15   C     C_R   0.671756 0.495152 0.626222 -0.354008
C16   C     C_R   0.500972 0.739341 0.500274 0.872686
C17   C     C_R   0.672031 0.502830 0.382059 -0.196282
C18   C     C_R   0.722031 0.501695 0.384165 -0.199992
C19   C     C_R   0.747008 0.497167 0.506771 0.288899
C20   C     C_R   0.023660 0.376258 0.503535 0.047106
C21   C     C_R   0.050722 0.492182 0.495331 0.070930
C22   C     C_R   0.027347 0.608938 0.489158 0.046690
C23   C     C_R   0.252952 0.489572 0.493428 0.327586
C24   C     C_R   0.048679 0.262394 0.501348 -0.213111
C25   C     C_R   0.106048 0.719993 0.488798 -0.134232
C26   C     C_R   0.950994 0.721140 0.464738 -0.211534
C27   C     C_R   0.901016 0.720569 0.465575 -0.130604
C28   C     C_R   0.593867 0.500310 0.500825 0.864829
C29   C     C_R   0.056107 0.721925 0.488791 -0.212680
C30   C     C_R   0.585947 0.140553 0.600715 -0.175967
C31   C     C_R   0.626331 0.079044 0.647898 -0.118334
C32   C     C_R   0.626705 0.947882 0.645537 -0.081806
C33   C     C_R   0.586583 0.877857 0.596750 -0.158498
C34   C     C_R   0.101795 0.491364 0.493551 -0.051578
C35   C     C_R   0.545052 0.938813 0.550760 0.084939
C36   C     C_R   0.544902 0.070832 0.551423 0.097598
C37   C     C_R   0.503870 0.128839 0.498924 -0.079296
C38   C     C_R   0.464563 0.060585 0.444066 -0.213380
C39   C     C_R   0.464446 0.931728 0.445201 -0.183297
C40   C     C_R   0.176022 0.377767 0.494699 0.503971
C41   C     C_R   0.503798 0.871993 0.500212 -0.088257
C42   C     C_R   0.436370 0.335057 0.136603 -0.128452
C43   C     C_R   0.404908 0.253569 0.065106 -0.190123
C44   C     C_R   0.404892 0.253171 0.925822 -0.184475
C45   C     C_R   0.125558 0.376302 0.495605 -0.020680
C46   C     C_R   0.436331 0.334258 0.857094 -0.121355
C47   C     C_R   0.468623 0.418480 0.926067 0.094407
C48   C     C_R   0.468636 0.418694 0.070504 0.138639
C49   C     C_R   0.529954 0.577464 0.074504 -0.100291
C50   C     C_R   0.530288 0.578307 0.932395 0.456642
C51   C     C_R   0.179610 0.602711 0.489368 0.506095
C52   C     C_R   0.277806 0.481835 0.615930 -0.105030
C53   C     C_R   0.327929 0.484969 0.618061 -0.216865
C54   C     C_R   0.328092 0.502363 0.374377 -0.220806
C55   C     C_R   0.098645 0.262722 0.497914 -0.136549
C56   C     C_R   0.129243 0.605635 0.490037 -0.022941
C57   C     C_R   0.353420 0.495721 0.497229 -0.040123
C58   C     C_R   0.646558 0.499553 0.503017 -0.083466
H1    H     H_    0.346906 0.510303 0.279827 0.167514
H2    H     H_    0.587478 0.242437 0.601702 0.152063
H3    H     H_    0.657605 0.133356 0.684967 0.164434
H4    H     H_    0.258496 0.505648 0.278055 0.137066
H5    H     H_    0.658303 0.900257 0.680522 0.162729
H6    H     H_    0.588741 0.776400 0.593162 0.128907
H7    H     H_    0.433397 0.878215 0.404834 0.154984
H8    H     H_    0.554406 0.640667 0.130557 0.175104
H9    H     H_    0.434457 0.329914 0.243324 0.196337
H10   H     H_    0.380436 0.190216 0.118273 0.155588
H11   H     H_    0.380391 0.189497 0.870466 0.158571
H12   H     H_    0.258207 0.474240 0.709224 0.136582
H13   H     H_    0.434273 0.328038 0.750283 0.200558
H14   H     H_    0.116113 0.173038 0.497085 0.188618
H15   H     H_    0.652341 0.492609 0.720095 0.178340
H16   H     H_    0.874098 0.181406 0.556853 0.192930
H17   H     H_    0.959293 0.176225 0.553391 0.140250
H18   H     H_    0.030770 0.170634 0.499559 0.137604
H19   H     H_    0.346604 0.478993 0.713989 0.166127
H20   H     H_    0.559467 0.653072 0.776582 0.382390
H21   H     H_    0.725463 0.488345 0.824038 0.333224
H22   H     H_    0.126443 0.809087 0.488283 0.192119
H23   H     H_    0.968633 0.811078 0.445179 0.138909
H24   H     H_    0.653414 0.506337 0.285837 0.178940
H25   H     H_    0.883375 0.808834 0.450112 0.190049
H26   H     H_    0.741548 0.504227 0.290489 0.164150
H27   H     H_    0.041299 0.814245 0.491469 0.138454
H28   H     H_    0.433599 0.107388 0.402922 0.139848
N1    N     N_R   0.201670 0.489915 0.491970 -0.359484
N2    N     N_R   0.798345 0.496463 0.506745 -0.337261
N3    N     N_R   0.499540 0.498800 0.142780 -0.161217
N4    N     N_R   0.499520 0.498720 0.857170 -0.181812
O1    O     O_R   0.500000 0.316780 0.614690 -0.636750
O2    O     O_R   0.571250 0.499990 0.614680 -0.648769
O3    O     O_R   0.571240 0.499970 0.385350 -0.614973
O4    O     O_2   0.199379 0.268391 0.496648 -0.552625
O5    O     O_3   0.562628 0.661854 0.874252 -0.779111
O6    O     O_3   0.748246 0.490266 0.747918 -0.748779
O7    O     O_2   0.793855 0.277528 0.541677 -0.545411
O8    O     O_2   0.206448 0.711421 0.486698 -0.548887
O9    O     O_2   0.800426 0.715427 0.471875 -0.548318
O10   O     O_R   0.500000 0.316750 0.385360 -0.624720
O11   O     O_R   0.428760 0.500030 0.614650 -0.635419
O12   O     O_R   0.428750 0.500010 0.385320 -0.639859
O13   O     O_R   0.500000 0.683250 0.614640 -0.625942
O14   O     O_R   0.500000 0.683220 0.385310 -0.608268
Zn1   Zn    Zn3+2 0.500000 0.500020 0.653130 0.936667
Zn2   Zn    Zn3+2 0.500000 0.499980 0.346870 0.942487

loop_
_geom_bond_atom_site_label_1
_geom_bond_atom_site_label_2
_ccdc_geom_bond_type
C10   C27   A    
C34   C56   A    
C8    C13   A    
C22   C29   A    
C25   H22   S    
C31   H3    S    
C35   C36   A    
C25   C56   A    
O14   Zn2   S    
C6    H17   S    
C39   C41   A    
C31   C32   A    
C24   C55   A    
C12   C23   A    
C26   C27   A    
C38   H28   S    
C40   N1    A    
C36   C37   A    
C17   H24   S    
C30   C31   A    
C50   O5    S    
C11   O9    S    
C18   C19   A    
O1    Zn1   S    
C50   N4    A    
C20   C24   A    
C44   C46   A    
C8    C9    A    
C30   H2    S    
C4    C57   S    
C18   H26   S    
C40   O4    S    
C9    C10   A    
H20   O5    S    
C29   H27   S    
C55   H14   S    
C1    C37   S    
C17   C58   A    
C51   O8    S    
C1    O1    A    
C23   N1    S    
C21   C22   A    
O11   Zn1   S    
C39   H7    S    
C2    C6    A    
C1    O10   A    
C14   O6    S    
C16   O14   A    
C7    H16   S    
C54   H1    S    
C25   C29   A    
C40   C45   A    
C49   H8    S    
C2    C20   A    
C7    C8    A    
N4    Zn1   S    
C28   O2    A    
C19   N2    S    
C51   N1    A    
C53   C57   A    
C24   H18   S    
C21   C34   A    
C4    O12   A    
C28   O3    A    
N3    Zn2   S    
C53   H19   S    
C43   C44   A    
C5    C9    A    
C37   C38   A    
O3    Zn2   S    
C12   H4    S    
C16   O13   A    
C47   C48   A    
C11   N2    A    
C4    O11   A    
C17   C18   A    
C44   H11   S    
O13   Zn1   S    
C34   C45   A    
C42   C48   A    
C46   H13   S    
C15   H15   S    
C26   H23   S    
C48   N3    A    
C42   H9    S    
C15   C58   A    
C2    C5    A    
C42   C43   A    
C52   C53   A    
C46   C47   A    
C14   C19   A    
C3    C26   A    
C51   C56   A    
C32   H5    S    
C49   N3    A    
C3    C5    A    
C6    C7    A    
C28   C58   S    
C43   H10   S    
O10   Zn2   S    
C30   C36   A    
C32   C33   A    
C27   H25   S    
H21   O6    S    
C23   C52   A    
C38   C39   A    
C33   H6    S    
C13   N2    A    
C33   C35   A    
O12   Zn2   S    
C13   O7    S    
C35   C41   A    
C47   N4    A    
C52   H12   S    
C10   C11   A    
O2    Zn1   S    
C20   C21   A    
C45   C55   A    
C49   C50   A    
C14   C15   A    
C3    C22   A    
C16   C41   S    
C12   C54   A    
C54   C57   A    
