data_mof_unit_17552.cif
_audit_creation_date              2013-03-05T15:44:08-0500
_audit_creation_method            fapswitch 2.2
_symmetry_space_group_name_H-M    P1
_symmetry_Int_Tables_number       1
_space_group_crystal_system       triclinic
_cell_length_a                    19.489296
_cell_length_b                    11.140924
_cell_length_c                    19.740852
_cell_angle_alpha                 89.962313
_cell_angle_beta                  96.300783
_cell_angle_gamma                 89.822477
_cell_volume                      4260.39260322

loop_
_atom_site_label
_atom_site_type_symbol
_atom_site_description
_atom_site_fract_x
_atom_site_fract_y
_atom_site_fract_z
_atom_type_partial_charge
O1    O     O_R   0.783100 0.287550 0.345460 -0.469769
O2    O     O_R   0.216900 0.287550 0.654540 -0.469191
O3    O     O_R   0.283100 0.787550 0.345460 -0.469936
O4    O     O_R   0.716900 0.787550 0.654540 -0.469202
O5    O     O_R   0.760020 0.037400 0.337700 -0.539210
O6    O     O_R   0.239980 0.037400 0.662300 -0.537805
O7    O     O_R   0.260020 0.537400 0.337700 -0.539199
O8    O     O_R   0.739980 0.537400 0.662300 -0.537815
C1    C     C_R   0.726258 0.950904 0.359298 0.525457
C2    C     C_R   0.273744 0.950856 0.640701 0.526963
C3    C     C_R   0.226257 0.450905 0.359298 0.525463
C4    C     C_R   0.773736 0.450843 0.640709 0.527046
O9    O     O_R   0.666600 0.921990 0.332020 -0.452876
O10   O     O_R   0.333400 0.921990 0.667980 -0.451615
O11   O     O_R   0.166600 0.421990 0.332020 -0.452878
O12   O     O_R   0.833400 0.421990 0.667980 -0.451743
O13   O     O_R   0.557260 0.082670 0.312540 -0.442181
O14   O     O_R   0.442740 0.082670 0.687460 -0.444333
O15   O     O_R   0.057260 0.582670 0.312540 -0.442154
O16   O     O_R   0.942740 0.582670 0.687460 -0.444643
C5    C     C_R   0.536185 0.180706 0.338712 0.545292
C6    C     C_R   0.463813 0.180583 0.661285 0.541979
C7    C     C_R   0.036188 0.680709 0.338714 0.545297
C8    C     C_R   0.963819 0.680588 0.661289 0.541896
O17   O     O_R   0.548410 0.285740 0.316480 -0.534957
O18   O     O_R   0.451590 0.285740 0.683520 -0.533196
O19   O     O_R   0.048410 0.785740 0.316480 -0.534986
O20   O     O_R   0.951590 0.785740 0.683520 -0.533191
O21   O     O_R   0.680500 0.375040 0.327000 -0.481489
O22   O     O_R   0.319500 0.375040 0.673000 -0.478224
O23   O     O_R   0.180500 0.875040 0.327000 -0.481472
O24   O     O_R   0.819500 0.875040 0.673000 -0.478193
C9    C     C_R   0.724911 0.315804 0.368006 0.554906
C10   C     C_R   0.275114 0.315921 0.632094 0.555052
C11   C     C_R   0.224917 0.815823 0.368006 0.554891
C12   C     C_R   0.775112 0.815927 0.632094 0.555069
O25   O     O_R   0.780350 0.286720 0.192720 -0.481266
O26   O     O_R   0.219650 0.286720 0.807280 -0.481891
O27   O     O_R   0.280350 0.786720 0.192720 -0.481273
O28   O     O_R   0.719650 0.786720 0.807280 -0.481867
O29   O     O_R   0.757470 0.036630 0.196110 -0.492420
O30   O     O_R   0.242530 0.036630 0.803890 -0.496476
O31   O     O_R   0.257470 0.536630 0.196110 -0.492397
O32   O     O_R   0.742530 0.536630 0.803890 -0.496486
C13   C     C_R   0.721456 0.956316 0.162219 0.538262
C14   C     C_R   0.279423 0.958529 0.838834 0.537481
C15   C     C_R   0.221454 0.456322 0.162216 0.538276
C16   C     C_R   0.779422 0.458526 0.838832 0.537493
O33   O     O_R   0.663840 0.921160 0.179280 -0.492490
O34   O     O_R   0.336160 0.921160 0.820720 -0.478978
O35   O     O_R   0.163840 0.421160 0.179280 -0.492515
O36   O     O_R   0.836160 0.421160 0.820720 -0.478944
O37   O     O_R   0.554710 0.081900 0.170950 -0.457261
O38   O     O_R   0.445290 0.081900 0.829050 -0.449608
O39   O     O_R   0.054710 0.581900 0.170950 -0.457287
O40   O     O_R   0.945290 0.581900 0.829050 -0.449595
C17   C     C_R   0.535694 0.179694 0.139615 0.577148
C18   C     C_R   0.463843 0.179627 0.860506 0.557318
C19   C     C_R   0.035692 0.679694 0.139616 0.577195
C20   C     C_R   0.963844 0.679627 0.860506 0.557297
O41   O     O_R   0.545650 0.284910 0.163740 -0.498165
O42   O     O_R   0.454350 0.284910 0.836260 -0.483556
O43   O     O_R   0.045650 0.784910 0.163740 -0.498191
O44   O     O_R   0.954350 0.784910 0.836260 -0.483524
O45   O     O_R   0.677950 0.374280 0.185410 -0.446991
O46   O     O_R   0.322050 0.374280 0.814590 -0.450146
O47   O     O_R   0.177950 0.874280 0.185410 -0.446979
O48   O     O_R   0.822050 0.874280 0.814590 -0.450170
C21   C     C_R   0.737875 0.362691 0.165584 0.594322
C22   C     C_R   0.262851 0.360161 0.835410 0.576810
C23   C     C_R   0.237876 0.862695 0.165586 0.594353
C24   C     C_R   0.762853 0.860155 0.835413 0.576806
Cr1   Cr    Cr6+3 0.765780 0.160710 0.267420 1.080851
Cr2   Cr    Cr6+3 0.234220 0.160710 0.732580 1.078914
Cr3   Cr    Cr6+3 0.265780 0.660710 0.267420 1.080854
Cr4   Cr    Cr6+3 0.734220 0.660710 0.732580 1.078923
Cr5   Cr    Cr6+3 0.612200 0.009560 0.248850 1.141532
Cr6   Cr    Cr6+3 0.387800 0.009560 0.751150 1.149991
Cr7   Cr    Cr6+3 0.112200 0.509560 0.248850 1.141537
Cr8   Cr    Cr6+3 0.887800 0.509560 0.751150 1.149869
Cr9   Cr    Cr6+3 0.616030 0.323720 0.248510 1.096389
Cr10  Cr    Cr6+3 0.383970 0.323720 0.751490 1.103483
Cr11  Cr    Cr6+3 0.116030 0.823720 0.248510 1.096379
Cr12  Cr    Cr6+3 0.883970 0.823720 0.751490 1.103513
O49   O     O_3   0.664670 0.164660 0.254930 -0.326048
O50   O     O_3   0.335330 0.164660 0.745070 -0.331249
O51   O     O_3   0.164670 0.664660 0.254930 -0.326030
O52   O     O_3   0.835330 0.664660 0.745070 -0.331233
C25   C     C_1   0.485348 0.174602 0.594166 0.064041
C26   C     C_1   0.514591 0.174808 0.405808 0.063598
C27   C     C_1   0.985370 0.674639 0.594176 0.064190
C28   C     C_1   0.014605 0.674829 0.405815 0.063597
C29   C     C_1   0.504266 0.172762 0.464930 0.030075
C30   C     C_1   0.495641 0.172657 0.535035 0.030603
C31   C     C_1   0.004289 0.672808 0.464940 0.030217
C32   C     C_1   0.995669 0.672717 0.535046 0.030975
C33   C     C_3   0.689526 0.479598 0.534143 -0.267852
C34   C     C_3   0.310426 0.479075 0.465794 -0.267978
C35   C     C_3   0.189540 0.979604 0.534137 -0.267781
C36   C     C_3   0.810418 0.979096 0.465795 -0.268013
H1    H     H_    0.681843 0.573696 0.548339 0.158998
H2    H     H_    0.317974 0.573129 0.451508 0.158260
H3    H     H_    0.181864 0.073712 0.548320 0.158965
H4    H     H_    0.817944 0.073163 0.451522 0.157983
H5    H     H_    0.642330 0.440318 0.552404 0.142678
H6    H     H_    0.357655 0.439451 0.447534 0.142094
H7    H     H_    0.142354 0.940328 0.552422 0.142641
H8    H     H_    0.857650 0.939502 0.447526 0.142088
C37   C     C_3   0.683842 0.460817 0.456206 -0.218445
C38   C     C_3   0.316184 0.460272 0.543732 -0.218489
C39   C     C_3   0.183826 0.960799 0.456204 -0.218396
C40   C     C_3   0.816186 0.960272 0.543731 -0.218563
H9    H     H_    0.629358 0.439561 0.437084 0.156275
H10   H     H_    0.370674 0.438347 0.562816 0.156188
H11   H     H_    0.129345 0.939469 0.437109 0.156140
H12   H     H_    0.870675 0.938323 0.562805 0.156109
H13   H     H_    0.697373 0.543135 0.430283 0.197052
H14   H     H_    0.302730 0.542781 0.569594 0.197169
H15   H     H_    0.197302 0.043129 0.430261 0.197145
H16   H     H_    0.802750 0.042781 0.569603 0.197136
H17   H     H_    0.335969 0.026721 0.536428 0.126447
H18   H     H_    0.663755 0.027303 0.463265 0.126123
H19   H     H_    0.835833 0.526796 0.536349 0.126396
H20   H     H_    0.163780 0.527326 0.463279 0.126097
C41   C     C_3   0.822600 0.430619 0.532454 0.103752
C42   C     C_3   0.177333 0.431108 0.467501 0.104139
C43   C     C_3   0.322638 0.930580 0.532456 0.103690
C44   C     C_3   0.677327 0.931094 0.467496 0.104147
C45   C     C_3   0.733723 0.280072 0.564306 -0.219764
C46   C     C_3   0.266427 0.279879 0.435901 -0.219662
C47   C     C_3   0.233770 0.780082 0.564301 -0.219750
C48   C     C_3   0.766438 0.779886 0.435900 -0.219727
C49   C     C_3   0.755448 0.411529 0.569893 -0.016652
C50   C     C_3   0.244566 0.411503 0.430143 -0.015677
C51   C     C_3   0.255469 0.911544 0.569881 -0.016632
C52   C     C_3   0.744566 0.911506 0.430142 -0.015543
H21   H     H_    0.774210 0.221195 0.588940 0.202501
H22   H     H_    0.226052 0.221309 0.411235 0.202213
H23   H     H_    0.274296 0.721256 0.588924 0.202439
H24   H     H_    0.726072 0.721315 0.411216 0.202123
H25   H     H_    0.688311 0.264769 0.592765 0.172910
H26   H     H_    0.311936 0.264161 0.407577 0.172375
H27   H     H_    0.188368 0.764741 0.592768 0.172886
H28   H     H_    0.811960 0.764162 0.407594 0.172212
C53   C     C_3   0.732556 0.356648 0.440466 -0.003028
C54   C     C_3   0.267452 0.356719 0.559616 -0.003078
C55   C     C_3   0.232570 0.856685 0.440459 -0.002822
C56   C     C_3   0.767447 0.856730 0.559615 -0.002983
C57   C     C_3   0.808854 0.396561 0.458558 0.128456
C58   C     C_3   0.191162 0.397491 0.541508 0.127917
C59   C     C_3   0.308856 0.896701 0.458528 0.128182
C60   C     C_3   0.691159 0.897503 0.541508 0.127872
C61   C     C_3   0.714198 0.251586 0.487639 -0.287907
C62   C     C_3   0.285791 0.251324 0.512622 -0.287486
C63   C     C_3   0.214247 0.751599 0.487635 -0.287733
C64   C     C_3   0.785774 0.751331 0.512623 -0.287508
H29   H     H_    0.657797 0.233705 0.478668 0.127763
H30   H     H_    0.342167 0.232666 0.521714 0.126934
H31   H     H_    0.157849 0.733678 0.478671 0.127649
H32   H     H_    0.842143 0.732619 0.521733 0.126888
H33   H     H_    0.739081 0.170307 0.475159 0.114949
H34   H     H_    0.260740 0.170516 0.525209 0.115001
H35   H     H_    0.239144 0.670341 0.475148 0.115046
H36   H     H_    0.760670 0.670574 0.525195 0.114936
H37   H     H_    0.843060 0.319391 0.449398 0.217840
H38   H     H_    0.156903 0.320915 0.550945 0.219028
H39   H     H_    0.343105 0.819658 0.449271 0.218243
H40   H     H_    0.656897 0.820936 0.550954 0.219026
C65   C     C_3   0.496550 0.306617 0.961002 0.068935
C66   C     C_3   0.521201 0.304537 0.035945 0.075510
C67   C     C_3   0.996590 0.806615 0.960995 0.068913
C68   C     C_3   0.021234 0.804527 0.035940 0.075512
H41   H     H_    0.537652 0.345303 0.932375 0.187723
H42   H     H_    0.487393 0.364558 0.063154 0.198899
H43   H     H_    0.037709 0.845249 0.932369 0.187680
H44   H     H_    0.987438 0.864582 0.063142 0.198899
H45   H     H_    0.373687 0.160437 0.953396 0.128378
H46   H     H_    0.619845 0.105761 0.048392 0.141765
H47   H     H_    0.873681 0.660545 0.953396 0.128368
H48   H     H_    0.119824 0.605655 0.048399 0.141785
H49   H     H_    0.404221 0.194669 0.068137 0.168973
H50   H     H_    0.594743 0.144768 0.932721 0.171221
H51   H     H_    0.904223 0.694774 0.068135 0.168959
H52   H     H_    0.094738 0.644672 0.932727 0.171195
C69   C     C_3   0.424183 0.117447 0.970427 -0.186164
C70   C     C_3   0.564719 0.087825 0.031205 -0.169069
C71   C     C_3   0.924165 0.617511 0.970429 -0.186186
C72   C     C_3   0.064692 0.587771 0.031209 -0.169043
C73   C     C_3   0.550761 0.098499 0.952803 0.053440
C74   C     C_3   0.440306 0.128763 0.048759 0.046273
C75   C     C_3   0.050741 0.598444 0.952808 0.053441
C76   C     C_3   0.940289 0.628829 0.048761 0.046261
C77   C     C_3   0.483553 0.174373 0.934297 -0.033978
C78   C     C_3   0.515747 0.174059 0.065736 -0.028639
C79   C     C_3   0.983553 0.674375 0.934297 -0.033983
C80   C     C_3   0.015745 0.674059 0.065736 -0.028628
H53   H     H_    0.556202 0.994030 0.047539 0.233663
H54   H     H_    0.418357 0.021489 0.955543 0.221748
H55   H     H_    0.056145 0.493986 0.047545 0.233674
H56   H     H_    0.918311 0.521552 0.955549 0.221720
C81   C     C_1   0.768364 0.442327 0.909268 0.016890
C82   C     C_1   0.234287 0.434972 0.092908 0.018703
C83   C     C_1   0.268367 0.942337 0.909271 0.016881
C84   C     C_1   0.734296 0.934952 0.092914 0.018689
C85   C     C_1   0.759202 0.428294 0.040991 0.121152
C86   C     C_1   0.244282 0.416593 0.961840 0.079747
C87   C     C_1   0.259208 0.928312 0.040995 0.121144
C88   C     C_1   0.744297 0.916561 0.961849 0.079712
C89   C     C_1   0.763955 0.436955 0.969876 0.040395
C90   C     C_1   0.239515 0.426157 0.032706 0.027872
C91   C     C_1   0.263960 0.936970 0.969880 0.040387
C92   C     C_1   0.739529 0.926127 0.032714 0.027825
C93   C     C_1   0.751117 0.407991 0.099858 0.139920
C94   C     C_1   0.251522 0.399522 0.902606 0.095601
C95   C     C_1   0.251123 0.908004 0.099862 0.139937
C96   C     C_1   0.751532 0.899499 0.902614 0.095582
N1    N     N_R   0.884739 0.363699 0.562014 0.098194
O53   O     O_R   0.942514 0.420914 0.576525 -0.263404
O54   O     O_R   0.886557 0.246873 0.562642 -0.371957
N2    N     N_R   0.115460 0.363967 0.438125 0.097870
O55   O     O_R   0.057684 0.421178 0.422570 -0.263086
O56   O     O_R   0.113891 0.247165 0.438345 -0.373786
N3    N     N_R   0.384689 0.863378 0.561989 0.098059
O57   O     O_R   0.442282 0.920522 0.577495 -0.263225
O58   O     O_R   0.386569 0.746568 0.562100 -0.372358
N4    N     N_R   0.615466 0.863918 0.438123 0.097819
O59   O     O_R   0.557686 0.921104 0.422543 -0.263335
O60   O     O_R   0.613913 0.747115 0.438363 -0.373805
N5    N     N_R   0.436139 0.386865 0.949393 0.077026
O61   O     O_R   0.384674 0.374761 0.985314 -0.422514
O62   O     O_R   0.440552 0.485277 0.914564 -0.255526
N6    N     N_R   0.590868 0.354523 0.046062 0.056083
O63   O     O_R   0.639283 0.306504 0.014685 -0.448241
O64   O     O_R   0.599008 0.463431 0.069324 -0.295497
N7    N     N_R   0.936206 0.886929 0.949378 0.077080
O65   O     O_R   0.884727 0.874889 0.985290 -0.422436
O66   O     O_R   0.940656 0.985327 0.914542 -0.255474
N8    N     N_R   0.090913 0.854461 0.046060 0.056061
O67   O     O_R   0.139328 0.806369 0.014708 -0.448237
O68   O     O_R   0.099069 0.963393 0.069287 -0.295585
Cl1   Cl    Cl    0.548351 0.950666 0.916100 -0.550437
Cl2   Cl    Cl    0.424971 0.988256 0.089109 -0.593805
Cl3   Cl    Cl    0.048294 0.450603 0.916111 -0.550396
Cl4   Cl    Cl    0.924917 0.488345 0.089119 -0.593872
Cl5   Cl    Cl    0.335078 0.015156 0.404965 -0.623764
Cl6   Cl    Cl    0.664940 0.016380 0.594863 -0.626066
Cl7   Cl    Cl    0.835165 0.514907 0.404956 -0.623039
Cl8   Cl    Cl    0.164940 0.516359 0.594869 -0.625972

loop_
_geom_bond_atom_site_label_1
_geom_bond_atom_site_label_2
_geom_bond_distance
_ccdc_geom_bond_type
C48   H28   1.112666 S    
Cr6   O50   2.001947 S    
C35   H3    1.099372 S    
C67   C68   1.504657 S    
O4    C12   1.302223 A    
C18   O42   1.271858 A    
C29   C30   1.412304 S    
C34   C38   1.544408 S    
O39   C19   1.285825 A    
O20   Cr12  2.025246 S    
C42   C58   1.503178 S    
C65   C66   1.504656 S    
O37   Cr5   1.970878 S    
C31   C32   1.412304 S    
C23   C95   1.441617 S    
C33   C49   1.586836 S    
H51   C76   1.111889 S    
C38   H14   1.096767 S    
N2    O56   1.301753 A    
O23   Cr11  1.970978 S    
C69   C74   1.549086 S    
C67   N7    1.473819 S    
O7    C3    1.268203 A    
C68   H44   1.115912 S    
C17   C78   1.468984 S    
O36   Cr8   2.043709 S    
C72   C75   1.546174 S    
C76   Cl4   1.796591 S    
C76   C80   1.557383 S    
H20   C42   1.104133 S    
C43   C51   1.586925 S    
C62   H30   1.112600 S    
O25   C21   1.259497 A    
C44   C52   1.587188 S    
C57   H37   1.113275 S    
O26   Cr2   2.078029 S    
O45   C21   1.278002 A    
H19   C41   1.103641 S    
H47   C71   1.111405 S    
C58   H38   1.113087 S    
O21   C9    1.296899 A    
C36   H4    1.099471 S    
H45   C69   1.111386 S    
C9    C53   1.493284 S    
C39   H15   1.096811 S    
O30   C14   1.279223 A    
C25   C30   1.206099 T    
O32   Cr4   1.965924 S    
C1    O9    1.269133 A    
O44   Cr12  2.088137 S    
C53   C57   1.556979 S    
O25   Cr1   2.077908 S    
H48   C72   1.109388 S    
C43   C59   1.503253 S    
C27   C32   1.206112 T    
C54   C58   1.556820 S    
C3    O11   1.269133 A    
C44   C60   1.503190 S    
O11   Cr7   2.093069 S    
C4    O12   1.267008 A    
O28   Cr4   2.078029 S    
C34   H2    1.099463 S    
C66   N6    1.462472 S    
N7    O65   1.297696 A    
C85   C93   1.210995 T    
C70   H53   1.111697 S    
H50   C73   1.111166 S    
C7    O19   1.281647 A    
C69   H54   1.111742 S    
C15   O35   1.270163 A    
C55   C63   1.561933 S    
C87   C95   1.211002 T    
Cr4   O52   1.959531 S    
C60   Cl6   1.800081 S    
O2    Cr2   2.089076 S    
C37   H9    1.113459 S    
C33   H5    1.114719 S    
O2    C10   1.302240 A    
O42   Cr10  2.088137 S    
Cr5   O49   2.007545 S    
C88   C96   1.208193 T    
Cr7   O51   2.007545 S    
Cr8   O52   2.001947 S    
C87   C91   1.420280 S    
N7    O66   1.301874 A    
C83   C91   1.210360 T    
C46   C50   1.526462 S    
C82   C90   1.207921 T    
O8    C4    1.265924 A    
O34   Cr6   2.043709 S    
C81   C89   1.210354 T    
N2    O55   1.299173 A    
C60   H40   1.113085 S    
C42   N2    1.484115 S    
O6    Cr2   1.964808 S    
O9    Cr5   2.093069 S    
C5    C26   1.434664 S    
O31   Cr3   1.967929 S    
O24   Cr12  1.968125 S    
N8    O68   1.301636 A    
C45   C61   1.552766 S    
C36   H8    1.114714 S    
C74   Cl2   1.796580 S    
O30   Cr2   1.965924 S    
O22   C10   1.298113 A    
C63   H31   1.112670 S    
O48   Cr12  1.910996 S    
Cr12  O52   2.009795 S    
C64   H32   1.112600 S    
C21   C93   1.441605 S    
C2    C51   1.471634 S    
N3    O57   1.299287 A    
C67   C79   1.576964 S    
C2    O10   1.266962 A    
C3    C50   1.471253 S    
C40   H16   1.096770 S    
O16   Cr8   1.921007 S    
C45   H25   1.112629 S    
C65   C77   1.576944 S    
C72   H55   1.111714 S    
C63   H35   1.067518 S    
N1    O53   1.300046 A    
Cr10  O50   2.009795 S    
C67   H43   1.117163 S    
C16   C81   1.441551 S    
C28   C31   1.206110 T    
O13   C5    1.293485 A    
O40   C20   1.286783 A    
C15   C82   1.437458 S    
C61   H33   1.067539 S    
O48   C24   1.276683 A    
O12   Cr8   2.097136 S    
C22   C94   1.437051 S    
C37   H13   1.096806 S    
O15   C7    1.293509 A    
O5    C1    1.268198 A    
N5    O61   1.297666 A    
C39   C55   1.550158 S    
O46   Cr10  1.910996 S    
O39   Cr7   1.970878 S    
H49   C74   1.111872 S    
C86   C90   1.416232 S    
C33   H1    1.099361 S    
O45   Cr9   1.912715 S    
C54   C62   1.561635 S    
C85   C89   1.420271 S    
C44   N4    1.484114 S    
C48   C52   1.526474 S    
Cr11  O51   2.004461 S    
C35   C39   1.544711 S    
C84   C92   1.207915 T    
O13   Cr5   1.918891 S    
C13   O33   1.270167 A    
C58   Cl8   1.800111 S    
H52   C75   1.111185 S    
C35   C51   1.586851 S    
C46   C62   1.552624 S    
C11   C55   1.493190 S    
O47   Cr11  1.912715 S    
Cr2   O50   1.959531 S    
C6    C25   1.434646 S    
O15   Cr7   1.918891 S    
O35   Cr7   2.041572 S    
C42   C50   1.587156 S    
C71   C76   1.549089 S    
O18   Cr10  2.025246 S    
C41   C57   1.503101 S    
C45   C49   1.526488 S    
Cr3   O51   1.959249 S    
O26   C22   1.260540 A    
C24   C96   1.437041 S    
O21   Cr9   1.970978 S    
C36   C40   1.544393 S    
N4    O60   1.301756 A    
C4    C49   1.471603 S    
O8    Cr4   1.964808 S    
C73   Cl1   1.798426 S    
C8    O20   1.282065 A    
O23   C11   1.296864 A    
C68   C80   1.576024 S    
C48   H24   1.096177 S    
O3    C11   1.300725 A    
C46   H22   1.096163 S    
C8    C27   1.434635 S    
O24   C12   1.298106 A    
C38   H10   1.113471 S    
C40   H12   1.113471 S    
C47   H27   1.112625 S    
O3    Cr3   2.091861 S    
C26   C29   1.206111 T    
O14   Cr6   1.921007 S    
O38   C18   1.286780 A    
C41   C49   1.586855 S    
C65   N5    1.473764 S    
C5    O17   1.281675 A    
N8    O67   1.298435 A    
C14   C83   1.441561 S    
O37   C17   1.285820 A    
O22   Cr10  1.968125 S    
O28   C24   1.260542 A    
C71   C79   1.560414 S    
N6    O64   1.301599 A    
O14   C6    1.293910 A    
C19   O43   1.272942 A    
C70   C78   1.560956 S    
O5    Cr1   1.964018 S    
C37   C53   1.550212 S    
C56   C60   1.556807 S    
C69   C77   1.560386 S    
O17   Cr9   2.026585 S    
C34   H6    1.114714 S    
C62   H34   1.067548 S    
O6    C2    1.265957 A    
O7    Cr3   1.964018 S    
N3    O58   1.301769 A    
H18   C44   1.104127 S    
C17   O41   1.272941 A    
C66   H42   1.115899 S    
C43   N3    1.483906 S    
C19   C80   1.468991 S    
N1    O54   1.301939 A    
C35   H7    1.114713 S    
C14   O34   1.268085 A    
C18   C77   1.466247 S    
C47   C51   1.526389 S    
C47   C63   1.552735 S    
O40   Cr8   1.974539 S    
O29   C13   1.281589 A    
C71   H56   1.111760 S    
C20   O44   1.271855 A    
O1    Cr1   2.091861 S    
C75   Cl3   1.798452 S    
C70   C73   1.546184 S    
C66   C78   1.576006 S    
C33   C37   1.544772 S    
C53   C61   1.561894 S    
Cr1   O49   1.959249 S    
N5    O62   1.301847 A    
O41   Cr9   2.090350 S    
C64   H36   1.067492 S    
C40   C56   1.550157 S    
C10   C54   1.492611 S    
C65   H41   1.117135 S    
C86   C94   1.208199 T    
O46   C22   1.276692 A    
C12   C56   1.492626 S    
C13   C84   1.437449 S    
C59   H39   1.113152 S    
C55   C59   1.557044 S    
C88   C92   1.416219 S    
N6    O63   1.298383 A    
C48   C64   1.552588 S    
H17   C43   1.103747 S    
O33   Cr5   2.041572 S    
O47   C23   1.278013 A    
C34   C50   1.586802 S    
O10   Cr6   2.097136 S    
C61   H29   1.112669 S    
C46   H26   1.112651 S    
C75   C79   1.565740 S    
O4    Cr4   2.089076 S    
C47   H23   1.096227 S    
C59   Cl5   1.800487 S    
C74   C78   1.557382 S    
O29   Cr1   1.967929 S    
O19   Cr11  2.026585 S    
H46   C70   1.109378 S    
C1    C52   1.471236 S    
C73   C77   1.565704 S    
C16   O36   1.268083 A    
C45   H21   1.096136 S    
C72   C80   1.560978 S    
C57   Cl7   1.800689 S    
N4    O59   1.299183 A    
C6    O18   1.282115 A    
O43   Cr11  2.090350 S    
C36   C52   1.586793 S    
O27   C23   1.259496 A    
C7    C28   1.434661 S    
O1    C9    1.300778 A    
C39   H11   1.113457 S    
C56   C64   1.561590 S    
C38   C54   1.550165 S    
O31   C15   1.281592 A    
O16   C8    1.293963 A    
O27   Cr3   2.077908 S    
Cr9   O49   2.004461 S    
O32   C16   1.279222 A    
C20   C79   1.466246 S    
C41   N1    1.483808 S    
O38   Cr6   1.974539 S    
C68   N8    1.462469 S    
