data_mof_unit_68549.cif
_audit_creation_date              2013-03-05T15:58:58-0500
_audit_creation_method            fapswitch 2.2
_symmetry_space_group_name_H-M    P1
_symmetry_Int_Tables_number       1
_space_group_crystal_system       triclinic
_cell_length_a                    8.190731
_cell_length_b                    12.824441
_cell_length_c                    14.911135
_cell_angle_alpha                 96.690363
_cell_angle_beta                  97.738674
_cell_angle_gamma                 98.64187
_cell_volume                      1519.38321579

loop_
_atom_site_label
_atom_site_type_symbol
_atom_site_description
_atom_site_fract_x
_atom_site_fract_y
_atom_site_fract_z
_atom_type_partial_charge
P1    P     P_3+3 0.998730 0.403530 0.291970 0.474720
O1    O     O_2   0.827880 0.435260 0.277750 -0.367826
O2    O     O_3   0.100280 0.438960 0.391170 -0.415282
O3    O     O_3   0.625580 0.634130 0.333250 -0.350305
O4    O     O_2   0.713677 0.552691 0.178228 -0.372717
O5    O     O_3   0.953536 0.264646 0.272423 -0.538726
O6    O     O_3   0.651214 0.742729 0.179550 -0.483192
H1    H     H_    0.521594 0.851650 0.234867 0.131774
C1    C     C_3   0.528372 0.862414 0.090578 -0.820294
H2    H     H_    0.444673 0.922511 0.093308 0.266005
H3    H     H_    0.657937 0.903421 0.092874 0.315084
P2    P     P_3+3 0.687380 0.751030 0.571310 0.485125
P3    P     P_3+3 0.102154 0.828674 0.380904 0.484752
O7    O     O_2   0.857130 0.766340 0.543890 -0.354515
O8    O     O_3   0.056550 0.691050 0.379010 -0.362708
O9    O     O_2   0.995921 0.879649 0.445938 -0.372747
O10   O     O_3   0.765553 0.790697 0.688355 -0.609679
O11   O     O_3   0.019504 0.858109 0.274179 -0.456265
C2    C     C_3   0.115363 0.820591 0.210482 0.255148
H4    H     H_    0.108575 0.732749 0.206811 0.047910
H5    H     H_    0.246503 0.861347 0.230346 0.032541
C3    C     C_3   0.051021 0.845267 0.115539 -0.040049
H6    H     H_    0.917914 0.807474 0.094684 0.166844
C4    C     C_3   0.231614 0.779284 0.649066 0.410444
H7    H     H_    0.332034 0.758390 0.611854 0.002433
H8    H     H_    0.114445 0.748531 0.603465 0.174624
C5    C     C_3   0.248251 0.899421 0.669255 -0.894464
H9    H     H_    0.367458 0.932904 0.714655 0.230329
H10   H     H_    0.246613 0.934132 0.604626 0.242478
H11   H     H_    0.142861 0.920695 0.703238 0.282889
Ba1   Ba    Ba6+2 0.843750 0.550210 0.455600 1.611114
C6    C     C_3   0.945772 0.225222 0.355592 0.260420
H12   H     H_    0.833730 0.245348 0.382351 0.085536
H13   H     H_    0.056749 0.257863 0.407096 0.118374
C7    C     C_3   0.937254 0.105728 0.339205 -0.061291
H14   H     H_    0.042136 0.085570 0.304164 0.194270
H15   H     H_    0.944879 0.072724 0.404631 0.124139
C8    C     C_3   0.655227 0.753627 0.745642 0.827891
H16   H     H_    0.526823 0.735877 0.710948 0.018409
C9    C     C_3   0.662477 0.839437 0.826662 -1.004486
H17   H     H_    0.792759 0.865110 0.862722 0.287732
H18   H     H_    0.581250 0.809412 0.875139 0.242968
H19   H     H_    0.615044 0.908447 0.801255 0.222711
P4    P     P_3+3 0.190990 0.596560 0.708040 0.491831
O12   O     O_2   0.361830 0.564780 0.722310 -0.368190
O13   O     O_3   0.089430 0.561130 0.608830 -0.400864
O14   O     O_3   0.564130 0.365960 0.666760 -0.317350
O15   O     O_3   0.236466 0.735952 0.731324 -0.570697
P5    P     P_3+3 0.091298 0.171414 0.623852 0.437695
O16   O     O_3   0.601940 0.368240 0.453770 -0.396163
O17   O     O_3   0.133170 0.309040 0.621000 -0.401843
O18   O     O_2   0.210253 0.121105 0.566302 -0.386605
O19   O     O_3   0.156866 0.145660 0.734687 -0.507479
Ba2   Ba    Ba6+2 0.346090 0.449880 0.544410 1.599238
P6    P     P_3+3 0.587950 0.619074 0.213957 0.484691
C10   C     C_3   0.516306 0.798558 0.170177 0.411964
H20   H     H_    0.391934 0.747715 0.155656 -0.028266
H21   H     H_    0.490487 0.809188 0.024644 0.206860
O20   O     O_3   0.587780 0.631850 0.546230 -0.359323
C11   C     C_3   0.426427 0.290175 0.266790 0.462715
H22   H     H_    0.315864 0.317143 0.291560 0.061739
H23   H     H_    0.535018 0.355715 0.284210 0.116937
C12   C     C_3   0.390180 0.263614 0.163046 -0.890916
H24   H     H_    0.261334 0.218968 0.141405 0.292603
H25   H     H_    0.400268 0.337762 0.131217 0.190566
H26   H     H_    0.481445 0.215759 0.138023 0.289569
P7    P     P_3+3 0.507367 0.233453 0.424361 0.443803
O21   O     O_2   0.332590 0.233690 0.456160 -0.397524
O22   O     O_3   0.461488 0.199641 0.305347 -0.517184
H27   H     H_    0.124321 0.810719 0.065576 0.055177
C13   C     C_3   0.132642 0.230320 0.797540 0.476786
H28   H     H_    0.215762 0.304840 0.791055 0.148251
H29   H     H_    0.001181 0.243301 0.786485 -0.010061
C14   C     C_3   0.174439 0.204721 0.894379 -0.909116
H30   H     H_    0.308254 0.197347 0.909431 0.288438
H31   H     H_    0.149294 0.269290 0.944335 0.211705
H32   H     H_    0.097229 0.128560 0.902576 0.276435
P8    P     P_3+3 0.607724 0.367472 0.784044 0.522845
C15   C     C_3   0.629694 0.167186 0.768690 0.416835
H33   H     H_    0.717164 0.200562 0.724307 0.029498
O23   O     O_2   0.492658 0.437977 0.826383 -0.361669
O24   O     O_3   0.534274 0.239169 0.805765 -0.522793
H34   H     H_    0.542899 0.100168 0.725043 0.110600
H35   H     H_    0.811221 0.189565 0.892273 0.264733
C16   C     C_3   0.727192 0.123782 0.845926 -1.028108
H36   H     H_    0.804414 0.068036 0.817246 0.246580
H37   H     H_    0.639932 0.081903 0.886099 0.291065
C17   C     C_R   0.831292 0.421387 0.827932 0.214538
C18   C     C_R   0.898705 0.431749 0.921282 -0.011479
C19   C     C_R   0.040076 0.448033 0.108648 -0.031382
C20   C     C_R   0.877910 0.392388 0.075807 -0.062687
C21   C     C_R   0.807383 0.386618 0.984703 -0.193507
C22   C     C_R   0.109849 0.461123 0.202873 0.259154
H38   H     H_    0.802378 0.352514 0.119676 0.175661
H39   H     H_    0.681177 0.343910 0.964529 0.176882
C23   C     C_R   0.273456 0.514525 0.230500 -0.515193
C24   C     C_R   0.086294 0.526514 0.795118 0.253127
C25   C     C_R   0.156523 0.536355 0.889083 -0.054369
C26   C     C_R   0.063853 0.486371 0.951562 0.027391
C27   C     C_R   0.319035 0.590775 0.922174 -0.071973
C28   C     C_R   0.393936 0.588163 0.011041 -0.180715
C29   C     C_R   0.302733 0.543588 0.074606 -0.032190
C30   C     C_R   0.135283 0.493065 0.045119 0.024734
C31   C     C_R   0.372032 0.552092 0.167708 0.131186
C32   C     C_R   0.931474 0.460690 0.765699 -0.377317
H40   H     H_    0.523605 0.624546 0.029561 0.191928
H41   H     H_    0.393670 0.633359 0.879623 0.174827
H42   H     H_    0.327039 0.523926 0.301958 0.176373
H43   H     H_    0.882457 0.446670 0.693482 0.187333
C33   C     C_R   0.770738 0.180443 0.538004 -0.524535
C34   C     C_R   0.425434 0.810425 0.459738 -0.445290
C35   C     C_R   0.389286 0.986974 0.430272 -0.165920
C36   C     C_R   0.325478 0.879183 0.423746 0.130921
C37   C     C_R   0.583427 0.849085 0.511410 0.243955
C38   C     C_R   0.648551 0.960356 0.521436 -0.036079
C39   C     C_R   0.550428 0.029347 0.478287 -0.006509
C40   C     C_R   0.614541 0.139588 0.486286 0.283456
C41   C     C_R   0.871425 0.113826 0.576336 0.192335
C42   C     C_R   0.808944 0.004924 0.570996 -0.212239
H44   H     H_    0.308793 0.036985 0.399983 0.171989
H45   H     H_    0.888713 0.956296 0.603692 0.191535
H46   H     H_    0.819147 0.264637 0.543561 0.166758
H47   H     H_    0.374241 0.726575 0.453398 0.159910
Br1   Br    Br    0.728465 0.044282 0.264251 -0.460700
N1    N     N_R   0.701576 0.656841 0.774694 0.229364
O25   O     O_R   0.753613 0.649466 0.859822 -0.458285
O26   O     O_R   0.695467 0.577152 0.711835 -0.369251
N2    N     N_R   0.069361 0.960058 0.114207 0.275794
O27   O     O_R   0.944478 0.001895 0.079364 -0.370142
O28   O     O_R   0.214856 0.019846 0.139888 -0.406514

loop_
_geom_bond_atom_site_label_1
_geom_bond_atom_site_label_2
_geom_bond_distance
_ccdc_geom_bond_type
C26   C30   1.425823 A    
C12   H25   1.108341 S    
C28   C29   1.404217 A    
C5    H10   1.106939 S    
O5    C6    1.398330 S    
C2    H4    1.114056 S    
C4    C5    1.516805 S    
O6    P6    1.749503 S    
O7    Ba1   2.906438 S    
N2    O27   1.300330 A    
H1    C10   1.105804 S    
C37   C38   1.429432 A    
C16   H36   1.109744 S    
C39   C40   1.417565 A    
O16   Ba2   2.899449 S    
C14   H31   1.109865 S    
P3    O11   1.749267 S    
C18   C26   1.414702 A    
C11   C12   1.523269 S    
C7    Br1   1.915663 S    
C7    H15   1.105684 S    
C4    H8    1.089467 S    
O11   C2    1.399270 S    
C8    H16   1.086110 S    
O2    Ba2   2.810006 S    
Ba2   O21   2.906763 S    
C38   C39   1.431712 A    
P1    Ba1   3.403716 S    
C10   H20   1.103568 S    
C11   H23   1.107835 S    
P1    O1    1.510015 D    
Ba1   O20   2.900196 S    
C41   C42   1.402522 A    
P2    O20   1.597306 S    
C9    H19   1.104320 S    
C7    H14   1.110843 S    
P5    O17   1.753299 S    
Ba1   O13   2.809261 S    
P2    O10   1.763247 S    
C1    H2    1.106631 S    
C24   C32   1.398312 A    
C16   H37   1.110418 S    
C23   H42   1.081994 S    
C12   H26   1.110986 S    
C5    H11   1.110278 S    
C33   C41   1.391140 A    
O6    C10   1.404514 S    
C33   C40   1.394528 A    
C35   C36   1.389738 A    
P4    O13   1.576465 S    
C24   C25   1.424746 A    
P2    C37   1.866189 S    
Ba2   O20   2.819233 S    
C42   H45   1.077500 S    
C14   H30   1.109269 S    
C34   H47   1.082235 S    
P7    O21   1.567783 D    
C4    O15   1.402563 S    
C6    C7    1.512940 S    
C2    C3    1.528305 S    
C4    H7    1.100321 S    
C20   C21   1.391765 A    
C35   H44   1.079068 S    
P6    C31   1.848821 S    
C14   H32   1.109897 S    
C21   H39   1.080166 S    
P1    O5    1.745328 S    
C11   H22   1.109301 S    
P1    O2    1.576311 S    
C6    H13   1.101825 S    
C29   C31   1.412519 A    
C15   O24   1.408166 S    
C1    H3    1.105554 S    
P4    C24   1.889022 S    
P8    O24   1.747394 S    
C3    N2    1.459883 S    
P5    C41   1.850811 S    
P5    O18   1.545013 D    
O13   Ba2   2.916067 S    
C34   C36   1.394547 A    
C1    C10   1.524099 S    
H35   C16   1.106609 S    
C18   C21   1.405960 A    
O2    Ba1   2.915229 S    
P7    C40   1.852162 S    
O14   Ba2   2.798880 S    
C9    H17   1.111246 S    
P2    O7    1.492860 D    
O12   Ba2   2.857394 S    
C22   C23   1.394382 A    
C38   C42   1.418861 A    
P3    O8    1.744363 S    
P2    Ba1   3.435263 S    
N1    O25   1.302401 A    
Ba1   O16   2.819772 S    
O19   C13   1.405074 S    
C35   C39   1.410411 A    
C8    N1    1.447428 S    
P4    O12   1.510246 D    
C19   C22   1.424345 A    
C13   H29   1.107592 S    
O16   P7    1.763460 S    
P8    C17   1.857665 S    
C28   H40   1.078912 S    
C32   H43   1.081599 S    
C1    H21   1.107525 S    
C27   H41   1.076737 S    
C2    H5    1.106436 S    
O4    P6    1.540978 D    
C12   H24   1.108762 S    
N2    O28   1.299544 A    
C13   C14   1.523538 S    
O8    Ba1   2.770425 S    
C25   C27   1.402164 A    
O17   Ba2   2.771001 S    
C6    H12   1.101730 S    
C23   C31   1.397312 A    
C13   H28   1.109008 S    
O3    P6    1.746658 S    
C33   H46   1.082385 S    
C20   H38   1.078886 S    
C8    C9    1.524910 S    
C17   C32   1.406507 A    
P8    O23   1.545217 D    
C19   C20   1.404233 A    
C11   O22   1.404392 S    
P5    O19   1.752226 S    
C9    H18   1.109408 S    
C27   C28   1.389596 A    
C15   C16   1.519598 S    
C34   C37   1.401345 A    
O10   C8    1.394875 S    
Ba1   Ba2   4.505465 S    
C29   C30   1.413650 A    
C19   C30   1.424809 A    
O3    Ba1   2.799527 S    
C15   H33   1.111771 S    
C15   H34   1.108652 S    
P4    Ba2   3.404260 S    
C17   C18   1.409951 A    
P1    C22   1.868469 S    
C25   C26   1.427705 A    
P3    O9    1.541211 D    
C5    H9    1.106474 S    
N1    O26   1.293933 A    
C3    H6    1.111314 S    
O1    Ba1   2.856839 S    
O14   P8    1.734409 S    
P7    O22   1.752345 S    
C3    H27   1.111423 S    
P3    C36   1.845648 S    
P4    O15   1.753664 S    
