data_mof_unit_35113.cif
_audit_creation_date              2012-10-26T19:25:54-0400
_audit_creation_method            fapswitch 2.2
_symmetry_space_group_name_H-M    P1
_symmetry_Int_Tables_number       1
_space_group_crystal_system       triclinic
_cell_length_a                    15.058755
_cell_length_b                    13.703795
_cell_length_c                    11.706165
_cell_angle_alpha                 89.918094
_cell_angle_beta                  88.701699
_cell_angle_gamma                 90.248836
_cell_volume                      2415.06293887

loop_
_atom_site_label
_atom_site_type_symbol
_atom_type_description
_atom_site_fract_x
_atom_site_fract_y
_atom_site_fract_z
_atom_type_partial_charge
C1    C     C_R   0.328783 0.499775 0.509076 0.600737
C2    C     C_R   0.559904 0.207271 0.433058 0.097792
C3    C     C_R   0.558016 0.793258 0.430313 0.094594
C4    C     C_R   0.440187 0.206370 0.566770 0.091582
C5    C     C_R   0.558758 0.896693 0.425884 -0.040854
C6    C     C_R   0.436509 0.102984 0.566951 -0.042536
C7    C     C_R   0.441490 0.896001 0.574308 -0.037201
C8    C     C_R   0.563723 0.103814 0.433072 -0.036551
C9    C     C_R   0.500117 0.948175 0.500060 -0.036870
C10   C     C_R   0.500112 0.051558 0.500011 -0.036892
C11   C     C_R   0.617569 0.949344 0.351533 0.215110
C12   C     C_R   0.671104 0.500275 0.494116 0.597630
C13   C     C_R   0.372512 0.050360 0.633912 0.212583
C14   C     C_R   0.382933 0.947943 0.648976 0.198746
C15   C     C_R   0.627929 0.051836 0.366600 0.204252
C16   C     C_R   0.498902 0.500103 0.283868 0.604594
C17   C     C_R   0.501378 0.500040 0.716126 0.582811
C18   C     C_1   0.499237 0.500298 0.162258 0.084526
C19   C     C_1   0.501225 0.500120 0.837735 0.041730
C20   C     C_1   0.499866 0.500317 0.059842 0.044575
C21   C     C_1   0.500677 0.500224 0.940148 0.027536
C22   C     C_R   0.817619 0.512050 0.387812 0.200561
C23   C     C_R   0.911145 0.523744 0.393969 0.022370
C24   C     C_R   0.181022 0.482138 0.615377 0.244945
C25   C     C_R   0.767607 0.501457 0.491133 0.001757
C26   C     C_R   0.231821 0.499991 0.513450 0.007738
C27   C     C_R   0.808989 0.496175 0.596017 -0.144698
C28   C     C_R   0.190102 0.524128 0.411980 -0.149656
C29   C     C_R   0.900867 0.498810 0.601366 0.014787
C30   C     C_R   0.098013 0.527401 0.407294 0.014367
C31   C     C_R   0.952629 0.511218 0.500665 0.036401
C32   C     C_R   0.046177 0.510867 0.506945 0.032622
C33   C     C_R   0.087478 0.493977 0.612757 0.022652
C34   C     C_R   0.941516 0.491526 0.706859 -0.104016
C35   C     C_R   0.057075 0.549422 0.304563 -0.100562
C36   C     C_R   0.033460 0.490382 0.712785 -0.053918
C37   C     C_R   0.964896 0.549058 0.298288 -0.057441
C38   C     C_R   0.442059 0.792600 0.569737 0.096456
Cu1   Cu    Cu3+1 0.500000 0.597420 0.500000 1.046381
Cu2   Cu    Cu3+1 0.500000 0.402580 0.500000 1.050546
H1    H     H_    0.768996 0.488751 0.673935 0.126686
H2    H     H_    0.396825 0.248297 0.621576 0.221252
H3    H     H_    0.713927 0.355289 0.277587 0.384638
H4    H     H_    0.346927 0.364566 0.796873 0.375327
H5    H     H_    0.730857 0.927572 0.070195 0.385736
H6    H     H_    0.142162 0.071203 0.744170 0.391536
H7    H     H_    0.362848 0.989487 0.902190 0.359459
H8    H     H_    0.824256 0.009882 0.373172 0.358385
H9    H     H_    0.230023 0.538696 0.335394 0.128483
H10   H     H_    0.902062 0.486274 0.785275 0.152259
H11   H     H_    0.096479 0.567044 0.228611 0.148807
H12   H     H_    0.060707 0.488414 0.797132 0.205467
H13   H     H_    0.937244 0.572076 0.218670 0.202914
H14   H     H_    0.395186 0.749574 0.619599 0.202523
H15   H     H_    0.603143 0.250058 0.377935 0.194117
H16   H     H_    0.604764 0.750708 0.380353 0.211451
N1    N     N_R   0.500000 0.743810 0.500000 -0.275639
N2    N     N_R   0.500000 0.256190 0.500000 -0.271903
O1    O     O_R   0.370260 0.582280 0.500020 -0.514706
O2    O     O_2   0.823833 0.471968 0.157716 -0.267279
O3    O     O_3   0.682154 0.417229 0.264555 -0.510592
O4    O     O_2   0.241860 0.530102 0.821414 -0.265182
O5    O     O_2   0.173738 0.368129 0.803878 -0.240346
O6    O     O_3   0.330731 0.392147 0.721930 -0.509720
O7    O     O_2   0.750012 0.835916 0.271642 -0.253194
O8    O     O_2   0.605099 0.815610 0.183758 -0.262119
O9    O     O_3   0.697549 0.967192 0.127276 -0.405312
O10   O     O_2   0.294969 0.162314 0.795410 -0.253742
O11   O     O_2   0.245229 0.184731 0.599448 -0.256105
O12   O     O_R   0.629740 0.417720 0.499980 -0.486726
O13   O     O_3   0.190215 0.031923 0.708171 -0.404268
O14   O     O_2   0.250113 0.834630 0.731085 -0.188104
O15   O     O_2   0.395304 0.812506 0.816099 -0.284349
O16   O     O_3   0.305324 0.964216 0.875045 -0.395780
O17   O     O_2   0.707744 0.163569 0.205672 -0.200232
O18   O     O_2   0.754931 0.187956 0.402019 -0.318293
O19   O     O_3   0.811313 0.035129 0.296003 -0.391206
O20   O     O_R   0.629740 0.582280 0.499980 -0.499199
O21   O     O_R   0.370260 0.417720 0.500020 -0.456961
O22   O     O_R   0.500010 0.582270 0.337200 -0.482629
O23   O     O_R   0.499990 0.417730 0.662800 -0.490136
O24   O     O_R   0.499990 0.582270 0.662800 -0.485174
O25   O     O_R   0.500010 0.417730 0.337200 -0.486921
O26   O     O_2   0.721587 0.598595 0.226299 -0.210300
S1    S     S_3+6 0.762600 0.502004 0.254426 0.036283
S2    S     S_3+6 0.231502 0.443274 0.744509 0.036977
S3    S     S_3+6 0.668826 0.888581 0.232301 0.068880
S4    S     S_3+6 0.274640 0.110846 0.685699 0.074585
S5    S     S_3+6 0.332444 0.886589 0.768901 0.084507
S6    S     S_3+6 0.726437 0.112957 0.316455 0.066660

loop_
_geom_bond_atom_site_label_1
_geom_bond_atom_site_label_2
_ccdc_geom_bond_type
C27   C29   A    
H4    O6    S    
O4    S2    D    
Cu2   O12   S    
C30   C35   A    
O16   S5    S    
C19   C21   T    
C24   C26   A    
C5    C11   A    
C2    H15   S    
C1    O1    A    
Cu1   N1    S    
C33   C36   A    
C17   O24   A    
C28   H9    S    
C22   S1    S    
O17   S6    D    
C11   C15   A    
C7    C14   A    
C11   S3    S    
C22   C25   A    
C12   O20   A    
H5    O9    S    
C17   O23   A    
C9    C10   A    
C18   C20   T    
C36   H12   S    
C37   H13   S    
C13   C14   A    
Cu2   O25   S    
O6    S2    S    
O7    S3    D    
O19   S6    S    
C34   H10   S    
Cu2   N2    S    
Cu1   O20   S    
O26   S1    D    
H7    O16   S    
C4    C6    A    
Cu1   Cu2   S    
C23   C37   A    
C29   C34   A    
C16   O25   A    
C16   O22   A    
C23   C31   A    
H8    O19   S    
C14   S5    S    
C5    C9    A    
C38   N1    A    
C3    H16   S    
C27   H1    S    
C31   C32   A    
C38   H14   S    
Cu1   O1    S    
Cu2   O21   S    
H6    O13   S    
O11   S4    D    
O3    S1    S    
C3    N1    A    
C16   C18   S    
C8    C15   A    
O5    S2    D    
C35   H11   S    
C1    C26   S    
O10   S4    D    
O8    S3    D    
H3    O3    S    
C7    C9    A    
C12   O12   A    
C35   C37   A    
O9    S3    S    
Cu2   O23   S    
C2    C8    A    
Cu1   O24   S    
C3    C5    A    
C6    C10   A    
O2    S1    D    
C2    N2    A    
C25   C27   A    
C26   C28   A    
C24   C33   A    
C12   C25   S    
Cu1   O22   S    
C28   C30   A    
O15   S5    D    
C29   C31   A    
C32   C33   A    
C15   S6    S    
C30   C32   A    
O14   S5    D    
C4    H2    S    
C1    O21   A    
C13   S4    S    
C17   C19   S    
C7    C38   A    
C34   C36   A    
O13   S4    S    
C20   C21   S    
C8    C10   A    
C4    N2    A    
C22   C23   A    
C24   S2    S    
O18   S6    D    
C6    C13   A    
