data_mof_unit_46695.cif
_audit_creation_date              2012-12-11T15:07:31-0500
_audit_creation_method            fapswitch 2.2
_symmetry_space_group_name_H-M    P1
_symmetry_Int_Tables_number       1
_space_group_crystal_system       triclinic
_cell_length_a                    21.635984
_cell_length_b                    7.211435
_cell_length_c                    18.603782
_cell_angle_alpha                 90.010445
_cell_angle_beta                  95.941282
_cell_angle_gamma                 89.916107
_cell_volume                      2887.08798042

loop_
_atom_site_label
_atom_site_type_symbol
_atom_type_description
_atom_site_fract_x
_atom_site_fract_y
_atom_site_fract_z
_atom_type_partial_charge
O1    O     O_R   0.449650 0.506500 0.414480 -0.532094
O2    O     O_R   0.550350 0.006500 0.585520 -0.532608
O3    O     O_R   0.432010 0.173150 0.560250 -0.539689
O4    O     O_R   0.567990 0.673150 0.439750 -0.539257
C1    C     C_R   0.416136 0.344781 0.581071 0.685526
C2    C     C_R   0.584402 0.844584 0.419640 0.685138
O5    O     O_R   0.442320 0.176650 0.413480 -0.533316
O6    O     O_R   0.557680 0.676650 0.586520 -0.534196
O7    O     O_R   0.560730 0.008380 0.437700 -0.537803
O8    O     O_R   0.439270 0.508380 0.562300 -0.538513
C3    C     C_R   0.428495 0.345167 0.387624 0.676509
C4    C     C_R   0.571533 0.844993 0.612373 0.673638
O9    O     O_3   0.538840 0.339860 0.508120 -0.373093
O10   O     O_3   0.461160 0.839860 0.491880 -0.371902
V1    V     V_3+5 0.492800 0.064220 0.498490 1.415248
V2    V     V_3+5 0.507200 0.564220 0.501510 1.414992
C5    C     C_R   0.871180 0.985131 0.689964 -0.159344
C6    C     C_R   0.128150 0.474166 0.310455 -0.159270
H1    H     H_    0.959196 0.012322 0.753440 0.103454
H2    H     H_    0.040104 0.501286 0.246982 0.105552
H3    H     H_    0.789212 0.984733 0.573853 0.126427
H4    H     H_    0.209797 0.468197 0.426823 0.126385
H5    H     H_    0.891016 0.015802 0.640150 0.113981
H6    H     H_    0.107992 0.499662 0.360505 0.113773
C7    C     C_R   0.886458 0.942825 0.819631 -0.034065
C8    C     C_R   0.113490 0.441684 0.180351 -0.034610
C9    C     C_R   0.586115 0.812319 0.744617 -0.159470
C10   C     C_R   0.414384 0.319976 0.255106 -0.160317
C11   C     C_R   0.622302 0.808388 0.810840 -0.119371
C12   C     C_R   0.378378 0.319106 0.188745 -0.119401
C13   C     C_R   0.686059 0.840866 0.815071 -0.157772
C14   C     C_R   0.314432 0.348605 0.184610 -0.157286
C15   C     C_R   0.715680 0.879013 0.752400 0.076976
C16   C     C_R   0.284425 0.380453 0.247531 0.077143
C17   C     C_R   0.677929 0.884926 0.684337 0.069168
C18   C     C_R   0.321952 0.382716 0.315765 0.068652
C19   C     C_R   0.781393 0.911102 0.755021 0.073186
C20   C     C_R   0.218553 0.409899 0.244987 0.073237
C21   C     C_R   0.807308 0.950237 0.689525 0.138122
C22   C     C_R   0.192228 0.442434 0.310767 0.138029
C23   C     C_R   0.769465 0.955263 0.623843 -0.200484
C24   C     C_R   0.229855 0.443811 0.376619 -0.199774
C25   C     C_R   0.705959 0.922765 0.621149 -0.192514
C26   C     C_R   0.293537 0.414131 0.379213 -0.191916
C27   C     C_R   0.822553 0.906668 0.820067 -0.214223
C28   C     C_R   0.177611 0.408966 0.179763 -0.213886
C29   C     C_R   0.910201 0.982703 0.754409 -0.165434
C30   C     C_R   0.089307 0.474798 0.245871 -0.166145
C31   C     C_R   0.612846 0.850807 0.681024 -0.078092
C32   C     C_R   0.387234 0.351894 0.318959 -0.078586
H7    H     H_    0.806525 0.878203 0.871876 0.093606
H8    H     H_    0.193938 0.385300 0.127743 0.093974
H9    H     H_    0.536751 0.784674 0.742901 0.102084
H10   H     H_    0.463936 0.295317 0.256711 0.104489
H11   H     H_    0.710816 0.834875 0.868296 0.108386
H12   H     H_    0.289844 0.345491 0.131258 0.108562
H13   H     H_    0.600733 0.778852 0.859546 0.119747
H14   H     H_    0.400258 0.294578 0.139834 0.119601
H15   H     H_    0.678875 0.927948 0.568870 0.110912
H16   H     H_    0.320457 0.416329 0.431624 0.111953
C33   C     C_R   0.645808 0.709787 0.324002 -0.217382
C34   C     C_R   0.361911 0.519479 0.673125 -0.210348
C35   C     C_R   0.634902 0.856387 0.371139 -0.077244
C36   C     C_R   0.366972 0.357815 0.631326 -0.079201
C37   C     C_R   0.671302 0.018344 0.370170 -0.221190
C38   C     C_R   0.324745 0.211768 0.637731 -0.226133
C39   C     C_R   0.717540 0.035036 0.322809 0.088671
C40   C     C_R   0.277730 0.227418 0.684327 0.090552
C41   C     C_R   0.727317 0.888910 0.274876 0.054824
C42   C     C_R   0.273342 0.389856 0.725993 0.054776
C43   C     C_R   0.691277 0.725832 0.275435 0.089705
C44   C     C_R   0.315763 0.535992 0.720479 0.085913
C45   C     C_R   0.754031 0.195829 0.322280 -0.197230
C46   C     C_R   0.234788 0.083781 0.689864 -0.185260
C47   C     C_R   0.799414 0.212654 0.274180 -0.187217
C48   C     C_R   0.188451 0.099793 0.736760 -0.196861
C49   C     C_R   0.809067 0.069337 0.225492 0.090709
C50   C     C_R   0.184058 0.260040 0.778852 0.086817
C51   C     C_R   0.773095 0.906134 0.226148 0.054787
C52   C     C_R   0.226440 0.406258 0.773264 0.055068
C53   C     C_R   0.782896 0.759937 0.178256 0.089067
C54   C     C_R   0.222054 0.568723 0.814917 0.091474
C55   C     C_R   0.746457 0.599058 0.178840 -0.196731
C56   C     C_R   0.264964 0.712416 0.809344 -0.185610
C57   C     C_R   0.701000 0.582378 0.226841 -0.187032
C58   C     C_R   0.311332 0.696327 0.762507 -0.196670
C59   C     C_R   0.854349 0.085677 0.176684 -0.219885
C60   C     C_R   0.138029 0.276363 0.826393 -0.212008
C61   C     C_R   0.865201 0.939090 0.129514 -0.079570
C62   C     C_R   0.133028 0.438006 0.868204 -0.080429
C63   C     C_R   0.829051 0.776729 0.130806 -0.220623
C64   C     C_R   0.175109 0.584287 0.861594 -0.227429
H17   H     H_    0.617924 0.584969 0.323849 0.125666
H18   H     H_    0.394345 0.632700 0.669443 0.127978
H19   H     H_    0.663825 0.131735 0.406571 0.131247
H20   H     H_    0.327846 0.087020 0.605775 0.131465
H21   H     H_    0.747241 0.309323 0.358847 0.133704
H22   H     H_    0.237177 0.958473 0.658114 0.136433
H23   H     H_    0.826839 0.338365 0.274897 0.136055
H24   H     H_    0.156170 0.986216 0.740331 0.131261
H25   H     H_    0.882117 0.210694 0.176636 0.124833
H26   H     H_    0.105653 0.163075 0.830257 0.126822
H27   H     H_    0.836606 0.663192 0.094502 0.129778
H28   H     H_    0.171979 0.709072 0.893524 0.129568
H29   H     H_    0.753285 0.485492 0.142320 0.132903
H30   H     H_    0.262562 0.837749 0.841075 0.136125
H31   H     H_    0.673555 0.456700 0.226099 0.135929
H32   H     H_    0.343625 0.809888 0.758952 0.131245
O11   O     O_R   0.060820 0.290050 0.937800 -0.539493
O12   O     O_R   0.939180 0.790050 0.062200 -0.538775
O13   O     O_R   0.057690 0.616620 0.086540 -0.535000
O14   O     O_R   0.942310 0.116620 0.913460 -0.535958
C65   C     C_R   0.071570 0.448665 0.112476 0.685689
C66   C     C_R   0.928422 0.948851 0.887507 0.682411
O15   O     O_R   0.068010 0.619890 0.939770 -0.540737
O16   O     O_R   0.931990 0.119890 0.060230 -0.540384
O17   O     O_R   0.949640 0.787940 0.914460 -0.533109
O18   O     O_R   0.050360 0.287940 0.085540 -0.532703
C67   C     C_R   0.084043 0.450937 0.918660 0.697289
C68   C     C_R   0.915438 0.951110 0.080673 0.696696
O19   O     O_3   0.961210 0.453080 0.991940 -0.374586
O20   O     O_3   0.038790 0.953080 0.008060 -0.373361
V3    V     V_3+5 0.007200 0.728820 0.001500 1.409645
V4    V     V_3+5 0.992800 0.228820 0.998500 1.409035

loop_
_geom_bond_atom_site_label_1
_geom_bond_atom_site_label_2
_ccdc_geom_bond_type
C38   C40   A    
C35   C37   A    
C9    C11   A    
C23   C25   A    
O1    C3    A    
O2    C4    A    
C2    O7    A    
O14   C66   A    
C4    C31   S    
O3    V1    S    
C46   H22   S    
O5    C3    A    
C5    H5    S    
C46   C48   A    
C6    H6    S    
C48   C50   A    
O14   V4    S    
C50   C52   A    
C27   H7    S    
C40   C46   A    
C28   H8    S    
C54   C64   A    
C41   C43   A    
C5    C21   A    
C33   C35   A    
C6    C22   A    
O19   V4    S    
C34   C36   A    
C43   C57   A    
C10   C32   A    
C37   C39   A    
C17   C31   A    
C56   H30   S    
C13   C15   A    
C39   C45   A    
C61   C63   A    
C17   C25   A    
C63   H27   S    
C7    C29   A    
C16   C18   A    
C25   H15   S    
C33   C43   A    
O5    V1    S    
O6    V2    S    
C59   H25   S    
C45   C47   A    
C24   C26   A    
C53   C55   A    
C49   C51   A    
C19   C21   A    
O15   V3    S    
C42   C52   A    
C12   C14   A    
C52   C54   A    
O12   C68   A    
C33   H17   S    
C51   C53   A    
C10   H10   S    
O13   V3    S    
C15   C19   A    
O16   C68   A    
C1    C36   S    
C39   C41   A    
C36   C38   A    
C2    C35   S    
O4    V2    S    
C45   H21   S    
O12   V3    S    
C62   C64   A    
C61   C68   S    
O6    C4    A    
C47   H23   S    
C34   C44   A    
O13   C65   A    
O1    V2    S    
O18   V4    S    
O2    V1    S    
C47   C49   A    
C49   C59   A    
H2    C30   S    
H3    C23   S    
O4    C2    A    
C55   C57   A    
C11   H13   S    
C54   C56   A    
C34   H18   S    
C41   C51   A    
C19   C27   A    
C7    C27   A    
C18   C32   A    
O11   C67   A    
C38   H20   S    
C50   C60   A    
O16   V4    S    
C16   C20   A    
C58   H32   S    
C5    C29   A    
C60   C62   A    
C22   C24   A    
O3    C1    A    
C6    C30   A    
C60   H26   S    
C9    H9    S    
O11   V4    S    
C8    C30   A    
C44   C58   A    
C48   H24   S    
O15   C67   A    
C62   C67   S    
C59   C61   A    
O17   V3    S    
C8    C65   S    
C1    O8    A    
C11   C13   A    
C3    C32   S    
O8    V2    S    
C7    C66   S    
C20   C22   A    
H4    C24   S    
C26   H16   S    
C12   H14   S    
C10   C12   A    
C15   C17   A    
H1    C29   S    
O7    V1    S    
C20   C28   A    
C66   O17   A    
C18   C26   A    
C64   H28   S    
C65   O18   A    
C53   C63   A    
C55   H29   S    
C37   H19   S    
C21   C23   A    
C40   C42   A    
O9    V2    S    
O10   V1    S    
C56   C58   A    
C42   C44   A    
C13   H11   S    
O20   V3    S    
C57   H31   S    
C8    C28   A    
C14   H12   S    
C9    C31   A    
C14   C16   A    
