data_mof_unit_17840.cif
_audit_creation_date              2012-12-10T19:12:20-0500
_audit_creation_method            fapswitch 2.2
_symmetry_space_group_name_H-M    P1
_symmetry_Int_Tables_number       1
_space_group_crystal_system       triclinic
_cell_length_a                    7.773922
_cell_length_b                    9.096786
_cell_length_c                    16.972565
_cell_angle_alpha                 89.593325
_cell_angle_beta                  94.029975
_cell_angle_gamma                 90.0213
_cell_volume                      1197.26293159

loop_
_atom_site_label
_atom_site_type_symbol
_atom_type_description
_atom_site_fract_x
_atom_site_fract_y
_atom_site_fract_z
_atom_type_partial_charge
C1    C     C_R   0.499963 0.219973 0.499994 0.840105
C2    C     C_R   0.500035 0.780027 0.499990 0.842476
C3    C     C_R   0.521303 0.501126 0.651993 0.906357
C4    C     C_R   0.478525 0.498704 0.348163 0.921200
C5    C     C_R   0.533738 0.511504 0.739298 -0.209185
C6    C     C_R   0.465156 0.485232 0.261228 -0.205122
C7    C     C_R   0.399654 0.579609 0.777986 0.227176
C8    C     C_R   0.591995 0.405424 0.224075 0.253003
C9    C     C_R   0.414016 0.597425 0.860221 -0.172034
C10   C     C_R   0.582032 0.394338 0.140805 -0.173040
C11   C     C_R   0.557235 0.536383 0.904794 0.195730
C12   C     C_R   0.440694 0.458261 0.096033 0.132991
C13   C     C_R   0.692307 0.471156 0.867256 0.332237
C14   C     C_R   0.305025 0.524738 0.133991 0.346896
C15   C     C_R   0.683816 0.462805 0.783715 0.242362
C16   C     C_R   0.320432 0.542942 0.216628 0.318586
C17   C     C_1   0.499969 0.065356 0.499985 -0.137067
C18   C     C_1   0.500029 0.934645 0.499986 -0.134636
Cu1   Cu    Cu3+1 0.669080 0.500010 0.500000 1.081490
Cu2   Cu    Cu3+1 0.330920 0.499990 0.500000 1.066481
N1    N     N_1   0.076820 0.499970 0.500010 -0.021408
N2    N     N_1   0.923180 0.500030 0.499990 -0.017527
N3    N     N_2   0.562970 0.530556 0.988276 -0.115929
N4    N     N_2   0.436757 0.463505 0.012530 -0.194604
O1    O     O_R   0.642760 0.288400 0.500000 -0.568344
O2    O     O_R   0.357240 0.711600 0.500000 -0.567316
O3    O     O_R   0.357190 0.288380 0.500000 -0.586544
O4    O     O_R   0.642810 0.711620 0.500000 -0.587831
O5    O     O_R   0.658410 0.498660 0.613920 -0.535140
O6    O     O_R   0.341590 0.501340 0.386080 -0.543439
O7    O     O_R   0.372840 0.498650 0.613930 -0.590068
O8    O     O_R   0.627160 0.501350 0.386070 -0.539057
O9    O     O_3   0.720237 0.335708 0.271146 -0.668801
H1    H     H_    0.761060 0.248323 0.243550 0.342751
O10   O     O_3   0.260683 0.640751 0.735107 -0.657165
H2    H     H_    0.184198 0.557120 0.719443 0.356412
C19   C     C_2   0.717678 0.316089 0.099990 0.957825
O11   O     O_2   0.870140 0.338373 0.118904 -0.543979
O12   O     O_R   0.670373 0.217615 0.039393 -0.711124
H3    H     H_    0.773702 0.170258 0.016534 0.350753
C20   C     C_2   0.279716 0.681402 0.899155 0.967774
O13   O     O_2   0.320675 0.759742 0.955681 -0.550556
O14   O     O_R   0.106581 0.671658 0.871108 -0.722308
H4    H     H_    0.027881 0.733070 0.902873 0.349267
O15   O     O_3   0.827243 0.411798 0.914396 -0.683837
H5    H     H_    0.877356 0.328814 0.886332 0.338486
O16   O     O_3   0.159350 0.578352 0.091798 -0.669412
H6    H     H_    0.150529 0.535988 0.038122 0.374286
O17   O     O_3   0.818487 0.406286 0.744417 -0.701111
H7    H     H_    0.928150 0.426807 0.775661 0.347650
O18   O     O_3   0.196948 0.617631 0.255670 -0.677438
H8    H     H_    0.103291 0.652925 0.217752 0.391726

loop_
_geom_bond_atom_site_label_1
_geom_bond_atom_site_label_2
_ccdc_geom_bond_type
C1    O1    A    
O14   H4    S    
C14   O16   S    
Cu2   O3    S    
C2    C18   S    
C11   C13   A    
C20   O13   D    
C12   N4    S    
C9    C20   S    
O16   H6    S    
C16   O18   S    
N3    N4    D    
C15   O17   S    
O9    H1    S    
C2    O2    A    
Cu2   O6    S    
O15   H5    S    
C3    O7    A    
Cu1   O4    S    
C20   O14   S    
C3    O5    A    
C4    O8    A    
C10   C12   A    
C10   C19   S    
Cu1   O8    S    
C9    C11   A    
C11   N3    S    
C19   O11   D    
C12   C14   A    
C17   C18   T    
C5    C7    A    
C8    O9    S    
C13   C15   A    
Cu1   O1    S    
C14   C16   A    
C5    C15   A    
C4    C6    S    
C2    O4    A    
C1    C17   S    
C6    C16   A    
O18   H8    S    
Cu1   O5    S    
C7    C9    A    
Cu1   N2    S    
Cu2   N1    S    
C13   O15   S    
C19   O12   S    
O17   H7    S    
O12   H3    S    
C1    O3    A    
C6    C8    A    
C3    C5    S    
N1    N2    T    
C7    O10   S    
Cu2   O7    S    
C8    C10   A    
C4    O6    A    
Cu1   Cu2   S    
Cu2   O2    S    
O10   H2    S    
