data_mof_unit_60789.cif
_audit_creation_date              2012-10-26T20:23:37-0400
_audit_creation_method            fapswitch 2.2
_symmetry_space_group_name_H-M    P1
_symmetry_Int_Tables_number       1
_space_group_crystal_system       triclinic
_cell_length_a                    12.753094
_cell_length_b                    13.903653
_cell_length_c                    15.901372
_cell_angle_alpha                 90.23159
_cell_angle_beta                  92.698722
_cell_angle_gamma                 97.946059
_cell_volume                      2789.21818183

loop_
_atom_site_label
_atom_site_type_symbol
_atom_type_description
_atom_site_fract_x
_atom_site_fract_y
_atom_site_fract_z
_atom_type_partial_charge
Br1   Br    Br    0.741125 0.494374 0.939216 -0.424763
Br2   Br    Br    0.258691 0.505270 0.061041 -0.462089
C1    C     C_R   0.483568 0.315827 0.499122 0.546077
C2    C     C_1   0.145438 0.480752 0.482995 0.164781
C3    C     C_R   0.500738 0.500078 0.339621 0.546813
C4    C     C_R   0.499262 0.499922 0.660379 0.547491
C5    C     C_3   0.435765 0.419537 0.969943 -0.135606
C6    C     C_3   0.564018 0.580383 0.029992 -0.089503
C7    C     C_3   0.535765 0.421731 0.028887 0.095562
C8    C     C_3   0.464006 0.578185 0.971101 0.094396
C9    C     C_1   0.502163 0.500577 0.250221 0.015729
C10   C     C_1   0.497834 0.499421 0.749779 0.014227
C11   C     C_3   0.400983 0.501233 0.024958 0.162566
C12   C     C_R   0.516432 0.684173 0.500876 0.547031
C13   C     C_3   0.598800 0.498665 0.975097 0.202587
C14   C     C_3   0.501018 0.501418 0.083409 0.024923
C15   C     C_3   0.498877 0.498541 0.916587 0.023221
C16   C     C_1   0.502195 0.501018 0.174878 0.017916
C17   C     C_1   0.497780 0.498972 0.825121 0.014769
C18   C     C_1   0.525820 0.787517 0.501381 0.003099
C19   C     C_1   0.474180 0.212483 0.498613 0.001944
C20   C     C_2   0.543506 0.978394 0.502333 -0.110619
C21   C     C_2   0.456494 0.021606 0.497654 -0.111432
C22   C     C_1   0.465649 0.125426 0.498150 -0.033757
C23   C     C_1   0.534351 0.874574 0.501840 -0.032743
C24   C     C_2   0.028382 0.473251 0.476282 -0.148695
C25   C     C_2   0.971618 0.526749 0.523719 -0.149530
C26   C     C_1   0.854562 0.519248 0.517006 0.165943
Cu1   Cu    Cu3+1 0.395330 0.493960 0.494680 1.028010
Cu2   Cu    Cu3+1 0.604670 0.506040 0.505320 1.031683
H1    H     H_    0.384686 0.353244 0.945505 0.142746
H2    H     H_    0.354530 0.641406 0.902286 0.261226
H3    H     H_    0.615134 0.646649 0.054447 0.147956
H4    H     H_    0.378075 0.979323 0.493437 0.145227
H5    H     H_    0.621924 0.020677 0.506551 0.145813
H6    H     H_    0.013502 0.578211 0.569410 0.139571
H7    H     H_    0.986498 0.421788 0.430591 0.141816
H8    H     H_    0.590666 0.293440 0.010755 0.255404
H9    H     H_    0.515840 0.296165 0.094474 0.234254
H10   H     H_    0.404111 0.704139 0.988998 0.258346
N1    N     N_1   0.238040 0.484880 0.486690 -0.177219
N2    N     N_1   0.761960 0.515120 0.513310 -0.176691
N3    N     N_3   0.576550 0.336076 0.062179 -0.569256
N4    N     N_3   0.424615 0.664493 0.937777 -0.592100
O1    O     O_R   0.399110 0.356330 0.494860 -0.489949
O2    O     O_R   0.600890 0.643670 0.505140 -0.489302
O3    O     O_R   0.575890 0.366540 0.503840 -0.490565
O4    O     O_R   0.424110 0.633460 0.496160 -0.490889
O5    O     O_R   0.411620 0.494890 0.374590 -0.479824
O6    O     O_R   0.588380 0.505110 0.625410 -0.478764
O7    O     O_R   0.588400 0.505100 0.383570 -0.492314
O8    O     O_R   0.411600 0.494900 0.616430 -0.495515

loop_
_geom_bond_atom_site_label_1
_geom_bond_atom_site_label_2
_ccdc_geom_bond_type
C2    C24   S    
Cu2   O7    S    
C8    C11   S    
C24   H7    S    
C13   C15   S    
Cu1   Cu2   S    
Br1   C13   S    
C25   H6    S    
C5    C11   S    
C21   C22   S    
C21   H4    S    
C4    O8    A    
H2    N4    S    
H8    N3    S    
C9    C16   T    
C14   C16   S    
Cu1   O5    S    
C4    O6    A    
C20   H5    S    
C3    O5    A    
C24   C25   D    
C10   C17   T    
C1    O3    A    
C15   C17   S    
C7    C14   S    
C1    O1    A    
C3    C9    S    
C6    C13   S    
C6    H3    S    
C4    C10   S    
Cu2   O6    S    
C1    C19   S    
C7    N3    S    
C18   C23   T    
C19   C22   T    
Cu1   O4    S    
C8    N4    S    
C12   C18   S    
Cu2   O3    S    
H10   N4    S    
C5    H1    S    
C20   C23   S    
C6    C14   S    
C2    N1    T    
C11   C14   S    
C26   N2    T    
C25   C26   S    
C5    C7    S    
Br2   C11   S    
C12   O4    A    
C20   C21   D    
C3    O7    A    
H9    N3    S    
C8    C15   S    
Cu1   N1    S    
C7    C13   S    
Cu2   O2    S    
C6    C8    S    
Cu2   N2    S    
Cu1   O1    S    
C12   O2    A    
Cu1   O8    S    
C5    C15   S    
