data_mof_unit_6603.cif
_audit_creation_date              2013-03-05T16:43:17-0500
_audit_creation_method            fapswitch 2.2
_symmetry_space_group_name_H-M    P1
_symmetry_Int_Tables_number       1
_space_group_crystal_system       triclinic
_cell_length_a                    15.750917
_cell_length_b                    10.665854
_cell_length_c                    9.86029
_cell_angle_alpha                 89.791591
_cell_angle_beta                  89.961621
_cell_angle_gamma                 89.928959
_cell_volume                      1656.48635428

loop_
_atom_site_label
_atom_site_type_symbol
_atom_site_description
_atom_site_fract_x
_atom_site_fract_y
_atom_site_fract_z
_atom_type_partial_charge
O1    O     O_R   0.500010 0.316790 0.614690 -0.614031
O2    O     O_R   0.500000 0.316760 0.385350 -0.622675
C1    C     C_R   0.502858 0.259904 0.500317 0.894093
O3    O     O_R   0.377150 0.500020 0.614720 -0.616830
O4    O     O_R   0.377140 0.499990 0.385380 -0.613590
C2    C     C_R   0.338324 0.499950 0.500097 0.904194
Zn1   Zn    Zn3+2 0.500010 0.500020 0.653130 0.945279
Zn2   Zn    Zn3+2 0.499990 0.499980 0.346870 0.961977
O5    O     O_R   0.500000 0.683240 0.614650 -0.618702
O6    O     O_R   0.499990 0.683210 0.385310 -0.587480
O7    O     O_R   0.622860 0.500010 0.614620 -0.629794
O8    O     O_R   0.622850 0.499980 0.385280 -0.607807
C3    C     C_R   0.505030 0.739960 0.499632 0.886020
C4    C     C_R   0.661662 0.500218 0.499858 0.884668
C5    C     C_3   0.048971 0.438599 0.629272 -0.400535
C6    C     C_3   0.050657 0.429970 0.372597 -0.437569
C7    C     C_3   0.952611 0.417981 0.376544 0.158193
H1    H     H_    0.928102 0.344182 0.634004 0.130078
H2    H     H_    0.069567 0.338654 0.630765 0.160730
H3    H     H_    0.071335 0.480487 0.279211 0.224477
H4    H     H_    0.079432 0.334600 0.368904 0.166492
H5    H     H_    0.937648 0.318663 0.402465 0.092099
C8    C     C_1   0.750375 0.501277 0.499177 -0.124571
C9    C     C_3   0.082969 0.501825 0.498550 0.193156
C10   C     C_3   0.949870 0.443686 0.630853 -0.034876
C11   C     C_3   0.917241 0.502755 0.494394 0.041986
C12   C     C_3   0.952161 0.640084 0.484582 0.192881
C13   C     C_3   0.050617 0.638598 0.491547 -0.464836
C14   C     C_1   0.825585 0.502144 0.496983 0.019794
C15   C     C_1   0.174332 0.500961 0.499644 -0.056229
C16   C     C_1   0.249556 0.500370 0.500107 -0.196090
H6    H     H_    0.072091 0.690699 0.582845 0.153168
H7    H     H_    0.079646 0.687686 0.403322 0.216654
H8    H     H_    0.928933 0.692418 0.574839 0.130139
H9    H     H_    0.079295 0.481499 0.719026 0.193366
C17   C     C_R   0.512268 0.063007 0.623343 0.148744
C18   C     C_R   0.518237 0.128805 0.501907 -0.140617
C19   C     C_R   0.544622 0.067204 0.383816 -0.286082
H10   H     H_    0.558328 0.119114 0.291671 0.175112
C20   C     C_R   0.548479 0.936831 0.382471 0.187150
C21   C     C_R   0.522453 0.871141 0.500441 -0.151934
C22   C     C_R   0.513748 0.935397 0.622390 0.102385
C23   C     C_3   0.447428 0.925681 0.730611 -0.456816
C24   C     C_3   0.446083 0.067769 0.731904 -0.492026
H11   H     H_    0.387186 0.883658 0.693539 0.200998
H12   H     H_    0.472887 0.884022 0.825814 0.209524
H13   H     H_    0.385032 0.108573 0.696031 0.198417
H14   H     H_    0.471194 0.107874 0.827710 0.205147
C25   C     C_R   0.425572 0.491612 0.071357 0.223572
N1    N     N_R   0.499430 0.499140 0.142800 -0.111267
C26   C     C_R   0.572829 0.519332 0.071753 -0.119321
H15   H     H_    0.631889 0.532963 0.125409 0.183114
C27   C     C_R   0.572829 0.519380 0.927918 -0.130909
H16   H     H_    0.631888 0.533176 0.874072 0.165974
N2    N     N_R   0.499430 0.499180 0.857150 -0.110761
C28   C     C_R   0.425535 0.491910 0.928826 0.219798
C29   C     C_3   0.362951 0.387363 0.923388 -0.507804
C30   C     C_3   0.363286 0.386639 0.077445 -0.501037
H17   H     H_    0.301270 0.417880 0.879504 0.207896
H18   H     H_    0.389985 0.300876 0.878174 0.210901
H19   H     H_    0.301709 0.416391 0.122197 0.210474
H20   H     H_    0.390848 0.299736 0.122025 0.213938
N3    N     N_2   0.911336 0.505511 0.748820 -0.304916
H21   H     H_    0.860631 0.458415 0.791324 0.247237
C31   C     C_3   0.959160 0.580880 0.843740 -0.635832
H22   H     H_    0.914411 0.632844 0.910086 0.265954
H23   H     H_    0.998748 0.650952 0.789858 0.209777
H24   H     H_    0.999122 0.519799 0.909110 0.264472
N4    N     N_R   0.921347 0.707567 0.364016 0.244107
O9    O     O_R   0.859309 0.787372 0.376307 -0.412124
O10   O     O_R   0.960551 0.699485 0.248046 -0.366058
N5    N     N_2   0.572476 0.873894 0.261125 -0.305037
H25   H     H_    0.559502 0.923430 0.173387 0.213170
C32   C     C_3   0.658249 0.825196 0.262769 -0.605209
H26   H     H_    0.704585 0.903618 0.267548 0.249963
H27   H     H_    0.670014 0.770864 0.168763 0.227080
H28   H     H_    0.667961 0.761863 0.351170 0.246297
N6    N     N_R   0.916398 0.440054 0.240526 0.249951
O11   O     O_R   0.846498 0.503074 0.222475 -0.357541
O12   O     O_R   0.946183 0.376155 0.138825 -0.409694

loop_
_geom_bond_atom_site_label_1
_geom_bond_atom_site_label_2
_geom_bond_distance
_ccdc_geom_bond_type
C30   H20   1.112262 S    
N2    C28   1.363417 A    
N3    C31   1.448282 S    
C6    H4    1.113796 S    
C21   C22   1.392811 A    
C17   C22   1.361305 A    
Zn1   N2    2.011698 S    
C3    C21   1.426202 S    
C27   H16   1.080741 S    
C5    H2    1.113931 S    
C11   C12   1.567871 S    
C32   H27   1.110301 S    
C7    C11   1.576006 S    
C8    C14   1.184853 T    
C17   C18   1.388886 A    
C15   C16   1.184869 T    
O7    C4    1.285721 A    
N6    O12   1.301443 A    
C29   H17   1.111669 S    
C28   C29   1.490381 S    
C10   N3    1.469644 S    
N4    O10   1.302295 A    
O5    C3    1.285870 A    
C6    C7    1.550210 S    
C31   H23   1.107912 S    
C32   H28   1.111360 S    
C12   N4    1.469893 S    
C24   H13   1.112446 S    
C6    H3    1.113880 S    
C30   H19   1.111654 S    
C2    C16   1.398176 S    
C6    C9    1.548390 S    
H1    C10   1.116019 S    
O3    Zn1   1.972120 S    
C5    H9    1.106696 S    
C27   N2    1.368464 A    
C12   H8    1.113607 S    
C19   H10   1.083986 S    
C32   H26   1.111901 S    
C26   H15   1.080717 S    
C13   H6    1.112712 S    
O3    C2    1.285416 A    
N6    O11   1.301237 A    
C29   H18   1.110292 S    
C10   C11   1.570182 S    
C25   C30   1.490577 S    
C26   C27   1.418248 A    
C4    C8    1.397382 S    
Zn1   O7    1.971656 S    
C23   C24   1.515711 S    
C18   C19   1.401604 A    
Zn2   O8    1.972120 S    
C31   H24   1.110212 S    
N1    C26   1.368270 A    
C23   H11   1.112463 S    
N5    C32   1.446897 S    
C20   C21   1.416397 A    
O8    C4    1.284935 A    
C13   H7    1.112066 S    
C31   H22   1.110397 S    
C17   C24   1.494633 S    
C22   C23   1.496188 S    
Zn2   N1    2.012267 S    
Zn1   O5    1.989337 S    
C5    C9    1.548078 S    
C20   N5    1.424683 S    
O1    Zn1   1.992074 S    
O2    Zn2   1.989337 S    
C9    C13   1.545959 S    
N5    H25   1.032466 S    
O6    C3    1.283967 A    
O4    Zn2   1.971654 S    
C25   C28   1.405387 A    
C7    H5    1.114259 S    
O2    C1    1.284459 A    
C19   C20   1.391900 A    
C29   C30   1.519058 S    
O4    C2    1.285439 A    
C7    N6    1.475779 S    
N4    O9    1.300987 A    
C23   H12   1.111967 S    
C9    C15   1.439129 S    
C5    C10   1.561886 S    
N3    H21   1.031910 S    
C1    C18   1.418850 S    
C11   C14   1.443897 S    
Zn2   O6    1.992074 S    
C25   N1    1.363007 A    
C12   C13   1.552400 S    
O1    C1    1.283281 A    
C24   H14   1.111616 S    
