data_mof_unit_66378.cif
_audit_creation_date              2012-12-10T17:55:52-0500
_audit_creation_method            fapswitch 2.2
_symmetry_space_group_name_H-M    P1
_symmetry_Int_Tables_number       1
_space_group_crystal_system       triclinic
_cell_length_a                    18.397342
_cell_length_b                    18.343522
_cell_length_c                    26.01681
_cell_angle_alpha                 89.979643
_cell_angle_beta                  89.993837
_cell_angle_gamma                 90.012028
_cell_volume                      8779.9453473

loop_
_atom_site_label
_atom_site_type_symbol
_atom_type_description
_atom_site_fract_x
_atom_site_fract_y
_atom_site_fract_z
_atom_type_partial_charge
C1    C     C_R   0.140134 0.859894 0.250103 0.798183
C2    C     C_R   0.262448 0.817880 0.225446 -0.245807
C3    C     C_R   0.754922 0.800532 0.791291 -0.228692
C4    C     C_R   0.735689 0.819872 0.228531 -0.229514
C5    C     C_R   0.764000 0.319557 0.271987 -0.228977
C6    C     C_R   0.749855 0.305290 0.711970 -0.245287
C7    C     C_R   0.254891 0.300564 0.291274 -0.230194
C8    C     C_R   0.256550 0.299446 0.707967 -0.168789
C9    C     C_R   0.819191 0.267479 0.271676 0.110190
C10   C     C_R   0.803630 0.252100 0.710860 0.104673
C11   C     C_R   0.201536 0.246640 0.292849 0.110395
C12   C     C_R   0.140127 0.859888 0.749912 0.798467
C13   C     C_R   0.202978 0.246355 0.706469 0.090968
C14   C     C_R   0.319161 0.767452 0.771735 0.110209
C15   C     C_R   0.317134 0.765542 0.225369 0.103028
C16   C     C_R   0.701567 0.746606 0.792866 0.110845
C17   C     C_R   0.680477 0.767782 0.228878 0.111909
C18   C     C_R   0.805543 0.198538 0.249140 -0.011881
C19   C     C_R   0.803443 0.196456 0.748544 -0.000749
C20   C     C_R   0.197333 0.195647 0.252078 -0.012268
C21   C     C_R   0.197036 0.196031 0.747811 -0.035555
C22   C     C_R   0.305547 0.698543 0.749139 -0.013199
C23   C     C_R   0.859862 0.859892 0.250101 0.798399
C24   C     C_R   0.305136 0.698116 0.250374 0.000831
C25   C     C_R   0.697331 0.695649 0.752075 -0.012652
C26   C     C_R   0.694401 0.698573 0.250925 -0.011940
C27   C     C_R   0.934163 0.999921 0.026820 -0.185802
C28   C     C_R   0.934160 0.999920 0.973190 -0.188159
C29   C     C_R   0.065839 0.000068 0.026809 -0.187076
C30   C     C_R   0.065836 0.000068 0.973179 -0.186345
C31   C     C_R   0.434162 0.499888 0.526821 -0.186519
C32   C     C_R   0.434159 0.499889 0.473191 -0.187627
C33   C     C_R   0.565839 0.500048 0.526810 -0.188084
C34   C     C_R   0.859944 0.859821 0.749985 0.798597
C35   C     C_R   0.565836 0.500050 0.473180 -0.185911
C36   C     C_R   0.999997 0.999993 0.945845 0.001585
C37   C     C_R   0.000003 0.999994 0.054154 0.001402
C38   C     C_R   0.499996 0.499975 0.445846 0.001505
C39   C     C_R   0.500002 0.499973 0.554154 0.001681
C40   C     C_R   0.860399 0.140854 0.249674 0.792057
C41   C     C_R   0.859651 0.140132 0.749539 0.804590
C42   C     C_R   0.140588 0.139861 0.250676 0.789477
C43   C     C_R   0.140559 0.139929 0.749235 0.783442
C44   C     C_R   0.360400 0.640856 0.749673 0.793359
C45   C     C_R   0.640048 0.359820 0.750026 0.799880
C46   C     C_R   0.360260 0.640726 0.250171 0.799538
C47   C     C_R   0.640587 0.639862 0.750675 0.790354
C48   C     C_R   0.639579 0.640869 0.250341 0.791620
C49   C     C_R   0.000002 0.999992 0.110855 0.779448
C50   C     C_R   0.999997 0.999991 0.889144 0.778956
C51   C     C_R   0.500002 0.499985 0.610856 0.778226
C52   C     C_R   0.499997 0.499987 0.389144 0.778456
C53   C     C_R   0.000513 0.999943 0.388585 0.849941
C54   C     C_R   0.999538 0.999963 0.611417 0.850810
C55   C     C_R   0.499535 0.499943 0.888584 0.849150
C56   C     C_R   0.640126 0.359887 0.249913 0.798176
C57   C     C_R   0.500494 0.499959 0.111416 0.851490
C58   C     C_2   0.002101 0.059877 0.528124 -0.165881
C59   C     C_2   0.998682 0.059885 0.471853 -0.163668
C60   C     C_2   0.498464 0.559883 0.028115 -0.161146
C61   C     C_2   0.501920 0.559855 0.971846 -0.163033
C62   C     C_2   0.995869 0.998779 0.556002 -0.293782
C63   C     C_2   0.004285 0.998726 0.444002 -0.295993
C64   C     C_2   0.504254 0.498754 0.056000 -0.295967
C65   C     C_2   0.495849 0.498733 0.944002 -0.295502
C66   C     C_R   0.738065 0.184324 0.226110 -0.232151
C67   C     C_R   0.360017 0.359801 0.750011 0.798204
C68   C     C_R   0.748572 0.194927 0.785997 -0.237075
C69   C     C_R   0.247852 0.198498 0.211731 -0.233287
C70   C     C_R   0.246495 0.199694 0.788804 -0.216496
C71   C     C_R   0.238103 0.684365 0.726049 -0.229444
C72   C     C_R   0.239107 0.685386 0.275847 -0.236674
C73   C     C_R   0.747815 0.698534 0.711708 -0.231168
C74   C     C_R   0.762113 0.684100 0.273520 -0.231737
C75   C     C_R   0.184138 0.737072 0.726010 -0.191278
C76   C     C_R   0.185247 0.738232 0.276019 -0.192243
C77   C     C_R   0.801185 0.751849 0.711060 -0.193176
C78   C     C_R   0.359945 0.359820 0.249985 0.797924
C79   C     C_R   0.816081 0.736817 0.273562 -0.192713
C80   C     C_R   0.684102 0.237034 0.226070 -0.192644
C81   C     C_R   0.695007 0.248053 0.786502 -0.191103
C82   C     C_R   0.301221 0.251812 0.211082 -0.194311
C83   C     C_R   0.300100 0.252823 0.789519 -0.192334
C84   C     C_R   0.196696 0.804542 0.749386 -0.015380
C85   C     C_R   0.196571 0.804439 0.250520 -0.008888
C86   C     C_R   0.804503 0.803343 0.750608 -0.014996
C87   C     C_R   0.803253 0.804577 0.250666 -0.014129
C88   C     C_R   0.696694 0.304539 0.249388 -0.014252
C89   C     C_R   0.263970 0.819528 0.772045 -0.227819
C90   C     C_R   0.695699 0.303596 0.749632 -0.010137
C91   C     C_R   0.304505 0.303342 0.250609 -0.014523
C92   C     C_R   0.304773 0.303247 0.749330 -0.038120
H1    H     H_    0.008844 0.112319 0.546932 0.175122
H2    H     H_    0.747198 0.152884 0.815228 0.170925
H3    H     H_    0.245683 0.159931 0.180245 0.168694
H4    H     H_    0.243309 0.161937 0.820753 0.166931
H5    H     H_    0.226650 0.632091 0.708459 0.170169
H6    H     H_    0.228702 0.634233 0.295326 0.170306
H7    H     H_    0.745618 0.659996 0.680206 0.169222
H8    H     H_    0.773774 0.631580 0.290693 0.167572
H9    H     H_    0.132319 0.724673 0.708280 0.164667
H10   H     H_    0.134543 0.726954 0.295646 0.164005
H11   H     H_    0.839237 0.753303 0.679299 0.164241
H12   H     H_    0.992435 0.112388 0.453025 0.178432
H13   H     H_    0.868125 0.724195 0.290880 0.162718
H14   H     H_    0.632255 0.224609 0.208388 0.163467
H15   H     H_    0.653441 0.245905 0.815954 0.165904
H16   H     H_    0.339300 0.253238 0.179337 0.163872
H17   H     H_    0.337212 0.255028 0.821803 0.163856
H18   H     H_    0.274077 0.872349 0.789260 0.155926
H19   H     H_    0.272091 0.869386 0.206182 0.159719
H20   H     H_    0.758450 0.839632 0.822403 0.155539
H21   H     H_    0.725395 0.872928 0.211714 0.153931
H22   H     H_    0.774132 0.372405 0.289155 0.154511
H23   H     H_    0.492048 0.612369 0.046911 0.178235
H24   H     H_    0.750471 0.347672 0.682934 0.160954
H25   H     H_    0.258392 0.339690 0.322371 0.155366
H26   H     H_    0.260715 0.337552 0.676242 0.168517
H27   H     H_    0.882544 0.999862 0.046832 0.159367
H28   H     H_    0.882540 0.999858 0.953186 0.157964
H29   H     H_    0.117459 0.000129 0.046812 0.158499
H30   H     H_    0.117455 0.000129 0.953166 0.158819
H31   H     H_    0.382544 0.499819 0.546834 0.159409
H32   H     H_    0.382540 0.499821 0.453187 0.158674
H33   H     H_    0.617458 0.500111 0.546813 0.158049
H34   H     H_    0.508552 0.612309 0.953011 0.177840
H35   H     H_    0.617454 0.500114 0.453168 0.159477
H36   H     H_    0.925333 0.291262 0.262537 0.183797
H37   H     H_    0.887445 0.335196 0.312285 0.171787
H38   H     H_    0.830900 0.252628 0.635571 0.177464
H39   H     H_    0.884379 0.304883 0.673504 0.180668
H40   H     H_    0.168138 0.197575 0.358000 0.180975
H41   H     H_    0.158999 0.288486 0.359803 0.170993
H42   H     H_    0.159059 0.192545 0.645578 0.199026
H43   H     H_    0.103947 0.257560 0.672643 0.219610
H44   H     H_    0.425308 0.791280 0.762694 0.184120
H45   H     H_    0.986262 0.945959 0.538842 0.149614
H46   H     H_    0.387343 0.835098 0.812463 0.173094
H47   H     H_    0.374069 0.793910 0.161967 0.185210
H48   H     H_    0.406716 0.828513 0.217628 0.170270
H49   H     H_    0.668207 0.697475 0.858002 0.180651
H50   H     H_    0.659097 0.788385 0.859860 0.171372
H51   H     H_    0.574326 0.791007 0.238767 0.180578
H52   H     H_    0.611613 0.836119 0.189296 0.169119
H53   H     H_    0.013477 0.945831 0.461182 0.150009
H54   H     H_    0.513591 0.445885 0.038846 0.149159
H55   H     H_    0.486338 0.445894 0.961188 0.148962
H56   H     H_    0.726586 0.132022 0.208571 0.167430
N1    N     N_3   0.889059 0.285077 0.293175 -0.415706
N2    N     N_3   0.857478 0.254778 0.671065 -0.424829
N3    N     N_3   0.152936 0.242870 0.336088 -0.419138
N4    N     N_3   0.157125 0.244560 0.661934 -0.467434
N5    N     N_3   0.388996 0.785021 0.793300 -0.414819
N6    N     N_3   0.384783 0.781856 0.200517 -0.424693
N7    N     N_3   0.653001 0.742799 0.836122 -0.419116
N8    N     N_3   0.610336 0.785595 0.207905 -0.417404
O1    O     O_3   0.000000 0.000000 0.250030 -0.478416
O2    O     O_R   0.585480 0.353820 0.219950 -0.648174
O3    O     O_R   0.414520 0.353820 0.780050 -0.646161
O4    O     O_R   0.414520 0.353820 0.219950 -0.649234
O5    O     O_R   0.914530 0.146170 0.280090 -0.618302
O6    O     O_R   0.914530 0.146170 0.719910 -0.616590
O7    O     O_R   0.085470 0.146170 0.280090 -0.621285
O8    O     O_R   0.085470 0.146170 0.719910 -0.660017
O9    O     O_R   0.414530 0.646170 0.780090 -0.618134
O10   O     O_R   0.414530 0.646170 0.219910 -0.616691
O11   O     O_R   0.585470 0.646170 0.780090 -0.621714
O12   O     O_3   0.000000 1.000000 0.749970 -0.475379
O13   O     O_R   0.585470 0.646170 0.219910 -0.618239
O14   O     O_R   0.146180 0.085440 0.219990 -0.654209
O15   O     O_R   0.146180 0.085440 0.780010 -0.644319
O16   O     O_R   0.853820 0.085440 0.219990 -0.654293
O17   O     O_R   0.853820 0.085440 0.780010 -0.654857
O18   O     O_R   0.646180 0.585440 0.719990 -0.652793
O19   O     O_R   0.646180 0.585440 0.280010 -0.654310
O20   O     O_R   0.353820 0.585440 0.719990 -0.652241
O21   O     O_R   0.353820 0.585440 0.280010 -0.655193
O22   O     O_R   0.853820 0.914550 0.219980 -0.648203
O23   O     O_3   0.500000 0.500000 0.750030 -0.478687
O24   O     O_R   0.853820 0.914550 0.780020 -0.647872
O25   O     O_R   0.146180 0.914550 0.219980 -0.648411
O26   O     O_R   0.146180 0.914550 0.780020 -0.647820
O27   O     O_R   0.353820 0.414550 0.719980 -0.649691
O28   O     O_R   0.353820 0.414550 0.280020 -0.648640
O29   O     O_R   0.646180 0.414550 0.719980 -0.649064
O30   O     O_R   0.646180 0.414550 0.280020 -0.648397
O31   O     O_R   0.060720 0.999990 0.135450 -0.645714
O32   O     O_R   0.060720 0.999990 0.864550 -0.645025
O33   O     O_R   0.939280 0.999990 0.135450 -0.644632
O34   O     O_3   0.500000 0.500000 0.249970 -0.479098
O35   O     O_R   0.939280 0.999990 0.864550 -0.647019
O36   O     O_R   0.560720 0.499990 0.635450 -0.646693
O37   O     O_R   0.560720 0.499990 0.364550 -0.644625
O38   O     O_R   0.439280 0.499990 0.635450 -0.645717
O39   O     O_R   0.439280 0.499990 0.364550 -0.646537
O40   O     O_R   0.000000 0.939270 0.364600 -0.645335
O41   O     O_R   0.000000 0.939270 0.635400 -0.645720
O42   O     O_R   0.500000 0.439270 0.864600 -0.648095
O43   O     O_R   0.500000 0.439270 0.135400 -0.647038
O44   O     O_R   0.000000 0.060730 0.364620 -0.640152
O45   O     O_R   0.085480 0.853820 0.280050 -0.650218
O46   O     O_R   0.000000 0.060730 0.635380 -0.644135
O47   O     O_R   0.500000 0.560730 0.864620 -0.639293
O48   O     O_R   0.500000 0.560730 0.135380 -0.638803
O49   O     O_R   0.085480 0.853820 0.719950 -0.647804
O50   O     O_R   0.914520 0.853820 0.280050 -0.648407
O51   O     O_R   0.914520 0.853820 0.719950 -0.649170
O52   O     O_R   0.585480 0.353820 0.780050 -0.648983
Zn1   Zn    Zn3+2 0.000000 0.086760 0.292960 0.981604
Zn2   Zn    Zn3+2 0.586770 0.499990 0.292890 0.960162
Zn3   Zn    Zn3+2 0.413230 0.499990 0.707110 0.962214
Zn4   Zn    Zn3+2 0.413230 0.499990 0.292890 0.959684
Zn5   Zn    Zn3+2 1.000000 0.913240 0.292940 0.964328
Zn6   Zn    Zn3+2 0.000000 0.913240 0.707060 0.965613
Zn7   Zn    Zn3+2 0.500000 0.413240 0.792940 0.964555
Zn8   Zn    Zn3+2 0.500000 0.413240 0.207060 0.964214
Zn9   Zn    Zn3+2 0.000000 0.086760 0.707040 0.964627
Zn10  Zn    Zn3+2 0.500000 0.586760 0.792960 0.982632
Zn11  Zn    Zn3+2 0.500000 0.586760 0.207040 0.984725
Zn12  Zn    Zn3+2 0.086770 0.999990 0.207110 0.958437
Zn13  Zn    Zn3+2 0.086770 0.999990 0.792890 0.962942
Zn14  Zn    Zn3+2 0.913230 0.999990 0.207110 0.960964
Zn15  Zn    Zn3+2 0.913230 0.999990 0.792890 0.962495
Zn16  Zn    Zn3+2 0.586770 0.499990 0.707110 0.958793

loop_
_geom_bond_atom_site_label_1
_geom_bond_atom_site_label_2
_ccdc_geom_bond_type
O8    Zn9   S    
C58   C62   D    
C39   C51   S    
H36   N1    S    
C81   H15   S    
O1    Zn1   S    
C8    C13   A    
H44   N5    S    
C80   H14   S    
C5    H22   S    
O37   Zn2   S    
C7    H25   S    
C34   O24   A    
H41   N3    S    
C2    C15   A    
O12   Zn13  S    
C72   C76   A    
C50   O32   A    
O34   Zn11  S    
C79   C87   A    
O7    Zn1   S    
C8    H26   S    
C4    C87   A    
C72   H6    S    
C7    C11   A    
C83   C92   A    
C71   H5    S    
C9    N1    S    
C33   C39   A    
C54   O41   A    
O24   Zn15  S    
C59   H12   S    
O21   Zn4   S    
C58   H1    S    
C53   O40   A    
C34   O51   A    
C75   C84   A    
C56   C88   S    
C55   O42   A    
C38   C52   S    
O2    Zn8   S    
H43   N4    S    
O4    Zn8   S    
O23   Zn3   S    
C37   C49   S    
C79   H13   S    
C2    C85   A    
C34   C86   S    
O19   Zn2   S    
O12   Zn6   S    
C18   C40   S    
C26   C74   A    
C15   N6    S    
C56   O2    A    
C69   C82   A    
C42   O14   A    
O15   Zn13  S    
O38   Zn3   S    
C21   C43   S    
C5    C88   A    
C32   H32   S    
C3    C16   A    
C12   O26   A    
C30   H30   S    
C78   O28   A    
C23   O22   A    
O29   Zn16  S    
C29   H29   S    
H38   N2    S    
C83   H17   S    
C61   H34   S    
C8    C92   A    
C32   C38   A    
O12   Zn9   S    
C65   H55   S    
C25   C47   S    
O11   Zn10  S    
C66   H56   S    
C26   C48   S    
C60   H23   S    
C48   O19   A    
C43   O8    A    
O6    Zn9   S    
C7    C91   A    
C23   C87   S    
C41   O6    A    
C57   O43   A    
C3    C86   A    
C76   H10   S    
C46   O21   A    
C52   O39   A    
C16   N7    S    
O42   Zn7   S    
C55   C65   S    
O28   Zn4   S    
O14   Zn12  S    
O31   Zn12  S    
C24   C72   A    
C1    C85   S    
C11   C20   A    
C22   C44   S    
C2    H19   S    
O3    Zn7   S    
C52   O37   A    
O48   Zn11  S    
O43   Zn8   S    
C4    H21   S    
C35   C38   A    
O18   Zn16  S    
O36   Zn16  S    
C28   H28   S    
C1    O25   A    
O33   Zn14  S    
H49   N7    S    
C74   H8    S    
C54   C62   S    
C12   C84   S    
C58   C59   S    
C6    C90   A    
O5    Zn1   S    
C89   H18   S    
O1    Zn12  S    
C68   H2    S    
C82   C91   A    
C60   C61   S    
C4    C17   A    
H52   N8    S    
C70   H4    S    
C14   C89   A    
C5    C9    A    
C29   C30   A    
C70   C83   A    
C47   O11   A    
C6    H24   S    
C31   C32   A    
C49   O31   A    
C3    H20   S    
H42   N4    S    
O25   Zn12  S    
C33   H33   S    
C13   C21   A    
C19   C68   A    
C35   H35   S    
C50   O35   A    
O45   Zn5   S    
C67   O27   A    
O9    Zn10  S    
C81   C90   A    
H46   N5    S    
C78   O4    A    
C15   C24   A    
O13   Zn11  S    
C56   O30   A    
C77   C86   A    
O52   Zn7   S    
C82   H16   S    
C74   C79   A    
O30   Zn2   S    
O23   Zn10  S    
O1    Zn14  S    
H50   N7    S    
C20   C69   A    
C77   H11   S    
C18   C66   A    
C84   C89   A    
C17   C26   A    
O12   Zn15  S    
C29   C37   A    
O17   Zn15  S    
O35   Zn15  S    
C22   C71   A    
C40   O16   A    
C36   C50   S    
O46   Zn9   S    
C57   C64   S    
C10   C19   A    
C11   N3    S    
C16   C25   A    
C73   H7    S    
C41   O17   A    
O26   Zn13  S    
C43   O15   A    
C46   O10   A    
O47   Zn10  S    
C64   H54   S    
C42   O7    A    
C53   O44   A    
O1    Zn5   S    
C10   N2    S    
C55   O47   A    
C44   O20   A    
C13   N4    S    
O50   Zn5   S    
C69   H3    S    
C51   O38   A    
O49   Zn6   S    
C20   C42   S    
O34   Zn4   S    
C27   H27   S    
C78   C91   S    
C45   O52   A    
C66   C80   A    
C1    O45   A    
C21   C70   A    
C59   C63   D    
O44   Zn1   S    
H47   N6    S    
O20   Zn3   S    
C30   C36   A    
O23   Zn16  S    
C60   C64   D    
C24   C46   S    
C12   O49   A    
C14   C22   A    
O34   Zn2   S    
C31   H31   S    
O39   Zn4   S    
C14   N5    S    
C54   O46   A    
O32   Zn13  S    
C71   C75   A    
O40   Zn5   S    
C53   C63   S    
C45   O29   A    
H51   N8    S    
C68   C81   A    
O34   Zn8   S    
C23   O50   A    
C27   C37   A    
C76   C85   A    
C57   O48   A    
C67   C92   S    
C33   C35   A    
C31   C39   A    
C25   C73   A    
C44   O9    A    
O51   Zn6   S    
C62   H45   S    
C47   O18   A    
O16   Zn14  S    
C6    C10   A    
O41   Zn6   S    
C48   O13   A    
C61   C65   D    
C9    C18   A    
C40   O5    A    
C49   O33   A    
C28   C36   A    
C80   C88   A    
O23   Zn7   S    
C27   C28   A    
C75   H9    S    
H40   N3    S    
C73   C77   A    
O22   Zn14  S    
H39   N2    S    
C67   O3    A    
H37   N1    S    
C17   N8    S    
O27   Zn3   S    
O10   Zn11  S    
C63   H53   S    
C45   C90   S    
C51   O36   A    
C19   C41   S    
H48   N6    S    
