data_mof_unit_45029.cif
_audit_creation_date              2012-12-11T14:41:09-0500
_audit_creation_method            fapswitch 2.2
_symmetry_space_group_name_H-M    P1
_symmetry_Int_Tables_number       1
_space_group_crystal_system       triclinic
_cell_length_a                    6.931994
_cell_length_b                    17.824567
_cell_length_c                    19.115365
_cell_angle_alpha                 89.969609
_cell_angle_beta                  91.096911
_cell_angle_gamma                 89.65972
_cell_volume                      2361.41555074

loop_
_atom_site_label
_atom_site_type_symbol
_atom_type_description
_atom_site_fract_x
_atom_site_fract_y
_atom_site_fract_z
_atom_type_partial_charge
O1    O     O_R   0.377350 0.828520 0.186660 -0.516813
O2    O     O_R   0.622650 0.171480 0.813340 -0.517040
O3    O     O_R   0.122650 0.171480 0.686660 -0.549696
O4    O     O_R   0.877350 0.828520 0.313340 -0.548413
O5    O     O_R   0.877350 0.671480 0.313340 -0.541170
O6    O     O_R   0.122650 0.328520 0.686660 -0.540301
O7    O     O_R   0.622650 0.328520 0.813340 -0.543227
O8    O     O_R   0.377350 0.671480 0.186660 -0.543976
O9    O     O_R   0.707090 0.671930 0.178410 -0.527598
O10   O     O_R   0.292910 0.328070 0.821590 -0.526671
O11   O     O_R   0.792910 0.328070 0.678410 -0.517857
O12   O     O_R   0.207090 0.671930 0.321590 -0.518714
O13   O     O_R   0.207090 0.828070 0.321590 -0.501403
O14   O     O_R   0.792910 0.171930 0.678410 -0.502890
O15   O     O_R   0.292910 0.171930 0.821590 -0.551260
O16   O     O_R   0.707090 0.828070 0.178410 -0.550250
C1    C     C_R   0.538071 0.646588 0.160999 0.767719
C2    C     C_R   0.461927 0.353422 0.838991 0.770894
C3    C     C_R   0.959631 0.353734 0.660974 0.771574
C4    C     C_R   0.040389 0.646188 0.338965 0.768105
C5    C     C_R   0.040287 0.853720 0.339191 0.768437
C6    C     C_R   0.959609 0.145598 0.661530 0.761931
C7    C     C_R   0.464113 0.145994 0.838380 0.766337
C8    C     C_R   0.535706 0.853369 0.160964 0.769150
O17   O     O_3   0.543850 0.750000 0.294270 -0.362770
O18   O     O_3   0.456150 0.250000 0.705730 -0.362651
O19   O     O_3   0.956150 0.250000 0.794270 -0.376586
O20   O     O_3   0.043850 0.750000 0.205730 -0.377706
V1    V     V_3+5 0.818700 0.750000 0.241790 1.546696
V2    V     V_3+5 0.181300 0.250000 0.758210 1.541255
V3    V     V_3+5 0.681300 0.250000 0.741790 1.609978
V4    V     V_3+5 0.318700 0.750000 0.258210 1.617227
C9    C     C_R   0.959204 0.414940 0.607464 -0.237862
C10   C     C_R   0.040859 0.584890 0.392416 -0.236555
C11   C     C_R   0.532393 0.584734 0.108509 -0.236751
C12   C     C_R   0.467611 0.415285 0.891473 -0.237411
C13   C     C_R   0.485395 0.083920 0.890342 -0.251810
C14   C     C_R   0.512947 0.914237 0.107830 -0.250973
C15   C     C_R   0.044519 0.913373 0.394391 -0.252511
C16   C     C_R   0.956495 0.083910 0.608336 -0.256343
C17   C     C_R   0.178158 0.465634 0.434462 0.364401
C18   C     C_R   0.822023 0.534194 0.565412 0.364507
C19   C     C_R   0.363377 0.542017 0.923802 0.367176
C20   C     C_R   0.636688 0.458013 0.076168 0.367140
C21   C     C_R   0.349725 0.031399 0.073794 0.365492
C22   C     C_R   0.633752 0.962858 0.921659 0.362989
C23   C     C_R   0.786598 0.976338 0.556058 0.355798
C24   C     C_R   0.227285 0.014149 0.452306 0.373432
C25   C     C_R   0.172229 0.525114 0.385130 0.213191
C26   C     C_R   0.828043 0.474775 0.614786 0.213014
C27   C     C_R   0.364022 0.481276 0.875856 0.206771
C28   C     C_R   0.636012 0.518749 0.124120 0.207136
C29   C     C_R   0.397705 0.976436 0.124845 0.207603
C30   C     C_R   0.604954 0.022721 0.873644 0.209563
C31   C     C_R   0.799592 0.033607 0.607186 0.248857
C32   C     C_R   0.200805 0.963800 0.395798 0.243802
C33   C     C_R   0.921590 0.587747 0.451921 0.338158
C34   C     C_R   0.078258 0.411956 0.547896 0.338613
C35   C     C_R   0.561784 0.407226 0.957757 0.342897
C36   C     C_R   0.438236 0.592798 0.042220 0.342860
C37   C     C_R   0.590377 0.908471 0.039865 0.344578
C38   C     C_R   0.402388 0.087995 0.957438 0.346884
C39   C     C_R   0.098591 0.077866 0.556360 0.320017
C40   C     C_R   0.905510 0.917470 0.447703 0.321388
C41   C     C_R   0.934465 0.530411 0.504067 -0.099530
C42   C     C_R   0.065524 0.469334 0.495771 -0.099221
C43   C     C_R   0.550783 0.466168 0.008386 -0.098520
C44   C     C_R   0.449267 0.533862 0.991588 -0.098460
C45   C     C_R   0.556307 0.966996 0.989821 -0.095796
C46   C     C_R   0.435908 0.029213 0.007095 -0.099032
C47   C     C_R   0.083645 0.021674 0.503565 -0.102399
C48   C     C_R   0.922618 0.972403 0.501710 -0.113249
O21   O     O_3   0.206137 0.353119 0.538983 -0.579118
H1    H     H_    0.153956 0.307463 0.560738 0.272392
O22   O     O_3   0.793324 0.646446 0.460733 -0.578936
H2    H     H_    0.846177 0.692188 0.439388 0.271634
O23   O     O_3   0.337097 0.657707 0.024988 -0.577381
H3    H     H_    0.370138 0.698827 0.057615 0.275055
O24   O     O_3   0.662907 0.342314 0.974988 -0.577498
H4    H     H_    0.629643 0.301170 0.942415 0.275325
O25   O     O_3   0.295718 0.150180 0.977042 -0.574824
H5    H     H_    0.332852 0.194479 0.949339 0.280907
O26   O     O_3   0.698523 0.846452 0.020913 -0.575255
H6    H     H_    0.667356 0.803010 0.050722 0.280053
O27   O     O_3   0.751066 0.868993 0.447608 -0.576290
H7    H     H_    0.797325 0.818741 0.433820 0.289565
O28   O     O_3   0.248207 0.128511 0.554191 -0.580550
H8    H     H_    0.196232 0.178950 0.564544 0.287569
O29   O     O_3   0.707419 0.474328 0.671582 -0.626708
H9    H     H_    0.584308 0.499421 0.658083 0.314632
O30   O     O_3   0.293123 0.525676 0.328414 -0.626508
H10   H     H_    0.416225 0.500606 0.341963 0.314782
O31   O     O_3   0.735761 0.514952 0.187402 -0.632249
H11   H     H_    0.850160 0.482037 0.181987 0.308648
O32   O     O_3   0.264272 0.485070 0.812574 -0.632427
H12   H     H_    0.149907 0.518004 0.817981 0.308507
O33   O     O_3   0.693337 0.022832 0.809429 -0.611676
H13   H     H_    0.819213 0.996503 0.814053 0.306753
O34   O     O_3   0.334174 0.982472 0.192671 -0.619490
H14   H     H_    0.316267 0.036230 0.204111 0.306937
O35   O     O_3   0.326074 0.963468 0.340399 -0.603295
H15   H     H_    0.382544 0.014068 0.335399 0.307829
O36   O     O_3   0.658875 0.041290 0.656996 -0.602958
H16   H     H_    0.532638 0.027222 0.635764 0.325419
O37   O     O_3   0.291025 0.402907 0.422612 -0.590492
H17   H     H_    0.296627 0.393861 0.371549 0.307464
O38   O     O_3   0.709391 0.596981 0.577289 -0.590827
H18   H     H_    0.704105 0.606089 0.628349 0.306633
O39   O     O_3   0.282050 0.610091 0.904489 -0.583243
H19   H     H_    0.298330 0.617483 0.853565 0.309518
O40   O     O_3   0.718066 0.389946 0.095474 -0.583020
H20   H     H_    0.701803 0.382547 0.146398 0.310279
O41   O     O_3   0.214319 0.086305 0.087875 -0.584275
H21   H     H_    0.117500 0.065483 0.119937 0.304698
O42   O     O_3   0.735178 0.899524 0.902097 -0.584686
H22   H     H_    0.712566 0.890568 0.851451 0.309735
O43   O     O_3   0.643111 0.922997 0.559517 -0.594120
H23   H     H_    0.613391 0.913578 0.609241 0.306977
O44   O     O_3   0.395758 0.054892 0.458918 -0.594679
H24   H     H_    0.503515 0.025089 0.439620 0.317036

loop_
_geom_bond_atom_site_label_1
_geom_bond_atom_site_label_2
_ccdc_geom_bond_type
O28   H8    S    
C9    C34   A    
O21   H1    S    
O13   V4    S    
O32   H12   S    
O14   V3    S    
C12   C35   A    
C19   C27   A    
O25   H5    S    
O5    C4    A    
O23   H3    S    
C29   O34   S    
O6    C3    A    
O11   C3    A    
O31   H11   S    
C16   C39   A    
C17   O37   S    
C22   O42   S    
O26   H6    S    
O20   V1    S    
C32   O35   S    
O27   H7    S    
O42   H22   S    
C31   O36   S    
C38   C46   A    
C22   C45   A    
O36   H16   S    
C35   C43   A    
C34   C42   A    
C15   C32   A    
C19   C44   A    
C18   C41   A    
C8    C14   S    
O38   H18   S    
C30   O33   S    
C18   O38   S    
O4    V1    S    
O9    V1    S    
C14   C37   A    
C4    C10   S    
C20   C28   A    
O17   V4    S    
O15   C7    A    
O11   V3    S    
O18   V3    S    
O16   C8    A    
O12   V4    S    
O19   V2    S    
C22   C30   A    
C25   O30   S    
C17   C25   A    
O33   H13   S    
C24   O44   S    
O5    V1    S    
O17   V1    S    
C36   O23   S    
O7    V3    S    
O19   V3    S    
C43   C44   A    
O8    V4    S    
O35   H15   S    
O20   V4    S    
C37   O26   S    
C35   O24   S    
O30   H10   S    
C9    C26   A    
C7    C13   S    
O1    V4    S    
C11   C36   A    
O3    V2    S    
O22   H2    S    
C15   C40   A    
C10   C33   A    
O10   V2    S    
C26   O29   S    
O34   H14   S    
C5    C15   S    
O7    C2    A    
C6    C16   S    
O12   C4    A    
O13   C5    A    
C28   O31   S    
C12   C27   A    
C18   C26   A    
C13   C30   A    
O9    C1    A    
O6    V2    S    
C38   O25   S    
C39   C47   A    
O18   V2    S    
C3    C9    S    
C24   C47   A    
C40   O27   S    
C11   C28   A    
O15   V2    S    
C23   C31   A    
O41   H21   S    
C37   C45   A    
C24   C32   A    
C10   C25   A    
O40   H20   S    
C39   O28   S    
C21   C46   A    
C33   C41   A    
C20   C43   A    
C16   C31   A    
O44   H24   S    
C17   C42   A    
C19   O39   S    
O37   H17   S    
O8    C1    A    
C33   O22   S    
O16   V1    S    
C47   C48   A    
O43   H23   S    
O4    C5    A    
O14   C6    A    
C14   C29   A    
O10   C2    A    
C40   C48   A    
C45   C46   A    
C23   C48   A    
C21   C29   A    
O24   H4    S    
C20   O40   S    
C21   O41   S    
C23   O43   S    
C36   C44   A    
O1    C8    A    
C41   C42   A    
O2    C7    A    
C13   C38   A    
O2    V3    S    
O3    C6    A    
C1    C11   S    
O29   H9    S    
O39   H19   S    
C2    C12   S    
C34   O21   S    
C27   O32   S    
