data_mof_unit_24230.cif
_audit_creation_date              2013-03-05T16:37:41-0500
_audit_creation_method            fapswitch 2.2
_symmetry_space_group_name_H-M    P1
_symmetry_Int_Tables_number       1
_space_group_crystal_system       triclinic
_cell_length_a                    18.636032
_cell_length_b                    18.627806
_cell_length_c                    19.044989
_cell_angle_alpha                 109.836689
_cell_angle_beta                  109.765411
_cell_angle_gamma                 109.081153
_cell_volume                      5072.28173784

loop_
_atom_site_label
_atom_site_type_symbol
_atom_site_description
_atom_site_fract_x
_atom_site_fract_y
_atom_site_fract_z
_atom_type_partial_charge
O1    O     O_R   0.408360 0.551710 0.460090 -0.605708
O2    O     O_R   0.408390 0.448280 0.356670 -0.609501
C1    C     C_R   0.381855 0.502380 0.380459 0.858838
O3    O     O_R   0.591600 0.643340 0.551710 -0.605254
O4    O     O_R   0.591630 0.539900 0.448290 -0.630092
C2    C     C_R   0.621142 0.620696 0.501495 0.846912
Zn1   Zn    Zn3+2 0.499980 0.569070 0.569050 1.071661
Zn2   Zn    Zn3+2 0.500020 0.430930 0.430950 1.017538
O5    O     O_R   0.591610 0.551720 0.643330 -0.597523
O6    O     O_R   0.591640 0.448290 0.539910 -0.624576
O7    O     O_R   0.408370 0.460100 0.551710 -0.596700
O8    O     O_R   0.408400 0.356660 0.448290 -0.614641
C3    C     C_R   0.621956 0.501450 0.619437 0.891294
C4    C     C_R   0.377876 0.379526 0.497759 0.868107
H1    H     H_    0.846759 0.795635 0.891112 0.190140
C5    C     C_R   0.773332 0.818427 0.795337 -0.135154
H2    H     H_    0.750809 0.850347 0.834966 0.199533
C6    C     C_R   0.751053 0.811747 0.714305 0.389651
C7    C     C_R   0.781540 0.769465 0.664152 -0.027672
C8    C     C_R   0.836496 0.739043 0.697273 -0.226635
H3    H     H_    0.862223 0.709012 0.660323 0.152694
C9    C     C_R   0.860177 0.748617 0.778617 -0.119039
H4    H     H_    0.904219 0.726222 0.802908 0.145110
C10   C     C_R   0.828090 0.787545 0.827520 -0.123634
C11   C     C_R   0.824821 0.819730 0.574751 -0.117252
H5    H     H_    0.884512 0.874003 0.634312 0.190046
C12   C     C_R   0.811394 0.811277 0.495223 -0.088302
C13   C     C_R   0.732916 0.742359 0.417374 0.012630
C14   C     C_R   0.671968 0.679645 0.421735 -0.267260
H6    H     H_    0.612882 0.623948 0.362671 0.164694
C15   C     C_R   0.686030 0.688131 0.501447 -0.075533
C16   C     C_R   0.761514 0.759916 0.578815 0.041054
C17   C     C_R   0.631393 0.719524 0.275996 -0.217554
H7    H     H_    0.586349 0.724403 0.298782 0.155517
C18   C     C_R   0.607371 0.700177 0.191164 -0.184571
H8    H     H_    0.544365 0.690630 0.149991 0.207713
C19   C     C_R   0.663667 0.691704 0.159539 0.485500
C20   C     C_R   0.745407 0.705450 0.214410 -0.177863
H9    H     H_    0.789859 0.699392 0.191236 0.214578
C21   C     C_R   0.769655 0.725453 0.299473 -0.215880
H10   H     H_    0.832444 0.735202 0.340693 0.128223
C22   C     C_R   0.712384 0.731309 0.330663 0.147830
H11   H     H_    0.586281 0.910458 0.560548 0.226115
C23   C     C_R   0.452076 0.812624 0.509402 0.330436
C24   C     C_R   0.385030 0.725441 0.446451 -0.236976
H12   H     H_    0.320766 0.701264 0.440692 0.169117
C25   C     C_R   0.399606 0.669627 0.388908 0.084654
C26   C     C_R   0.481963 0.700476 0.395014 -0.179348
H13   H     H_    0.493198 0.658026 0.350152 0.131854
C27   C     C_R   0.548861 0.787158 0.457113 -0.147780
H14   H     H_    0.612119 0.811393 0.460901 0.199381
C28   C     C_R   0.533890 0.843239 0.513526 -0.054868
C29   C     C_R   0.261622 0.577769 0.249509 -0.236498
H15   H     H_    0.268923 0.638188 0.249930 0.161350
C30   C     C_R   0.186426 0.497123 0.183841 -0.058557
C31   C     C_R   0.173956 0.418640 0.185103 0.064375
C32   C     C_R   0.241459 0.422304 0.248923 -0.231766
H16   H     H_    0.233667 0.362397 0.249972 0.165544
C33   C     C_R   0.316246 0.503138 0.314736 -0.086694
C34   C     C_R   0.325521 0.582003 0.317177 0.020778
C35   C     C_R   0.037217 0.309424 0.163969 -0.229621
H17   H     H_    0.059962 0.352086 0.231203 0.179640
C36   C     C_R   0.956648 0.230214 0.113426 0.316238
C37   C     C_R   0.928619 0.175702 0.026496 -0.225083
H18   H     H_    0.866672 0.114361 0.987096 0.235349
C38   C     C_R   0.979970 0.199492 0.990000 0.285422
C39   C     C_R   0.060167 0.279879 0.041532 -0.162581
H19   H     H_    0.100762 0.299235 0.014734 0.223436
C40   C     C_R   0.088931 0.334743 0.128519 0.005361
H20   H     H_    0.175483 0.580715 0.489553 0.181100
C41   C     C_R   0.195231 0.513481 0.561455 0.373250
C42   C     C_R   0.212715 0.446017 0.563619 -0.230278
H21   H     H_    0.217272 0.432748 0.615555 0.163600
C43   C     C_R   0.224100 0.395233 0.498849 0.082249
C44   C     C_R   0.216373 0.411529 0.430670 -0.090825
H22   H     H_    0.222621 0.371644 0.379033 0.114615
C45   C     C_R   0.199165 0.478471 0.428152 -0.184757
H23   H     H_    0.192960 0.490719 0.375404 0.151576
C46   C     C_R   0.188964 0.529380 0.493139 -0.159355
C47   C     C_R   0.178146 0.256956 0.502333 -0.228429
H24   H     H_    0.122851 0.262177 0.505472 0.159994
C48   C     C_R   0.187412 0.184975 0.500000 -0.049698
C49   C     C_R   0.257097 0.175186 0.493848 0.073635
C50   C     C_R   0.317548 0.239352 0.490713 -0.080784
H25   H     H_    0.371999 0.232987 0.486476 0.158870
C51   C     C_R   0.309515 0.312500 0.494981 -0.073263
C52   C     C_R   0.238891 0.321775 0.499975 0.022922
C53   C     C_R   0.297824 0.088033 0.557636 -0.101465
H26   H     H_    0.314565 0.137560 0.619805 0.206402
C54   C     C_R   0.308622 0.015750 0.551097 -0.071507
H27   H     H_    0.333008 0.009464 0.607704 0.198945
C55   C     C_R   0.288547 0.951910 0.471742 -0.148629
H28   H     H_    0.296896 0.895889 0.466589 0.187723
C56   C     C_R   0.258192 0.960423 0.398886 -0.220962
H29   H     H_    0.243670 0.910570 0.338164 0.156315
C57   C     C_R   0.245679 0.032036 0.404042 0.319342
C58   C     C_R   0.264993 0.096215 0.484345 -0.051689
H30   H     H_    0.613062 0.479407 0.744780 0.227415
C59   C     C_R   0.783887 0.524964 0.618937 -0.160178
H31   H     H_    0.742032 0.537071 0.574694 0.145409
C60   C     C_R   0.857182 0.526627 0.613893 -0.148499
H32   H     H_    0.869653 0.538412 0.566197 0.140844
C61   C     C_R   0.913322 0.511411 0.668978 -0.109509
H33   H     H_    0.968763 0.509989 0.663255 0.178702
C62   C     C_R   0.898299 0.497962 0.731534 -0.162899
H34   H     H_    0.942062 0.483049 0.770230 0.158839
C63   C     C_R   0.826792 0.500772 0.741016 0.043197
C64   C     C_R   0.766286 0.509180 0.680603 0.096582
C65   C     C_R   0.689852 0.501701 0.683741 -0.183499
C66   C     C_R   0.673611 0.487446 0.745235 -0.193451
C67   C     C_R   0.734200 0.483380 0.807549 0.300778
C68   C     C_R   0.812477 0.493019 0.807483 -0.281436
O9    O     O_R   0.051730 0.908360 0.460070 -0.633546
O10   O     O_R   0.948280 0.908380 0.356650 -0.600699
C69   C     C_R   0.999852 0.878854 0.380728 0.850473
O11   O     O_R   0.960110 0.908350 0.551690 -0.622950
O12   O     O_R   0.856660 0.908370 0.448270 -0.586352
C70   C     C_R   0.879260 0.877753 0.497219 0.903287
Zn3   Zn    Zn3+2 0.069080 0.999960 0.569030 1.015579
Zn4   Zn    Zn3+2 0.930920 0.999990 0.430930 1.086832
O13   O     O_R   0.051720 0.091580 0.643310 -0.597690
O14   O     O_R   0.948270 0.091600 0.539890 -0.596002
O15   O     O_R   0.143340 0.091590 0.551680 -0.646368
O16   O     O_R   0.039890 0.091610 0.448270 -0.597689
C71   C     C_R   0.000051 0.120427 0.619589 0.946185
C72   C     C_R   0.120541 0.119026 0.499432 0.864438
O17   O     O_R   0.051710 0.460040 0.908380 -0.590902
O18   O     O_R   0.948270 0.356620 0.908410 -0.627079
C73   C     C_R   0.999317 0.379462 0.879508 0.915188
O19   O     O_R   0.143330 0.551680 0.091590 -0.593216
O20   O     O_R   0.039890 0.448260 0.091620 -0.628479
C74   C     C_R   0.120297 0.498278 0.118513 0.891344
Zn5   Zn    Zn3+2 0.069060 0.569020 0.999970 1.028258
Zn6   Zn    Zn3+2 0.930920 0.430910 0.000010 1.080132
O21   O     O_R   0.051700 0.643310 0.091570 -0.642259
O22   O     O_R   0.948260 0.539890 0.091600 -0.584148
O23   O     O_R   0.960080 0.551670 0.908360 -0.636230
O24   O     O_R   0.856640 0.448250 0.908390 -0.574202
C75   C     C_R   0.999904 0.620773 0.119669 0.879175
C76   C     C_R   0.879388 0.497274 0.877559 0.904561
H35   H     H_    0.997078 0.675979 0.575039 0.145908
C77   C     C_R   0.074855 0.753184 0.538693 -0.079007
H36   H     H_    0.133907 0.790498 0.601547 0.170606
C78   C     C_R   0.075840 0.769547 0.472486 -0.091692
H37   H     H_    0.136251 0.819146 0.484606 0.148759
C79   C     C_R   0.999052 0.722283 0.391133 0.088355
C80   C     C_R   0.922945 0.654953 0.375581 -0.179358
H38   H     H_    0.864195 0.615350 0.312223 0.157475
C81   C     C_R   0.922023 0.639073 0.442054 -0.137843
H39   H     H_    0.862697 0.588205 0.430167 0.145656
C82   C     C_R   0.997805 0.688463 0.523692 -0.086604
C83   C     C_R   0.997272 0.674945 0.253233 -0.222739
H40   H     H_    0.993282 0.615685 0.253737 0.164605
C84   C     C_R   0.002061 0.688438 0.186917 -0.070268
C85   C     C_R   0.010810 0.766463 0.186841 0.037460
C86   C     C_R   0.010805 0.828687 0.252130 -0.140900
H41   H     H_    0.015550 0.888177 0.251777 0.194789
C87   C     C_R   0.003655 0.814020 0.317251 -0.103064
C88   C     C_R   0.000333 0.738313 0.320342 -0.010798
C89   C     C_R   0.100969 0.820211 0.127084 -0.073005
H42   H     H_    0.159131 0.848556 0.188313 0.157080
C90   C     C_R   0.110271 0.815208 0.056215 -0.067788
H43   H     H_    0.175198 0.843365 0.064044 0.156121
C91   C     C_R   0.035922 0.768894 0.974379 -0.140650
H44   H     H_    0.043182 0.761026 0.918649 0.153523
C92   C     C_R   0.952245 0.731867 0.964291 -0.222718
H45   H     H_    0.895228 0.693396 0.900399 0.161105
C93   C     C_R   0.941289 0.742023 0.035722 0.315621
C94   C     C_R   0.017052 0.781612 0.117287 -0.009199
C95   C     C_R   0.298262 0.265941 0.799773 -0.305556
H46   H     H_    0.340018 0.245364 0.832580 0.196631
C96   C     C_R   0.218934 0.248657 0.799584 0.345225
C97   C     C_R   0.165298 0.277032 0.757514 0.044002
C98   C     C_R   0.192474 0.321630 0.716883 -0.245138
H47   H     H_    0.152121 0.343553 0.684342 0.178822
C99   C     C_R   0.272623 0.340251 0.719750 -0.188708
H48   H     H_    0.293895 0.377134 0.690547 0.183602
C100  C     C_R   0.325655 0.312411 0.761000 0.432754
C101  C     C_R   0.080010 0.324260 0.819790 0.335498
C102  C     C_R   0.998899 0.312886 0.812988 -0.236622
C103  C     C_R   0.918024 0.240037 0.741397 -0.111227
C104  C     C_R   0.918630 0.175094 0.678351 0.319995
C105  C     C_R   0.999697 0.186674 0.685242 -0.232780
C106  C     C_R   0.080423 0.261463 0.754630 -0.078295
C107  C     C_R   0.791504 0.188354 0.765826 -0.106992
H49   H     H_    0.820614 0.158456 0.797347 0.208613
C108  C     C_R   0.714662 0.186512 0.762559 0.400461
C109  C     C_R   0.677641 0.226268 0.722552 -0.154022
H50   H     H_    0.618414 0.225664 0.719586 0.199132
C110  C     C_R   0.717696 0.268107 0.686755 -0.176571
H51   H     H_    0.689064 0.298892 0.656064 0.173750
C111  C     C_R   0.795588 0.271803 0.692027 -0.139485
H52   H     H_    0.826978 0.305766 0.665510 0.150536
C112  C     C_R   0.832965 0.232083 0.731796 0.102818
S1    S     S_3+6 0.631385 0.662834 0.051324 0.105105
O25   O     O_2   0.677366 0.744025 0.048669 -0.221404
O26   O     O_2   0.656850 0.596842 0.013989 -0.167340
O27   O     O_3   0.521893 0.619191 0.992743 -0.527759
H53   H     H_    0.509417 0.604438 0.933270 0.409996
N1    N     N_R   0.436657 0.869999 0.567702 0.213018
O28   O     O_R   0.491958 0.954278 0.614921 -0.311352
O29   O     O_R   0.366834 0.838605 0.573623 -0.401104
N2    N     N_R   0.903767 0.205066 0.150319 0.232616
O30   O     O_R   0.828458 0.132172 0.103347 -0.316275
O31   O     O_R   0.930443 0.254779 0.231301 -0.369699
N3    N     N_R   0.951005 0.141455 0.901388 0.212962
O32   O     O_R   0.882299 0.063032 0.856967 -0.349511
O33   O     O_R   0.993093 0.166189 0.864232 -0.351741
N4    N     N_R   0.183156 0.564898 0.627725 0.211298
O34   O     O_R   0.166072 0.626692 0.625272 -0.395047
O35   O     O_R   0.188341 0.549924 0.690751 -0.375339
N5    N     N_R   0.700657 0.850411 0.685535 0.213717
O36   O     O_R   0.721321 0.893621 0.647768 -0.350648
O37   O     O_R   0.643075 0.854162 0.708499 -0.337055
N6    N     N_R   0.214790 0.039390 0.328138 0.186511
O38   O     O_R   0.244134 0.020041 0.275416 -0.398517
O39   O     O_R   0.155507 0.062894 0.309854 -0.391762
N7    N     N_R   0.713995 0.467450 0.869049 0.249680
O40   O     O_R   0.766416 0.522188 0.951718 -0.305714
O41   O     O_R   0.640031 0.400111 0.841945 -0.311291
N8    N     N_R   0.854002 0.712437 0.024009 0.239365
O42   O     O_R   0.842279 0.730445 0.089998 -0.345521
O43   O     O_R   0.786700 0.679188 0.948418 -0.346475
S2    S     S_3+6 0.428997 0.340637 0.769105 0.043448
O44   O     O_2   0.427129 0.346670 0.691905 -0.315451
O45   O     O_2   0.496158 0.428956 0.849140 -0.202444
O46   O     O_3   0.457052 0.264905 0.775395 -0.547181
H54   H     H_    0.484976 0.283063 0.837494 0.380800
N9    N     N_R   0.194128 0.202133 0.841610 0.231134
O47   O     O_R   0.160871 0.226949 0.888809 -0.312432
O48   O     O_R   0.215926 0.142735 0.842715 -0.365837
N10   N     N_R   0.162028 0.398277 0.893976 0.229475
O49   O     O_R   0.216415 0.453997 0.884733 -0.341606
O50   O     O_R   0.181468 0.411314 0.971191 -0.378791
N11   N     N_R   0.837524 0.095994 0.609254 0.220293
O51   O     O_R   0.774246 0.100059 0.557429 -0.374430
O52   O     O_R   0.826522 0.019639 0.598674 -0.355782
S3    S     S_3+6 0.668278 0.138296 0.812635 0.101262
O53   O     O_2   0.663415 0.050422 0.787565 -0.152475
O54   O     O_2   0.726232 0.196798 0.909136 -0.305022
O55   O     O_3   0.566640 0.124459 0.782973 -0.470289
H55   H     H_    0.575907 0.183186 0.818737 0.369709

loop_
_geom_bond_atom_site_label_1
_geom_bond_atom_site_label_2
_geom_bond_distance
_ccdc_geom_bond_type
N2    O30   1.301621 A    
Zn2   O6    2.028125 S    
C44   H22   1.082046 S    
Zn5   O23   2.016144 S    
C110  H51   1.082513 S    
H30   C66   1.085263 S    
C71   C105  1.431784 S    
C63   C68   1.421880 A    
C68   C76   1.442353 S    
O19   C74   1.285527 A    
C80   H38   1.083152 S    
C107  C112  1.402178 A    
C30   C31   1.413290 A    
O20   Zn6   2.016021 S    
O18   C73   1.279644 A    
C41   C46   1.405526 A    
O10   C69   1.286544 A    
C32   H16   1.085336 S    
N7    O40   1.300704 A    
C91   C92   1.395936 A    
C45   H23   1.081133 S    
C64   C65   1.409060 A    
O21   C75   1.277219 A    
C59   C64   1.416038 A    
C62   C63   1.418862 A    
S3    O55   1.682721 S    
C60   H32   1.082646 S    
C57   N6    1.436326 S    
C36   N2    1.440212 S    
C95   C100  1.398242 A    
C17   C22   1.405606 A    
C19   S1    1.759651 S    
C55   H28   1.081579 S    
C13   C14   1.387041 A    
C18   C19   1.399799 A    
C19   C20   1.401717 A    
C50   C51   1.397178 A    
C6    C7    1.415825 A    
C47   C52   1.385270 A    
N6    O39   1.301167 A    
O4    C2    1.281123 A    
C38   N3    1.439541 S    
O7    C4    1.277575 A    
N3    O33   1.299481 A    
H11   C28   1.082322 S    
C107  C108  1.400692 A    
C95   H46   1.082389 S    
S1    O26   1.502785 D    
C103  C104  1.391984 A    
C31   C32   1.384896 A    
C109  C110  1.397813 A    
O55   H55   0.990835 S    
C9    H4    1.076931 S    
C35   C36   1.402926 A    
O46   H54   0.990508 S    
O5    C3    1.278621 A    
C66   C67   1.378300 A    
C48   C72   1.429414 S    
Zn1   O7    2.010490 S    
C3    C65   1.430056 S    
C17   C18   1.396682 A    
C25   C34   1.474546 S    
O9    Zn3   2.025990 S    
C54   C55   1.394702 A    
C61   C62   1.393855 A    
C49   C50   1.383805 A    
C97   C106  1.489802 S    
N1    O28   1.301025 A    
C41   N4    1.439984 S    
C27   C28   1.398232 A    
C89   C94   1.404974 A    
C87   C88   1.413459 A    
C99   H48   1.081147 S    
O27   H53   0.990636 S    
C67   N7    1.436245 S    
C43   C52   1.487062 S    
C93   N8    1.443808 S    
C53   C58   1.404854 A    
Zn2   O8    2.021241 S    
C42   H21   1.081419 S    
S1    O27   1.682085 S    
C53   H26   1.082128 S    
C23   C28   1.405763 A    
C11   C16   1.378470 A    
C24   C25   1.403018 A    
C38   C39   1.409440 A    
C83   C88   1.383085 A    
C33   C34   1.404418 A    
C5    C10   1.395734 A    
N8    O43   1.301922 A    
O1    Zn1   2.028125 S    
S2    O44   1.501884 D    
C92   C93   1.402353 A    
N11   O52   1.300977 A    
C81   C82   1.397473 A    
C100  S2    1.758145 S    
C35   H17   1.082995 S    
O22   C75   1.280408 A    
C7    C16   1.470544 S    
C55   C56   1.395528 A    
C73   C102  1.436584 S    
C29   C34   1.384491 A    
Zn4   O14   2.026072 S    
C17   H7    1.082012 S    
C90   C91   1.392320 A    
C29   C30   1.395653 A    
C29   H15   1.085488 S    
O23   C76   1.279030 A    
S3    O54   1.503492 D    
C43   C44   1.403052 A    
C79   C80   1.404685 A    
C69   C87   1.431130 S    
C39   H19   1.081895 S    
C25   C26   1.398803 A    
C93   C94   1.417318 A    
S1    O25   1.502678 D    
C50   H25   1.085279 S    
C4    C51   1.433274 S    
C42   C43   1.406358 A    
O12   Zn4   2.020993 S    
N3    O32   1.301872 A    
C5    H2    1.082696 S    
O15   C72   1.277910 A    
Zn6   O22   2.013660 S    
C79   C88   1.482470 S    
C75   C84   1.437738 S    
O3    Zn1   2.021241 S    
C11   H5    1.085922 S    
C97   C98   1.404174 A    
C26   C27   1.396709 A    
C101  C102  1.409281 A    
C109  H50   1.082063 S    
O1    C1    1.280300 A    
C18   H8    1.082284 S    
C111  C112  1.402410 A    
C77   C82   1.397816 A    
C6    N5    1.436324 S    
C105  C106  1.409287 A    
O17   C73   1.275619 A    
O13   C71   1.276275 A    
C14   H6    1.085128 S    
O18   Zn6   2.024491 S    
C78   C79   1.405139 A    
N2    O31   1.301735 A    
C85   C94   1.477951 S    
C21   C22   1.401720 A    
C59   H31   1.081065 S    
C30   C74   1.437246 S    
N11   O51   1.300940 A    
C57   C58   1.415371 A    
C12   C13   1.413981 A    
N10   O50   1.300980 A    
N4    O34   1.301765 A    
C45   C46   1.395605 A    
C27   H14   1.082203 S    
N8    O42   1.298925 A    
H1    C10   1.080456 S    
N5    O36   1.300440 A    
C56   C57   1.404825 A    
C103  C112  1.483288 S    
C44   C45   1.397051 A    
C84   C85   1.409140 A    
Zn3   O13   2.012623 S    
O24   C76   1.279687 A    
C104  N11   1.438773 S    
O3    C2    1.276622 A    
C26   H13   1.081588 S    
C59   C60   1.392511 A    
C53   C54   1.396185 A    
C48   C49   1.405950 A    
C104  C105  1.407040 A    
C92   H45   1.076616 S    
N9    O48   1.301384 A    
C77   C78   1.398548 A    
O19   Zn5   2.026357 S    
C8    C9    1.387512 A    
C63   C64   1.407147 A    
C54   H27   1.082414 S    
O20   C74   1.272814 A    
S2    O46   1.682975 S    
C89   C90   1.394226 A    
C61   H33   1.082678 S    
C108  S3    1.759186 S    
C96   C97   1.418318 A    
H35   C82   1.082483 S    
O16   C72   1.280306 A    
C90   H43   1.082290 S    
C60   C61   1.388828 A    
C12   C70   1.430387 S    
C35   C40   1.402147 A    
Zn1   O5    2.014690 S    
S3    O53   1.502970 D    
C91   H44   1.082040 S    
C110  C111  1.397607 A    
C67   C68   1.410814 A    
C80   C81   1.398576 A    
H20   C46   1.082590 S    
C51   C52   1.411858 A    
C15   C16   1.403251 A    
O2    Zn2   2.014691 S    
C23   C24   1.405250 A    
O17   Zn5   2.013575 S    
C83   C84   1.394014 A    
C47   H24   1.085424 S    
O6    C3    1.277237 A    
S2    O45   1.502678 D    
Zn6   O24   2.026438 S    
O4    Zn2   2.010490 S    
C96   N9    1.436818 S    
C23   N1    1.438350 S    
Zn3   O15   2.021246 S    
C11   C12   1.391936 A    
C62   H34   1.079812 S    
O12   C70   1.274379 A    
N9    O47   1.299219 A    
O11   Zn3   2.010809 S    
N7    O41   1.299526 A    
C78   H37   1.083431 S    
C37   H18   1.082222 S    
C7    C8    1.397520 A    
C86   C87   1.395891 A    
O2    C1    1.277836 A    
O8    C4    1.281086 A    
C41   C42   1.407456 A    
C14   C15   1.392579 A    
C81   H39   1.082430 S    
C111  H52   1.082682 S    
C20   C21   1.397367 A    
C107  H49   1.081217 S    
C20   H9    1.080917 S    
C95   C96   1.404858 A    
O14   C71   1.280954 A    
C13   C22   1.485395 S    
N10   O49   1.300937 A    
N4    O35   1.301667 A    
C47   C48   1.394927 A    
O11   C70   1.285048 A    
C2    C15   1.431310 S    
C9    C10   1.397358 A    
N6    O38   1.300672 A    
C56   H29   1.080818 S    
C89   H42   1.080057 S    
C98   C99   1.395545 A    
C32   C33   1.395105 A    
N5    O37   1.301309 A    
C36   C37   1.404379 A    
C101  C106  1.391255 A    
C24   H12   1.083588 S    
C108  C109  1.402287 A    
C86   H41   1.085027 S    
C8    H3    1.083703 S    
C5    C6    1.404277 A    
C31   C40   1.482401 S    
C49   C58   1.482328 S    
C85   C86   1.382600 A    
Zn5   O21   2.024617 S    
C77   H36   1.082300 S    
C21   H10   1.077715 S    
C83   H40   1.085435 S    
C39   C40   1.403031 A    
C101  N10   1.439780 S    
C65   C66   1.389960 A    
N1    O29   1.301673 A    
O10   Zn4   2.012497 S    
C102  C103  1.410422 A    
Zn4   O16   2.010894 S    
C37   C38   1.406039 A    
C99   C100  1.396196 A    
O9    C69   1.273166 A    
C98   H47   1.083396 S    
C1    C33   1.431821 S    
