data_mof_unit_20769.cif
_audit_creation_date              2012-10-26T19:40:45-0400
_audit_creation_method            fapswitch 2.2
_symmetry_space_group_name_H-M    P1
_symmetry_Int_Tables_number       1
_space_group_crystal_system       triclinic
_cell_length_a                    9.691383
_cell_length_b                    10.935978
_cell_length_c                    13.440079
_cell_angle_alpha                 90.070045
_cell_angle_beta                  72.499156
_cell_angle_gamma                 89.988795
_cell_volume                      1358.50828267

loop_
_atom_site_label
_atom_site_type_symbol
_atom_type_description
_atom_site_fract_x
_atom_site_fract_y
_atom_site_fract_z
_atom_type_partial_charge
C1    C     C_R   0.499342 0.734644 0.501427 0.547506
C2    C     C_R   0.375301 0.499865 0.814938 -0.045428
C3    C     C_2   0.611787 0.066949 0.503391 -0.144338
C4    C     C_R   0.422415 0.503562 0.700163 0.535698
C5    C     C_2   0.500304 0.133346 0.493739 -0.105949
C6    C     C_2   0.613761 0.932990 0.498876 -0.154085
C7    C     C_2   0.494715 0.866599 0.506914 -0.115649
C8    C     C_2   0.052657 0.569984 0.560598 -0.009676
C9    C     C_2   0.898765 0.574500 0.556539 -0.010052
C10   C     C_R   0.500421 0.265342 0.498798 0.566131
C11   C     C_R   0.577405 0.502463 0.300131 0.556192
C12   C     C_R   0.435884 0.503815 0.979137 -0.007535
C13   C     C_R   0.768131 0.624524 0.033654 -0.080783
C14   C     C_R   0.620476 0.520852 0.187315 0.026567
C15   C     C_R   0.244391 0.441210 0.865470 -0.135803
C16   C     C_R   0.206353 0.416245 0.971693 0.217800
C17   C     C_R   0.302335 0.444653 0.027566 -0.101212
C18   C     C_R   0.466363 0.540223 0.873470 0.021195
C19   C     C_R   0.539755 0.529008 0.032244 0.041987
C20   C     C_R   0.665376 0.598306 0.982025 0.067050
C21   C     C_R   0.685234 0.643722 0.881992 -0.126143
C22   C     C_R   0.586207 0.616851 0.829153 -0.104989
C23   C     C_R   0.522777 0.487792 0.134036 -0.109500
C24   C     C_R   0.745141 0.586868 0.136276 -0.061281
Cu1   Cu    Cu3+1 0.361370 0.499980 0.499980 0.953834
Cu2   Cu    Cu3+1 0.638630 0.500020 0.500020 0.973668
H1    H     H_    0.821232 0.613885 0.177000 0.150191
H2    H     H_    0.864064 0.677403 0.995687 0.117019
H3    H     H_    0.432634 0.431656 0.175413 0.120180
H4    H     H_    0.173843 0.410585 0.821391 0.164626
H5    H     H_    0.267918 0.420917 0.108988 0.147110
H6    H     H_    0.603262 0.659477 0.753962 0.129014
H7    H     H_    0.706877 0.111657 0.513337 0.158188
H8    H     H_    0.115098 0.166039 0.958713 0.335774
H9    H     H_    0.406284 0.092345 0.479735 0.106860
H10   H     H_    0.716873 0.888289 0.490141 0.152370
H11   H     H_    0.389161 0.907575 0.519928 0.104490
H12   H     H_    0.080844 0.629662 0.616019 0.135618
H13   H     H_    0.128824 0.448865 0.445158 0.214521
H14   H     H_    0.827806 0.642752 0.604267 0.124867
H15   H     H_    0.911046 0.433079 0.459350 0.218491
H16   H     H_    0.777628 0.700789 0.844397 0.099887
N1    N     N_2   0.152660 0.501340 0.501130 -0.344008
N2    N     N_2   0.846520 0.501370 0.501160 -0.340989
O1    O     O_R   0.382960 0.678040 0.499980 -0.495286
O2    O     O_2   0.933374 0.362803 0.976954 -0.288153
O3    O     O_3   0.075912 0.188486 0.033366 -0.485451
O4    O     O_R   0.617100 0.678080 0.500020 -0.506203
O5    O     O_R   0.325800 0.499940 0.650950 -0.500419
O6    O     O_R   0.559930 0.499980 0.650990 -0.494418
O7    O     O_R   0.382900 0.321920 0.499980 -0.492981
O8    O     O_R   0.617040 0.321960 0.500020 -0.486058
O9    O     O_R   0.440070 0.500020 0.349010 -0.505391
O10   O     O_R   0.674200 0.500060 0.349050 -0.470203
O11   O     O_2   0.983902 0.382340 0.144455 -0.265233
S1    S     S_3+6 0.043138 0.339422 0.033457 0.000382

loop_
_geom_bond_atom_site_label_1
_geom_bond_atom_site_label_2
_ccdc_geom_bond_type
C12   C17   A    
C14   C23   A    
C2    C4    S    
O11   S1    D    
Cu1   O7    S    
C13   H2    S    
C6    C7    D    
Cu2   O8    S    
C2    C18   A    
C5    H9    S    
C4    O6    A    
C19   C23   A    
C19   C20   A    
C11   O9    A    
C8    N1    D    
Cu2   O4    S    
C4    O5    A    
C3    C6    S    
C10   O8    A    
Cu1   N1    S    
Cu2   O6    S    
C16   S1    S    
C7    H11   S    
Cu2   N2    S    
C5    C10   S    
C1    O4    A    
C18   C22   A    
C21   C22   A    
C2    C15   A    
O3    S1    S    
C1    O1    A    
C11   O10   A    
C22   H6    S    
C24   H1    S    
C10   O7    A    
Cu2   O10   S    
C12   C19   A    
C11   C14   S    
C6    H10   S    
C8    H12   S    
C17   H5    S    
H15   N2    S    
Cu1   O5    S    
C3    H7    S    
Cu1   O1    S    
C14   C24   A    
C21   H16   S    
C23   H3    S    
C20   C21   A    
C15   H4    S    
C12   C18   A    
C8    C9    S    
C9    N2    D    
H13   N1    S    
H8    O3    S    
C13   C20   A    
Cu1   Cu2   S    
C1    C7    S    
C9    H14   S    
C15   C16   A    
C13   C24   A    
Cu1   O9    S    
C16   C17   A    
C3    C5    D    
O2    S1    D    
