data_mof_unit_43124.cif
_audit_creation_date              2013-03-05T16:04:54-0500
_audit_creation_method            fapswitch 2.2
_symmetry_space_group_name_H-M    P1
_symmetry_Int_Tables_number       1
_space_group_crystal_system       triclinic
_cell_length_a                    21.867356
_cell_length_b                    21.283367
_cell_length_c                    14.79243
_cell_angle_alpha                 89.961214
_cell_angle_beta                  100.560611
_cell_angle_gamma                 90.221581
_cell_volume                      6767.89490699

loop_
_atom_site_label
_atom_site_type_symbol
_atom_site_description
_atom_site_fract_x
_atom_site_fract_y
_atom_site_fract_z
_atom_type_partial_charge
O1    O     O_R   0.541320 0.066090 0.608930 -0.594479
O2    O     O_R   0.458680 0.933910 0.391070 -0.631803
O3    O     O_R   0.458680 0.066090 0.391070 -0.599036
O4    O     O_R   0.541320 0.933910 0.608930 -0.630188
O5    O     O_R   0.041320 0.566090 0.608930 -0.598204
O6    O     O_R   0.958680 0.433910 0.391070 -0.624623
O7    O     O_R   0.958680 0.566090 0.391070 -0.593624
O8    O     O_R   0.041320 0.433910 0.608930 -0.631498
O9    O     O_R   0.572880 0.066110 0.470280 -0.597626
O10   O     O_R   0.427120 0.933890 0.529720 -0.624147
O11   O     O_R   0.427120 0.066110 0.529720 -0.604333
O12   O     O_R   0.572880 0.933890 0.470280 -0.617463
O13   O     O_R   0.072880 0.566110 0.470280 -0.603356
O14   O     O_R   0.927120 0.433890 0.529720 -0.623739
O15   O     O_R   0.927120 0.566110 0.529720 -0.601296
O16   O     O_R   0.072880 0.433890 0.470280 -0.624681
C1    C     C_R   0.574813 0.089826 0.552984 0.866104
C2    C     C_R   0.429457 0.907214 0.449422 0.860055
C3    C     C_R   0.424848 0.089357 0.447072 0.862246
C4    C     C_R   0.571026 0.907424 0.551061 0.874042
C5    C     C_R   0.075221 0.589376 0.552898 0.866750
C6    C     C_R   0.929724 0.406727 0.449787 0.861732
C7    C     C_R   0.924233 0.588921 0.446475 0.864276
C8    C     C_R   0.070384 0.407222 0.550588 0.860437
Zn1   Zn    Zn3+2 0.478910 0.000000 0.592580 0.910862
Zn2   Zn    Zn3+2 0.521090 0.000000 0.407420 0.914331
Zn3   Zn    Zn3+2 0.978910 0.500000 0.592580 0.910211
Zn4   Zn    Zn3+2 0.021090 0.500000 0.407420 0.912317
C9    C     C_R   0.593597 0.840938 0.570922 -0.145651
C10   C     C_R   0.377935 0.138920 0.414272 -0.151081
C11   C     C_R   0.407345 0.840665 0.430066 -0.152528
C12   C     C_R   0.620606 0.140699 0.586905 -0.156393
C13   C     C_R   0.092572 0.340887 0.570412 -0.152757
C14   C     C_R   0.876297 0.637500 0.411910 -0.153888
C15   C     C_R   0.907833 0.339425 0.431776 -0.156814
C16   C     C_R   0.122459 0.638797 0.585982 -0.151697
C17   C     C_R   0.602656 0.738992 0.651491 0.196308
C18   C     C_R   0.327940 0.219623 0.307693 0.194631
C19   C     C_R   0.394658 0.740413 0.345901 0.196144
C20   C     C_R   0.670852 0.220010 0.696733 0.196700
C21   C     C_R   0.107202 0.241746 0.656998 0.195003
C22   C     C_R   0.824210 0.715120 0.301200 0.198765
C23   C     C_R   0.896486 0.237281 0.351613 0.197938
C24   C     C_R   0.172263 0.720036 0.692267 0.194207
C25   C     C_R   0.583371 0.802993 0.647664 0.107400
C26   C     C_R   0.380686 0.180903 0.340118 0.086470
C27   C     C_R   0.416043 0.803830 0.351774 0.104961
C28   C     C_R   0.618660 0.180076 0.664393 0.088780
C29   C     C_R   0.084556 0.304504 0.649586 0.105315
C30   C     C_R   0.877135 0.676693 0.333807 0.087291
C31   C     C_R   0.916422 0.301281 0.354588 0.111318
C32   C     C_R   0.119404 0.681212 0.659427 0.086365
C33   C     C_R   0.618759 0.810962 0.501928 -0.311696
C34   C     C_R   0.328473 0.144225 0.461621 -0.281329
C35   C     C_R   0.384061 0.809700 0.500258 -0.310443
C36   C     C_R   0.669048 0.149188 0.538826 -0.276191
C37   C     C_R   0.115535 0.309613 0.500287 -0.310699
C38   C     C_R   0.827183 0.643793 0.459964 -0.280146
C39   C     C_R   0.884708 0.308930 0.502741 -0.306812
C40   C     C_R   0.172661 0.643260 0.539993 -0.281015
C41   C     C_R   0.643498 0.750398 0.510778 0.014888
C42   C     C_R   0.273840 0.176659 0.425224 0.016850
C43   C     C_R   0.357076 0.750175 0.489996 0.023860
C44   C     C_R   0.724660 0.179300 0.578179 0.018040
C45   C     C_R   0.143987 0.250927 0.512108 0.024815
C46   C     C_R   0.771867 0.675032 0.422544 0.018205
C47   C     C_R   0.856993 0.249502 0.493313 0.024420
C48   C     C_R   0.227286 0.675826 0.576956 0.017093
C49   C     C_R   0.643288 0.718045 0.593638 0.065070
C50   C     C_R   0.271586 0.210407 0.342215 0.050496
C51   C     C_R   0.354895 0.719282 0.405280 0.061815
C52   C     C_R   0.727156 0.212369 0.661708 0.048500
C53   C     C_R   0.147228 0.221164 0.597943 0.061852
C54   C     C_R   0.768635 0.707389 0.338165 0.051733
C55   C     C_R   0.855951 0.216812 0.410257 0.056746
C56   C     C_R   0.228956 0.710477 0.659035 0.050054
C57   C     C_R   0.675992 0.725538 0.443717 -0.028491
C58   C     C_R   0.223433 0.181161 0.473906 -0.015912
C59   C     C_R   0.324051 0.725668 0.557060 -0.020044
C60   C     C_R   0.776139 0.181654 0.531815 -0.018543
C61   C     C_R   0.177150 0.226247 0.445383 -0.020067
C62   C     C_R   0.721466 0.679617 0.471274 -0.014047
C63   C     C_R   0.822892 0.226424 0.559897 -0.021673
C64   C     C_R   0.278263 0.679763 0.529362 -0.014511
C65   C     C_R   0.219560 0.146115 0.553751 0.178258
C66   C     C_R   0.663091 0.741259 0.348871 0.210847
C67   C     C_R   0.781653 0.143142 0.456153 0.192694
C68   C     C_R   0.335532 0.742781 0.651555 0.200701
C69   C     C_R   0.715689 0.642658 0.548601 0.180705
C70   C     C_R   0.165082 0.242049 0.350389 0.201996
C71   C     C_R   0.283100 0.643556 0.451077 0.177886
C72   C     C_R   0.834405 0.243562 0.654307 0.202122
C73   C     C_R   0.189154 0.171065 0.620900 0.185560
C74   C     C_R   0.709488 0.730747 0.294743 0.160504
C75   C     C_R   0.815780 0.164223 0.390188 0.182484
C76   C     C_R   0.287592 0.734489 0.703617 0.166209
C77   C     C_R   0.682582 0.665372 0.614585 0.183437
C78   C     C_R   0.212761 0.233753 0.297897 0.165792
C79   C     C_R   0.314017 0.667811 0.383692 0.186573
C80   C     C_R   0.786149 0.236051 0.706262 0.165544
H1    H     H_    0.333387 0.122317 0.528058 0.199195
H2    H     H_    0.623488 0.836472 0.442421 0.205797
H3    H     H_    0.662963 0.130893 0.470049 0.198889
H4    H     H_    0.383014 0.833527 0.562390 0.188647
H5    H     H_    0.832619 0.623377 0.527582 0.197278
H6    H     H_    0.115013 0.332724 0.437006 0.188042
H7    H     H_    0.168368 0.620594 0.474152 0.198248
H8    H     H_    0.884446 0.333011 0.564873 0.187322
N1    N     N_R   0.549130 1.000000 0.284090 -0.132783
N2    N     N_R   0.450870 0.000000 0.715910 -0.136277
N3    N     N_R   0.049130 0.500000 0.284090 -0.136141
N4    N     N_R   0.950870 0.500000 0.715910 -0.138134
C81   C     C_R   0.632546 0.012670 0.195555 0.102819
C82   C     C_R   0.366839 0.010009 0.802839 0.101753
C83   C     C_R   0.132921 0.510723 0.197075 0.100443
C84   C     C_R   0.866831 0.511498 0.802597 0.104589
C85   C     C_R   0.608295 0.985432 0.270360 0.160602
C86   C     C_R   0.391088 0.985361 0.726787 0.178159
C87   C     C_R   0.108800 0.485642 0.273104 0.181048
C88   C     C_R   0.891177 0.485532 0.727355 0.178045
C89   C     C_R   0.506850 0.022455 0.209325 0.239741
C90   C     C_R   0.493090 0.019520 0.792362 0.228557
C91   C     C_R   0.006684 0.518501 0.207557 0.228724
C92   C     C_R   0.992916 0.522271 0.790997 0.235789
C93   C     C_R   0.527624 0.045060 0.128052 -0.079208
C94   C     C_R   0.471996 0.041754 0.873330 -0.073787
C95   C     C_R   0.027569 0.541038 0.126603 -0.073599
C96   C     C_R   0.971848 0.544059 0.872118 -0.077955
C97   C     C_R   0.592308 0.048299 0.129009 0.033793
C98   C     C_R   0.407014 0.044194 0.872077 0.017424
C99   C     C_R   0.092531 0.544546 0.127940 0.017584
C100  C     C_R   0.907057 0.546413 0.870805 0.027133
C101  C     C_R   0.487575 0.057596 0.041264 0.075207
C102  C     C_R   0.512180 0.056336 0.959231 0.076884
C103  C     C_R   0.987247 0.555007 0.040788 0.076301
C104  C     C_R   0.011826 0.556989 0.958848 0.076742
C105  C     C_R   0.573507 0.077494 0.967599 -0.263654
C106  C     C_R   0.426744 0.079302 0.031552 -0.255293
C107  C     C_R   0.072498 0.579749 0.968592 -0.255838
C108  C     C_R   0.925745 0.575055 0.032547 -0.263344
C109  C     C_R   0.612609 0.079052 0.053773 0.121210
C110  C     C_R   0.386207 0.075384 0.946805 0.121298
C111  C     C_R   0.113093 0.576263 0.053325 0.120698
C112  C     C_R   0.886679 0.576552 0.946341 0.122037
H9    H     H_    0.590064 0.096339 0.908734 0.154941
H10   H     H_    0.412448 0.104000 0.087602 0.151372
H11   H     H_    0.086602 0.604898 0.912638 0.151423
H12   H     H_    0.909064 0.593302 0.091629 0.155207
C113  C     C_3   0.213180 0.152030 0.719353 -0.956416
H13   H     H_    0.264651 0.149505 0.729916 0.239298
H14   H     H_    0.203021 0.187388 0.769498 0.256903
H15   H     H_    0.194174 0.105500 0.734028 0.245631
C114  C     C_3   0.693027 0.737869 0.190999 -0.916723
H16   H     H_    0.650337 0.710806 0.163164 0.244893
H17   H     H_    0.685331 0.788130 0.172323 0.240129
H18   H     H_    0.728971 0.718110 0.155504 0.252564
C115  C     C_3   0.798016 0.137375 0.294287 -0.952072
H19   H     H_    0.746845 0.131533 0.277905 0.240916
H20   H     H_    0.809247 0.169448 0.240780 0.253716
H21   H     H_    0.820365 0.091040 0.289853 0.247103
C116  C     C_3   0.301895 0.744032 0.807103 -0.917188
H22   H     H_    0.343574 0.716845 0.838335 0.245679
H23   H     H_    0.310314 0.794589 0.823459 0.239155
H24   H     H_    0.264449 0.726090 0.841515 0.255449
C117  C     C_3   0.700431 0.639803 0.711180 -0.953820
H25   H     H_    0.751655 0.635144 0.727470 0.240702
H26   H     H_    0.688734 0.672118 0.763877 0.254509
H27   H     H_    0.678632 0.593139 0.716851 0.248033
C118  C     C_3   0.197937 0.242479 0.194256 -0.916999
H28   H     H_    0.156307 0.214674 0.163786 0.245323
H29   H     H_    0.189266 0.292850 0.177171 0.239325
H30   H     H_    0.235188 0.224670 0.159627 0.255205
C119  C     C_3   0.291385 0.646421 0.285840 -0.957434
H31   H     H_    0.240063 0.641588 0.274473 0.238646
H32   H     H_    0.300548 0.681560 0.234585 0.257066
H33   H     H_    0.312186 0.600500 0.273374 0.246219
C120  C     C_3   0.800545 0.246283 0.809607 -0.915776
H34   H     H_    0.842643 0.219927 0.841285 0.244933
H35   H     H_    0.808146 0.297040 0.825191 0.238974
H36   H     H_    0.763636 0.227788 0.844522 0.253657
C121  C     C_3   0.440483 0.188629 0.300991 -0.423776
C122  C     C_3   0.492823 0.219189 0.370395 -0.323385
C123  C     C_3   0.552260 0.225832 0.330753 -0.870960
H37   H     H_    0.568516 0.178931 0.312334 0.266248
H38   H     H_    0.543966 0.256160 0.268606 0.254684
H39   H     H_    0.589316 0.247562 0.382872 0.252203
H40   H     H_    0.477986 0.266317 0.390218 0.217110
H41   H     H_    0.503600 0.189789 0.432892 0.206957
H42   H     H_    0.456630 0.143383 0.278687 0.226076
H43   H     H_    0.432999 0.216878 0.237046 0.204342
C124  C     C_3   0.556529 0.827221 0.729588 -0.419327
C125  C     C_3   0.608912 0.842266 0.811096 -0.346443
C126  C     C_3   0.583438 0.851764 0.899692 -0.895919
H44   H     H_    0.544548 0.885921 0.889141 0.269712
H45   H     H_    0.566065 0.806377 0.922426 0.261233
H46   H     H_    0.620988 0.869512 0.954757 0.254570
H47   H     H_    0.642889 0.803023 0.822525 0.228917
H48   H     H_    0.634523 0.884924 0.795798 0.218619
H49   H     H_    0.523806 0.866406 0.714660 0.223319
H50   H     H_    0.526112 0.791451 0.752702 0.217768
C127  C     C_3   0.560860 0.183053 0.709075 -0.416796
C128  C     C_3   0.504665 0.211276 0.644753 -0.319260
C129  C     C_3   0.447223 0.211810 0.689901 -0.867241
H51   H     H_    0.434822 0.163164 0.707420 0.266722
H52   H     H_    0.455960 0.240780 0.753421 0.253278
H53   H     H_    0.407303 0.232043 0.641495 0.250475
H54   H     H_    0.515608 0.260059 0.625919 0.213669
H55   H     H_    0.493332 0.183087 0.581123 0.212721
H56   H     H_    0.548744 0.136297 0.732117 0.223466
H57   H     H_    0.569312 0.210650 0.773637 0.199990
C130  C     C_3   0.444537 0.828896 0.271577 -0.404497
C131  C     C_3   0.393552 0.850022 0.192031 -0.342162
C132  C     C_3   0.419833 0.861243 0.104422 -0.897741
H58   H     H_    0.460930 0.892961 0.118094 0.270944
H59   H     H_    0.434193 0.815917 0.077681 0.261073
H60   H     H_    0.383665 0.882792 0.051013 0.252595
H61   H     H_    0.356772 0.813299 0.177160 0.223438
H62   H     H_    0.371327 0.893442 0.211628 0.217792
H63   H     H_    0.480486 0.865279 0.289984 0.226487
H64   H     H_    0.472017 0.792212 0.244844 0.213365
C133  C     C_3   0.934431 0.680604 0.287886 -0.415639
C134  C     C_3   0.990477 0.710876 0.350452 -0.319577
C135  C     C_3   0.047314 0.712433 0.303974 -0.867153
H65   H     H_    0.060470 0.663952 0.287422 0.267252
H66   H     H_    0.037432 0.740576 0.239725 0.253054
H67   H     H_    0.087168 0.734121 0.351118 0.249732
H68   H     H_    0.978732 0.759555 0.368167 0.213672
H69   H     H_    0.002960 0.683664 0.414806 0.213161
H70   H     H_    0.947125 0.633972 0.265609 0.222555
H71   H     H_    0.925120 0.707224 0.222514 0.199468
C136  C     C_3   0.054914 0.329210 0.728698 -0.402577
C137  C     C_3   0.104958 0.351165 0.809169 -0.341748
C138  C     C_3   0.077399 0.362392 0.895583 -0.897471
H72   H     H_    0.036405 0.393864 0.880550 0.270936
H73   H     H_    0.062552 0.317037 0.922044 0.261192
H74   H     H_    0.112993 0.384252 0.949748 0.252590
H75   H     H_    0.141855 0.314951 0.825415 0.222905
H76   H     H_    0.127328 0.394750 0.789801 0.217940
H77   H     H_    0.018809 0.365036 0.709337 0.225778
H78   H     H_    0.027273 0.292110 0.754721 0.212163
C139  C     C_3   0.059256 0.689137 0.697456 -0.423639
C140  C     C_3   0.007482 0.719229 0.626962 -0.324233
C141  C     C_3   0.947536 0.725669 0.665225 -0.867918
H79   H     H_    0.930985 0.678733 0.683600 0.267278
H80   H     H_    0.955318 0.756214 0.727155 0.254077
H81   H     H_    0.910913 0.747051 0.612317 0.252306
H82   H     H_    0.022625 0.766376 0.607144 0.216867
H83   H     H_    0.997232 0.689598 0.564633 0.207020
H84   H     H_    0.042707 0.643998 0.720101 0.226291
H85   H     H_    0.066437 0.717796 0.761004 0.204072
C142  C     C_3   0.943499 0.324927 0.272532 -0.420721
C143  C     C_3   0.891342 0.338759 0.190289 -0.347675
C144  C     C_3   0.917234 0.348100 0.101961 -0.895265
H86   H     H_    0.955680 0.383058 0.112261 0.269374
H87   H     H_    0.935323 0.302884 0.080387 0.261272
H88   H     H_    0.879718 0.364752 0.046181 0.254895
H89   H     H_    0.857665 0.299001 0.179106 0.228978
H90   H     H_    0.865244 0.381121 0.204562 0.218545
H91   H     H_    0.975990 0.364543 0.287235 0.221210
H92   H     H_    0.974230 0.289214 0.250648 0.217672
C145  C     C_3   0.571877 0.691431 0.705761 -0.950096
H93   H     H_    0.520723 0.695880 0.687681 0.239963
H94   H     H_    0.580541 0.642238 0.687485 0.261062
H95   H     H_    0.587125 0.698391 0.780892 0.246385
C146  C     C_3   0.335564 0.276976 0.249607 -0.962840
H96   H     H_    0.378626 0.302893 0.279789 0.247604
H97   H     H_    0.337998 0.262835 0.178128 0.236433
H98   H     H_    0.297596 0.311449 0.248323 0.255767
C147  C     C_3   0.421554 0.693405 0.286524 -0.950494
H99   H     H_    0.473023 0.695992 0.301686 0.238873
H100  H     H_    0.411401 0.644073 0.302572 0.259914
H101  H     H_    0.404399 0.702659 0.212355 0.247234
C148  C     C_3   0.662414 0.276867 0.755069 -0.962708
H102  H     H_    0.618199 0.300989 0.726233 0.246865
H103  H     H_    0.661600 0.262647 0.827042 0.238923
H104  H     H_    0.699183 0.312770 0.754577 0.256263
C149  C     C_3   0.081450 0.194534 0.717782 -0.948339
H105  H     H_    0.029896 0.195285 0.702385 0.238351
H106  H     H_    0.093086 0.145384 0.703511 0.259354
H107  H     H_    0.098213 0.205139 0.791655 0.247124
C150  C     C_3   0.831082 0.770670 0.239252 -0.963531
H108  H     H_    0.874979 0.796358 0.265814 0.246584
H109  H     H_    0.831396 0.754613 0.167978 0.241023
H110  H     H_    0.793925 0.805966 0.238047 0.254132
C151  C     C_3   0.926560 0.189368 0.297478 -0.948200
H111  H     H_    0.977781 0.193883 0.314819 0.239063
H112  H     H_    0.917760 0.140323 0.316671 0.260643
H113  H     H_    0.910939 0.195852 0.222342 0.246193
C152  C     C_3   0.164544 0.777785 0.749287 -0.962704
H114  H     H_    0.121709 0.803442 0.718226 0.247483
H115  H     H_    0.161636 0.764134 0.820830 0.236588
H116  H     H_    0.202692 0.812340 0.750479 0.256053
C153  C     C_3   0.234491 0.077494 0.560447 -0.948480
H117  H     H_    0.244901 0.058817 0.494905 0.246893
H118  H     H_    0.273673 0.069771 0.618423 0.253242
H119  H     H_    0.193190 0.051141 0.574012 0.255236
C154  C     C_3   0.597239 0.756724 0.302273 -0.960321
H120  H     H_    0.564582 0.759882 0.350991 0.247773
H121  H     H_    0.595934 0.801161 0.263253 0.235675
H122  H     H_    0.578659 0.718467 0.254018 0.245085
C155  C     C_3   0.760308 0.075834 0.451914 -0.960350
H123  H     H_    0.748764 0.059496 0.518091 0.251246
H124  H     H_    0.719195 0.070966 0.396184 0.239629
H125  H     H_    0.798380 0.045042 0.437835 0.250290
C156  C     C_3   0.401163 0.756848 0.700656 -0.971582
H126  H     H_    0.434758 0.758344 0.653306 0.246147
H127  H     H_    0.403207 0.801786 0.738661 0.235935
H128  H     H_    0.417583 0.718651 0.750105 0.249178
C157  C     C_3   0.732688 0.574468 0.553374 -0.946947
H129  H     H_    0.745392 0.557384 0.488429 0.247091
H130  H     H_    0.771009 0.567118 0.612622 0.252348
H131  H     H_    0.691652 0.546312 0.563550 0.256465
C158  C     C_3   0.099175 0.254704 0.301526 -0.969791
H132  H     H_    0.065644 0.255038 0.349020 0.245517
H133  H     H_    0.096441 0.299786 0.263703 0.235667
H134  H     H_    0.083132 0.216317 0.252101 0.248885
C159  C     C_3   0.267962 0.574865 0.446240 -0.949251
H135  H     H_    0.255912 0.557078 0.511347 0.246736
H136  H     H_    0.229751 0.566459 0.387129 0.253797
H137  H     H_    0.309640 0.548323 0.435426 0.256001
C160  C     C_3   0.900477 0.256057 0.703475 -0.967435
H138  H     H_    0.934448 0.255638 0.656499 0.246019
H139  H     H_    0.903754 0.301359 0.740739 0.235136
H140  H     H_    0.915775 0.217899 0.753503 0.248136
C161  C     C_3   0.672958 0.115866 0.063058 -0.426078
C162  C     C_3   0.661112 0.185262 0.036533 -0.338257
C163  C     C_3   0.721422 0.223343 0.052408 -0.904420
H141  H     H_    0.741051 0.226029 0.126958 0.261221
H142  H     H_    0.756014 0.201698 0.015653 0.265505
H143  H     H_    0.711838 0.271870 0.026119 0.251699
H144  H     H_    0.639521 0.189242 0.962714 0.212457
H145  H     H_    0.628741 0.205977 0.078148 0.227393
H146  H     H_    0.697983 0.114751 0.134799 0.225273
H147  H     H_    0.702923 0.094462 0.018341 0.200072
C164  C     C_3   0.326854 0.113719 0.935420 -0.426584
C165  C     C_3   0.286310 0.098668 0.007715 -0.341658
C166  C     C_3   0.221584 0.127207 0.980883 -0.893377
H148  H     H_    0.225036 0.178852 0.971873 0.261695
H149  H     H_    0.196667 0.105952 0.915845 0.267621
H150  H     H_    0.194322 0.117878 0.035874 0.252470
H151  H     H_    0.281614 0.047190 0.016442 0.221569
H152  H     H_    0.308190 0.118508 0.075448 0.214027
H153  H     H_    0.340035 0.164249 0.941751 0.192730
H154  H     H_    0.299539 0.108072 0.865809 0.228665
C167  C     C_3   0.172156 0.615520 0.064902 -0.424298
C168  C     C_3   0.212908 0.601155 0.992770 -0.340938
C169  C     C_3   0.277611 0.630146 0.020111 -0.895138
H155  H     H_    0.274143 0.681709 0.029583 0.261691
H156  H     H_    0.302414 0.608751 0.085014 0.268326
H157  H     H_    0.304991 0.621358 0.965178 0.252802
H158  H     H_    0.217641 0.549765 0.983664 0.221608
H159  H     H_    0.191127 0.621086 0.925116 0.213746
H160  H     H_    0.158580 0.665839 0.058342 0.191916
H161  H     H_    0.199381 0.610344 0.134691 0.226862
C170  C     C_3   0.827151 0.614201 0.937203 -0.430617
C171  C     C_3   0.840761 0.683621 0.962532 -0.334777
C172  C     C_3   0.781314 0.722562 0.948350 -0.904703
H162  H     H_    0.760867 0.725418 0.874129 0.262364
H163  H     H_    0.746883 0.701559 0.986310 0.265173
H164  H     H_    0.792291 0.771000 0.974353 0.251499
H165  H     H_    0.863580 0.687824 0.035820 0.212122
H166  H     H_    0.872730 0.703507 0.919340 0.227159
H167  H     H_    0.801657 0.612720 0.865800 0.225305
H168  H     H_    0.797103 0.593726 0.982795 0.198995
C173  C     C_3   0.561023 0.004961 0.796067 -0.863274
H169  H     H_    0.587732 0.045163 0.776357 0.224901
H170  H     H_    0.583308 0.987063 0.864342 0.222936
H171  H     H_    0.566702 0.965788 0.752090 0.275931
C174  C     C_3   0.438056 0.013804 0.207771 -0.860518
H172  H     H_    0.414312 0.058308 0.216501 0.210333
H173  H     H_    0.415170 0.990610 0.143421 0.225204
H174  H     H_    0.428283 0.983118 0.261381 0.284086
C175  C     C_3   0.061730 0.514567 0.792387 -0.858737
H175  H     H_    0.085193 0.559477 0.783908 0.210195
H176  H     H_    0.084794 0.491366 0.856537 0.225355
H177  H     H_    0.071498 0.484363 0.738274 0.284600
C176  C     C_3   0.939102 0.501795 0.203700 -0.864089
H178  H     H_    0.911769 0.540431 0.225830 0.227424
H179  H     H_    0.916679 0.484776 0.134946 0.222286
H180  H     H_    0.934723 0.460997 0.245435 0.274176
C177  C     C_3   0.361288 0.927401 0.678356 -0.343659
C178  C     C_3   0.311718 0.940054 0.591662 -0.262398
C179  C     C_3   0.245457 0.924751 0.604305 -0.917831
H181  H     H_    0.242438 0.875188 0.626707 0.265001
H182  H     H_    0.229976 0.956088 0.654934 0.273294
H183  H     H_    0.213060 0.930712 0.537705 0.251985
H184  H     H_    0.316699 0.988207 0.566764 0.225519
H185  H     H_    0.319066 0.910080 0.534052 0.211988
H186  H     H_    0.400415 0.899804 0.663539 0.176216
H187  H     H_    0.343620 0.894476 0.725415 0.175424
C180  C     C_3   0.638752 0.926913 0.314547 -0.366200
C181  C     C_3   0.698076 0.940555 0.385516 -0.333713
C182  C     C_3   0.740395 0.883753 0.410181 -0.893839
H188  H     H_    0.725019 0.854105 0.462979 0.267659
H189  H     H_    0.743183 0.855526 0.348239 0.267129
H190  H     H_    0.788102 0.900245 0.439891 0.248176
H191  H     H_    0.726468 0.974150 0.354536 0.239605
H192  H     H_    0.686172 0.961518 0.448733 0.244051
H193  H     H_    0.603150 0.900523 0.340836 0.205349
H194  H     H_    0.649097 0.894592 0.260765 0.174212
C183  C     C_3   0.861586 0.427007 0.680481 -0.347139
C184  C     C_3   0.811704 0.438510 0.593812 -0.261383
C185  C     C_3   0.745616 0.423424 0.607518 -0.916699
H195  H     H_    0.742999 0.374459 0.632603 0.264822
H196  H     H_    0.729977 0.456036 0.656463 0.273030
H197  H     H_    0.713077 0.427628 0.540722 0.251751
H198  H     H_    0.816517 0.486233 0.567264 0.225752
H199  H     H_    0.818942 0.407761 0.536997 0.212263
H200  H     H_    0.900774 0.399595 0.665396 0.173960
H201  H     H_    0.844350 0.394647 0.728740 0.176636
C186  C     C_3   0.138011 0.427153 0.320379 -0.344638
C187  C     C_3   0.188022 0.438881 0.406954 -0.263421
C188  C     C_3   0.254091 0.424381 0.393115 -0.916658
H202  H     H_    0.256685 0.375489 0.367924 0.264706
H203  H     H_    0.269734 0.457221 0.344262 0.273235
H204  H     H_    0.286662 0.428716 0.459893 0.252092
H205  H     H_    0.183191 0.486479 0.433769 0.224957
H206  H     H_    0.180896 0.407877 0.463640 0.212756
H207  H     H_    0.098755 0.399478 0.335502 0.175184
H208  H     H_    0.155029 0.394608 0.272378 0.174893
C189  C     C_3   0.696729 0.994490 0.176926 -0.957118
H209  H     H_    0.709837 0.945238 0.193281 0.247529
H210  H     H_    0.699459 0.997741 0.103073 0.246234
H211  H     H_    0.732868 0.024985 0.217047 0.240390
C190  C     C_3   0.301795 0.992077 0.817031 -0.919618
H212  H     H_    0.290066 0.942082 0.804497 0.239662
H213  H     H_    0.296268 0.997323 0.889115 0.248835
H214  H     H_    0.266921 0.021438 0.772624 0.241817
C191  C     C_3   0.197911 0.493467 0.182656 -0.919905
H215  H     H_    0.209580 0.443509 0.194946 0.240730
H216  H     H_    0.203429 0.499153 0.110622 0.249340
H217  H     H_    0.232765 0.522936 0.227249 0.242593
C192  C     C_3   0.801797 0.494060 0.817699 -0.934949
H218  H     H_    0.790271 0.443888 0.806448 0.245117
H219  H     H_    0.795869 0.500606 0.889706 0.238979
H220  H     H_    0.766966 0.522860 0.772328 0.243818

loop_
_geom_bond_atom_site_label_1
_geom_bond_atom_site_label_2
_geom_bond_distance
_ccdc_geom_bond_type
C177  H187  1.104861 S    
C100  C112  1.429758 A    
C137  H76   1.108783 S    
C112  C170  1.515999 S    
C115  H19   1.107183 S    
C17   C49   1.415240 A    
C154  H121  1.105396 S    
C190  H212  1.101402 S    
C65   C73   1.398661 A    
C135  H65   1.111684 S    
C53   C73   1.409162 A    
N2    C86   1.380500 A    
C18   C50   1.430563 A    
C166  H148  1.111084 S    
C135  H67   1.110610 S    
C143  H90   1.109759 S    
C41   C49   1.406202 A    
C155  H123  1.110128 S    
C150  H110  1.106457 S    
C130  H64   1.103750 S    
C129  H52   1.110679 S    
C172  H162  1.108700 S    
C26   C121  1.532148 S    
C185  H196  1.102807 S    
N4    C92   1.388065 A    
C148  H104  1.108074 S    
C42   C50   1.415276 A    
C122  C123  1.526750 S    
C176  H180  1.079163 S    
C78   C118  1.519167 S    
C25   C124  1.530657 S    
O3    C3    1.306461 A    
C162  C163  1.526357 S    
C64   C71   1.411655 A    
C125  H48   1.109669 S    
C174  H174  1.077699 S    
C183  H200  1.094812 S    
C119  H32   1.108193 S    
C188  H203  1.102657 S    
C89   C174  1.510855 S    
C82   C98   1.420008 A    
C60   C63   1.401072 A    
C21   C29   1.423509 A    
C116  H23   1.110302 S    
O9    Zn2   1.931430 S    
C132  H59   1.110908 S    
Zn4   N3    2.028361 S    
C23   C55   1.416466 A    
C128  C129  1.526940 S    
C55   C75   1.417666 A    
C124  C125  1.536169 S    
C142  C143  1.536574 S    
C139  H84   1.098836 S    
C175  H177  1.078903 S    
N4    C88   1.380288 A    
C132  H58   1.110456 S    
C51   C79   1.410448 A    
O7    Zn4   1.947559 S    
C167  H160  1.111869 S    
C159  H137  1.110329 S    
C123  H37   1.111606 S    
C70   C158  1.514265 S    
C142  H92   1.103693 S    
C46   C62   1.426869 A    
C121  H43   1.107353 S    
O15   Zn3   1.936886 S    
C170  C171  1.538957 S    
C33   H2    1.054812 S    
C192  H220  1.105422 S    
O12   C4    1.327963 A    
C83   C191  1.521620 S    
O13   C5    1.311144 A    
O2    Zn2   1.940159 S    
C114  H18   1.106567 S    
C40   H7    1.075600 S    
C184  H199  1.099989 S    
C61   C70   1.421785 A    
C180  H194  1.106904 S    
C43   C51   1.408513 A    
C172  H164  1.110480 S    
C147  H100  1.106899 S    
C15   C31   1.441921 A    
C177  C178  1.544130 S    
C190  H214  1.105918 S    
C123  H39   1.110634 S    
C17   C25   1.425512 A    
C179  H181  1.110825 S    
C166  H150  1.110476 S    
C99   C111  1.433395 A    
C19   C27   1.424219 A    
C72   C160  1.516354 S    
C155  H125  1.110818 S    
C20   C28   1.430646 A    
O3    Zn2   1.947559 S    
C36   H3    1.074662 S    
C165  C166  1.526493 S    
C66   C154  1.515470 S    
C182  H188  1.102329 S    
C186  H207  1.095526 S    
C175  H176  1.106592 S    
C151  H112  1.106932 S    
C173  H169  1.102927 S    
C56   C76   1.423232 A    
N1    C89   1.390772 A    
C57   C62   1.403067 A    
O10   C2    1.326355 A    
C95   C99   1.418721 A    
C164  C165  1.541829 S    
O4    C4    1.296088 A    
C93   C97   1.413364 A    
O5    C5    1.305376 A    
C131  C132  1.529137 S    
C94   C102  1.439518 A    
C126  H44   1.109983 S    
C69   C77   1.404583 A    
C92   C175  1.510712 S    
C14   C38   1.399196 A    
C1    C12   1.494996 S    
C19   C51   1.416409 A    
C2    C11   1.505471 S    
C84   C192  1.523941 S    
C3    C10   1.491903 S    
C143  C144  1.528790 S    
O6    C6    1.299273 A    
C47   C63   1.425899 A    
C189  H209  1.102752 S    
C27   C130  1.532210 S    
C34   H1    1.075088 S    
C164  H153  1.111867 S    
C183  C184  1.543515 S    
C168  H158  1.109673 S    
C191  H215  1.101618 S    
C10   C34   1.397107 A    
C171  H165  1.110759 S    
C153  H117  1.109928 S    
C62   C69   1.412125 A    
C109  C161  1.516573 S    
C134  H68   1.111345 S    
C187  C188  1.528537 S    
C57   C66   1.419498 A    
C113  H14   1.108304 S    
C59   C64   1.402695 A    
C158  H133  1.106664 S    
O11   Zn1   1.936886 S    
C46   C54   1.415657 A    
N3    C87   1.379581 A    
C139  C140  1.533387 S    
C24   C56   1.430178 A    
C87   C186  1.512593 S    
C39   C47   1.396382 A    
O5    Zn3   1.940158 S    
C107  C111  1.398956 A    
O6    Zn4   1.940159 S    
C41   C57   1.425096 A    
C120  H35   1.110275 S    
C35   C43   1.392091 A    
C133  H71   1.107041 S    
C36   C44   1.401233 A    
C138  H72   1.110461 S    
C16   C32   1.424110 A    
C160  H140  1.108906 S    
C37   H6    1.055378 S    
C187  H206  1.099630 S    
C117  H26   1.105109 S    
C149  H105  1.108626 S    
C118  H29   1.110318 S    
C161  H147  1.111773 S    
C127  H56   1.098755 S    
C157  H130  1.107441 S    
C182  H190  1.110857 S    
C24   C152  1.518491 S    
C124  H50   1.103627 S    
C173  H171  1.079288 S    
C163  H142  1.110762 S    
C35   H4    1.053981 S    
C140  H83   1.105421 S    
C84   C88   1.431060 A    
O12   Zn2   1.936888 S    
C136  H78   1.103725 S    
C89   C93   1.442516 A    
C181  H191  1.098693 S    
C91   C95   1.438986 A    
C84   C100  1.419367 A    
C7    C14   1.496817 S    
C65   C153  1.497020 S    
C152  H114  1.110175 S    
C122  H41   1.105565 S    
C146  H97   1.110212 S    
Zn2   N1    2.028361 S    
C190  H213  1.100721 S    
C22   C30   1.429372 A    
C81   C85   1.433038 A    
C58   C65   1.411914 A    
C160  H138  1.106369 S    
C189  H211  1.105730 S    
C83   C87   1.429153 A    
C128  H54   1.111329 S    
C162  H145  1.112159 S    
C137  H75   1.111889 S    
C67   C155  1.502722 S    
C47   C55   1.408831 A    
C178  C179  1.528436 S    
C22   C150  1.519125 S    
O10   Zn1   1.931431 S    
C184  C185  1.528543 S    
C191  H217  1.105425 S    
C177  H186  1.094474 S    
C141  H81   1.110661 S    
C20   C52   1.430460 A    
C75   C115  1.512367 S    
C10   C26   1.423980 A    
C187  H205  1.100680 S    
C145  H95   1.110088 S    
C135  H66   1.110707 S    
C186  H208  1.105425 S    
C150  H109  1.109757 S    
C130  H63   1.099476 S    
O1    C1    1.302026 A    
C38   H5    1.076859 S    
O14   C6    1.327176 A    
C179  H183  1.110518 S    
C110  C164  1.518699 S    
C169  H157  1.110474 S    
C178  H184  1.100533 S    
C106  H10   1.076251 S    
C74   C114  1.518300 S    
O7    C7    1.305715 A    
C148  H103  1.109898 S    
C91   C176  1.509537 S    
C98   C110  1.434325 A    
C138  H74   1.110555 S    
C176  H179  1.105578 S    
C21   C149  1.521603 S    
C21   C53   1.415923 A    
C115  H20   1.105431 S    
C149  H107  1.110100 S    
C71   C79   1.400283 A    
C9    C25   1.442684 A    
C19   C147  1.521011 S    
C174  H173  1.106498 S    
C49   C77   1.414384 A    
C68   C76   1.420383 A    
C188  H202  1.110684 S    
C12   C28   1.427407 A    
C54   C74   1.425707 A    
C73   C113  1.510477 S    
C102  C105  1.396835 A    
C116  H22   1.108284 S    
N1    C85   1.382301 A    
C103  C104  1.413639 A    
C121  C122  1.533460 S    
C170  H168  1.111892 S    
O11   C3    1.311124 A    
C105  H9    1.078961 S    
C18   C146  1.518429 S    
C95   C103  1.438223 A    
C153  H119  1.110345 S    
C96   C104  1.439951 A    
C119  H33   1.109307 S    
C97   C109  1.428974 A    
C131  H61   1.112060 S    
C94   C98   1.418858 A    
C13   C29   1.440481 A    
C141  H79   1.111599 S    
C85   C180  1.505919 S    
C152  H116  1.107688 S    
C15   C39   1.403575 A    
C154  H120  1.105857 S    
C159  H136  1.107260 S    
C142  H91   1.096345 S    
C121  H42   1.098457 S    
C192  H219  1.105332 S    
O13   Zn4   1.931430 S    
O14   Zn3   1.931431 S    
C114  H17   1.110350 S    
C92   C96   1.439545 A    
C180  H193  1.086316 S    
C101  C106  1.392164 A    
C172  H163  1.110864 S    
C11   C27   1.440548 A    
C147  H99   1.107719 S    
C44   C60   1.422201 A    
C104  C107  1.393083 A    
C59   C68   1.421598 A    
C166  H149  1.110694 S    
C42   C58   1.426398 A    
C143  H89   1.111950 S    
O4    Zn1   1.947561 S    
C155  H124  1.107392 S    
C103  C108  1.396398 A    
C129  H53   1.110653 S    
C22   C54   1.429994 A    
N3    C91   1.383944 A    
C48   C64   1.425544 A    
C118  H28   1.108088 S    
C185  H197  1.110516 S    
C141  H80   1.110693 S    
C106  C110  1.398764 A    
C169  H155  1.111080 S    
C83   C99   1.420220 A    
C34   C42   1.401350 A    
C157  H129  1.109688 S    
C151  H111  1.106101 S    
C63   C72   1.420528 A    
C144  H88   1.110496 S    
C45   C61   1.428999 A    
C130  C131  1.533635 S    
C79   C119  1.511267 S    
C134  H69   1.105166 S    
C140  C141  1.526750 S    
C125  H47   1.112103 S    
C183  H201  1.105425 S    
C188  H204  1.110533 S    
C101  C102  1.414990 A    
C111  C167  1.518664 S    
C116  H24   1.107047 S    
C132  H60   1.110553 S    
C105  C109  1.399086 A    
C139  H85   1.107380 S    
C108  C112  1.399198 A    
C37   C45   1.394139 A    
C181  C182  1.528168 S    
C168  H159  1.111114 S    
C60   C67   1.410868 A    
C171  H166  1.112262 S    
C8    C13   1.505743 S    
C167  H161  1.098809 S    
C140  H82   1.111357 S    
C173  H170  1.105945 S    
C163  H141  1.109058 S    
C113  H13   1.109107 S    
N2    C90   1.385237 A    
C126  H46   1.110504 S    
C71   C159  1.496592 S    
C58   C61   1.404839 A    
C23   C31   1.426839 A    
C158  H132  1.104599 S    
C145  H93   1.105834 S    
C77   C117  1.512072 S    
C137  C138  1.529102 S    
C161  C162  1.538646 S    
C17   C145  1.521124 S    
C184  H198  1.100342 S    
C40   C48   1.400318 A    
C120  H34   1.107787 S    
C147  H101  1.110243 S    
C133  H70   1.098534 S    
C186  C187  1.543795 S    
O8    Zn3   1.947561 S    
C11   C35   1.400690 A    
C12   C36   1.391073 A    
O16   Zn4   1.936888 S    
C129  H51   1.111692 S    
C30   C133  1.532721 S    
C117  H25   1.106577 S    
C82   C190  1.522469 S    
C127  C128  1.533793 S    
C161  H146  1.101554 S    
C185  H195  1.110776 S    
C108  H12   1.079879 S    
C180  C181  1.538695 S    
C5    C16   1.489929 S    
C43   C59   1.427140 A    
C119  H31   1.108298 S    
C6    C15   1.516710 S    
C182  H189  1.107114 S    
C107  H11   1.076283 S    
C81   C97   1.415947 A    
C156  H126  1.104397 S    
C20   C148  1.518082 S    
C124  H49   1.096728 S    
C151  H113  1.109962 S    
C32   C139  1.532287 S    
C123  H38   1.110694 S    
C120  H36   1.105990 S    
C45   C53   1.408797 A    
C76   C116  1.518846 S    
C136  H77   1.099186 S    
C181  H192  1.109951 S    
C66   C74   1.421370 A    
O8    C8    1.294551 A    
C38   C46   1.404246 A    
C160  H139  1.106494 S    
C165  H152  1.111017 S    
C125  C126  1.528908 S    
C31   C142  1.528885 S    
C146  H96   1.110181 S    
O15   C7    1.314132 A    
C68   C156  1.513876 S    
C189  H210  1.107058 S    
C128  H55   1.105171 S    
O1    Zn1   1.940158 S    
C159  H135  1.109979 S    
C33   C41   1.396605 A    
C80   C120  1.518894 S    
C96   C100  1.414467 A    
C164  H154  1.098047 S    
C4    C9    1.511273 S    
C191  H216  1.100659 S    
C14   C30   1.427343 A    
C90   C173  1.509790 S    
C18   C26   1.429534 A    
C113  H15   1.109130 S    
C145  H94   1.107179 S    
C158  H134  1.108922 S    
C154  H122  1.108815 S    
C156  H127  1.106354 S    
C150  H108  1.110286 S    
C28   C127  1.531439 S    
C67   C75   1.405048 A    
C90   C94   1.440901 A    
C179  H182  1.102588 S    
C165  H151  1.109692 S    
C144  H86   1.109923 S    
C169  H156  1.110715 S    
C133  C134  1.533821 S    
C144  H87   1.110889 S    
C178  H185  1.100336 S    
C156  H128  1.109074 S    
C126  H45   1.110897 S    
C148  H102  1.110269 S    
C48   C56   1.415676 A    
C138  H73   1.110901 S    
C176  H178  1.102944 S    
C82   C86   1.429550 A    
Zn1   N2    2.028362 S    
O9    C1    1.317180 A    
Zn3   N4    2.028362 S    
C117  H27   1.109725 S    
C149  H106  1.107076 S    
C118  H30   1.106884 S    
C127  H57   1.107462 S    
C162  H144  1.110706 S    
C72   C80   1.423196 A    
C174  H172  1.100902 S    
C52   C80   1.427009 A    
C157  H131  1.110066 S    
C93   C101  1.440673 A    
C13   C37   1.402018 A    
O2    C2    1.294196 A    
C16   C40   1.396358 A    
C69   C157  1.497964 S    
C163  H143  1.110468 S    
C86   C177  1.511121 S    
C115  H21   1.109610 S    
C170  H167  1.100663 S    
C39   H8    1.053587 S    
C29   C136  1.532213 S    
C114  H16   1.108163 S    
C88   C183  1.510475 S    
C153  H118  1.108232 S    
C175  H175  1.101022 S    
C81   C189  1.530238 S    
C24   C32   1.429063 A    
C168  C169  1.526432 S    
C9    C33   1.400303 A    
C171  C172  1.526072 S    
C152  H115  1.110206 S    
C122  H40   1.111364 S    
C44   C52   1.414633 A    
C134  C135  1.526902 S    
C146  H98   1.107654 S    
O16   C8    1.326257 A    
C192  H218  1.101920 S    
C136  C137  1.533684 S    
C23   C151  1.520839 S    
C167  C168  1.541812 S    
C70   C78   1.421085 A    
C50   C78   1.423638 A    
C131  H62   1.108922 S    
