data_mof_unit_52793.cif
_audit_creation_date              2012-12-10T19:52:21-0500
_audit_creation_method            fapswitch 2.2
_symmetry_space_group_name_H-M    P1
_symmetry_Int_Tables_number       1
_space_group_crystal_system       triclinic
_cell_length_a                    14.842595
_cell_length_b                    14.221679
_cell_length_c                    10.631087
_cell_angle_alpha                 89.749288
_cell_angle_beta                  91.110177
_cell_angle_gamma                 90.451422
_cell_volume                      2243.5693415

loop_
_atom_site_label
_atom_site_type_symbol
_atom_type_description
_atom_site_fract_x
_atom_site_fract_y
_atom_site_fract_z
_atom_type_partial_charge
C1    C     C_R   0.327749 0.499519 0.500890 0.921737
C2    C     C_R   0.904397 0.567914 0.608583 -0.122737
C3    C     C_R   0.817935 0.423260 0.473795 -0.217486
C4    C     C_R   0.812084 0.570017 0.590015 -0.230405
C5    C     C_R   0.769056 0.499018 0.519985 -0.029184
C6    C     C_R   0.953068 0.494206 0.558103 0.199450
C7    C     C_R   0.458432 0.104787 0.403869 -0.491511
C8    C     C_R   0.426671 0.896369 0.458991 -0.506196
C9    C     C_R   0.503126 0.500012 0.258084 0.901893
C10   C     C_R   0.454838 0.204154 0.407282 0.587974
C11   C     C_R   0.426674 0.796439 0.453936 0.601511
C12   C     C_3   0.570895 0.584748 0.930781 0.254870
C13   C     C_R   0.544228 0.205164 0.594517 0.041908
C14   C     C_R   0.574656 0.795981 0.542796 0.047546
C15   C     C_R   0.540039 0.105793 0.602155 0.395126
C16   C     C_R   0.580152 0.895240 0.533514 0.395413
C17   C     C_R   0.500883 0.053720 0.501637 -0.005689
C18   C     C_R   0.503214 0.947284 0.497734 -0.001713
C19   C     C_R   0.672623 0.500089 0.503029 0.842249
C20   C     C_R   0.504810 0.500173 0.742150 0.843034
C21   C     C_3   0.408076 0.510831 0.068262 -0.098559
C22   C     C_3   0.542370 0.403713 0.073757 -0.086891
C23   C     C_R   0.087149 0.563723 0.466272 0.435895
C24   C     C_3   0.409993 0.513398 0.923503 -0.486385
C25   C     C_3   0.543172 0.405085 0.929583 -0.513009
C26   C     C_3   0.568608 0.581465 0.076389 -0.437953
C27   C     C_3   0.506151 0.499939 0.121940 0.097567
C28   C     C_3   0.508308 0.501616 0.878747 0.112647
C29   C     C_3   0.320406 0.233768 0.301674 0.073761
C30   C     C_3   0.295432 0.208087 0.165869 -0.369927
C31   C     C_3   0.195045 0.185920 0.150929 -0.959618
C32   C     C_3   0.303788 0.786295 0.311125 0.040379
C33   C     C_3   0.213578 0.827341 0.351667 -0.346627
C34   C     C_R   0.102922 0.438165 0.623556 0.457528
C35   C     C_3   0.160139 0.865870 0.239013 -0.960025
C36   C     C_3   0.508154 0.036253 0.789472 0.080927
C37   C     C_3   0.548941 0.981387 0.900362 -0.283586
C38   C     C_3   0.477058 0.951283 0.993487 -1.026942
C39   C     C_3   0.705774 0.964274 0.454518 0.072814
C40   C     C_3   0.790728 0.020259 0.489787 -0.286232
C41   C     C_3   0.842771 0.049389 0.373318 -0.989279
C42   C     C_3   0.028143 0.599207 0.272057 0.080676
C43   C     C_3   0.948807 0.649068 0.207809 -0.298884
C44   C     C_3   0.939802 0.622323 0.069161 -1.006327
C45   C     C_R   0.179642 0.563213 0.449793 -0.299487
C46   C     C_3   0.058044 0.419459 0.826898 0.098848
C47   C     C_3   0.142266 0.400696 0.908862 -0.347529
C48   C     C_3   0.132478 0.439865 0.041183 -1.011618
C49   C     C_R   0.194347 0.434765 0.600403 -0.308827
C50   C     C_R   0.232251 0.498227 0.515438 -0.160568
C51   C     C_R   0.049451 0.501314 0.553855 -0.146225
C52   C     C_R   0.910263 0.420983 0.492763 -0.143156
H1    H     H_    0.785054 0.367289 0.420965 0.158522
H2    H     H_    0.610819 0.388659 0.893055 0.179531
H3    H     H_    0.545386 0.649910 0.113605 0.170153
H4    H     H_    0.637515 0.573241 0.117704 0.162192
H5    H     H_    0.210109 0.611166 0.383597 0.180268
H6    H     H_    0.236061 0.384575 0.651193 0.165779
H7    H     H_    0.948824 0.364769 0.451963 0.134127
H8    H     H_    0.938254 0.624701 0.658591 0.134013
H9    H     H_    0.390008 0.654869 0.085637 0.185470
H10   H     H_    0.294551 0.590613 0.088192 0.177931
H11   H     H_    0.681579 0.421604 0.092053 0.180290
H12   H     H_    0.774727 0.626296 0.631358 0.154960
H13   H     H_    0.645222 0.310168 0.105841 0.189453
H14   H     H_    0.283465 0.298385 0.327318 0.171394
H15   H     H_    0.296867 0.176611 0.365881 0.120158
H16   H     H_    0.313016 0.267668 0.102614 0.216228
H17   H     H_    0.334595 0.145631 0.137455 0.216743
H18   H     H_    0.176658 0.124459 0.210256 0.266590
H19   H     H_    0.179000 0.168848 0.051141 0.264890
H20   H     H_    0.154417 0.247464 0.178572 0.270345
H21   H     H_    0.288351 0.728772 0.244083 0.165207
H22   H     H_    0.344127 0.838718 0.257317 0.124956
H23   H     H_    0.428344 0.068040 0.324340 0.188260
H24   H     H_    0.172786 0.771884 0.397958 0.254055
H25   H     H_    0.224534 0.884522 0.420945 0.212922
H26   H     H_    0.198690 0.923082 0.192468 0.264074
H27   H     H_    0.095234 0.894694 0.271170 0.269933
H28   H     H_    0.145491 0.808990 0.170109 0.260528
H29   H     H_    0.663571 0.235999 0.678264 0.190782
H30   H     H_    0.574804 0.237982 0.774696 0.172759
H31   H     H_    0.658121 0.771076 0.690694 0.192787
H32   H     H_    0.705779 0.761297 0.548081 0.180864
H33   H     H_    0.456267 0.990866 0.742195 0.143476
H34   H     H_    0.366729 0.935098 0.433959 0.184987
H35   H     H_    0.475195 0.100566 0.825797 0.114136
H36   H     H_    0.582978 0.917719 0.864655 0.227495
H37   H     H_    0.600113 0.026015 0.949826 0.219070
H38   H     H_    0.442918 0.013895 0.031883 0.265953
H39   H     H_    0.509058 0.911918 0.072764 0.261312
H40   H     H_    0.426241 0.904771 0.946686 0.266115
H41   H     H_    0.662939 0.008677 0.391170 0.143013
H42   H     H_    0.725445 0.899654 0.403234 0.120211
H43   H     H_    0.771618 0.084384 0.542154 0.232591
H44   H     H_    0.834902 0.976744 0.551964 0.224130
H45   H     H_    0.368636 0.447372 0.096669 0.147439
H46   H     H_    0.863841 0.986278 0.320510 0.266275
H47   H     H_    0.903962 0.089833 0.402278 0.269640
H48   H     H_    0.800365 0.094528 0.310955 0.264170
H49   H     H_    0.477416 0.694842 0.924850 0.167220
H50   H     H_    0.585066 0.729312 0.915561 0.183001
H51   H     H_    0.666350 0.572786 0.791223 0.185262
H52   H     H_    0.694970 0.514551 0.924233 0.167344
H53   H     H_    0.017350 0.521773 0.261966 0.137625
H54   H     H_    0.091324 0.620331 0.224441 0.136415
H55   H     H_    0.885569 0.629454 0.256189 0.228227
H56   H     H_    0.494273 0.347101 0.102134 0.194701
H57   H     H_    0.958562 0.726438 0.215339 0.225950
H58   H     H_    0.001160 0.644040 0.018020 0.261868
H59   H     H_    0.880767 0.658494 0.025932 0.273693
H60   H     H_    0.929689 0.545197 0.059322 0.264944
H61   H     H_    0.998758 0.387947 0.873954 0.165935
H62   H     H_    0.044976 0.496623 0.820455 0.118527
H63   H     H_    0.154007 0.323726 0.914980 0.235222
H64   H     H_    0.201888 0.434434 0.865740 0.205335
H65   H     H_    0.124581 0.517360 0.037008 0.262422
H66   H     H_    0.193735 0.423587 0.098560 0.266811
H67   H     H_    0.367260 0.454736 0.886128 0.153081
H68   H     H_    0.073130 0.407794 0.087370 0.263478
H69   H     H_    0.497497 0.347625 0.895854 0.183359
H70   H     H_    0.379274 0.578746 0.884999 0.182957
N1    N     N_R   0.499980 0.252470 0.500000 -0.139177
N2    N     N_R   0.499980 0.747530 0.500000 -0.138736
N3    N     N_3   0.361799 0.592562 0.119486 -0.461537
N4    N     N_3   0.630711 0.379677 0.129472 -0.448549
N5    N     N_3   0.596491 0.256923 0.685185 -0.385458
N6    N     N_3   0.647956 0.746022 0.599159 -0.387733
N7    N     N_3   0.539022 0.677396 0.886170 -0.420332
N8    N     N_3   0.664669 0.575318 0.889315 -0.473288
O1    O     O_R   0.369070 0.579480 0.500010 -0.547294
O2    O     O_3   0.350259 0.746109 0.415908 -0.606847
O3    O     O_3   0.577588 0.061165 0.706268 -0.604800
O4    O     O_3   0.660360 0.939930 0.565688 -0.604524
O5    O     O_3   0.032820 0.626071 0.399814 -0.641840
O6    O     O_3   0.065328 0.375630 0.708102 -0.645593
O7    O     O_R   0.369070 0.420520 0.500010 -0.627398
O8    O     O_R   0.499990 0.579480 0.314790 -0.615830
O9    O     O_R   0.499990 0.420520 0.314790 -0.571200
O10   O     O_R   0.630940 0.579480 0.499990 -0.610727
O11   O     O_R   0.630940 0.420520 0.499990 -0.602868
O12   O     O_R   0.500020 0.579480 0.685200 -0.594212
O13   O     O_R   0.500020 0.420520 0.685200 -0.617359
O14   O     O_3   0.413944 0.253920 0.310141 -0.627636
Zn1   Zn    Zn3+2 0.500010 0.606140 0.500000 0.993194
Zn2   Zn    Zn3+2 0.500010 0.393860 0.500000 0.979014

loop_
_geom_bond_atom_site_label_1
_geom_bond_atom_site_label_2
_ccdc_geom_bond_type
H32   N6    S    
O13   Zn2   S    
O9    Zn2   S    
C23   C45   A    
C7    C10   A    
C3    H1    S    
C37   H36   S    
C11   N2    A    
O12   Zn1   S    
H50   N7    S    
C32   O2    S    
H31   N6    S    
C16   O4    S    
C11   O2    S    
C48   H68   S    
C25   C28   S    
C47   H63   S    
C45   H5    S    
C34   C51   A    
C29   C30   S    
C12   N8    S    
C12   C28   S    
C36   C37   S    
C32   H22   S    
C30   C31   S    
C13   N1    A    
C2    H8    S    
C22   N4    S    
C7    C17   A    
O8    Zn1   S    
C38   H40   S    
C35   H28   S    
C14   N6    S    
C39   H41   S    
C29   H15   S    
C31   H18   S    
C19   O10   A    
C34   C49   A    
C22   C25   S    
C41   H47   S    
C6    C51   S    
C1    C50   S    
C31   H19   S    
C21   C27   S    
C19   O11   A    
H52   N8    S    
C36   O3    S    
C20   O13   A    
C2    C6    A    
C40   H44   S    
H51   N8    S    
C36   H35   S    
C47   H64   S    
C14   N2    A    
C12   N7    S    
C46   H62   S    
C20   O12   A    
O7    Zn2   S    
C25   H2    S    
C10   N1    A    
C32   H21   S    
C48   H66   S    
C20   C28   S    
C1    O1    A    
C29   O14   S    
C38   H39   S    
C8    C18   A    
C49   H6    S    
C12   C26   S    
C42   O5    S    
C2    C4    A    
C43   C44   S    
C39   H42   S    
C37   C38   S    
C52   H7    S    
C21   H45   S    
C9    O8    A    
C33   H24   S    
C23   C51   A    
C47   C48   S    
N1    Zn2   S    
C34   O6    S    
C24   H70   S    
C17   C18   S    
C26   C27   S    
C41   H48   S    
C43   H55   S    
C42   H54   S    
O11   Zn2   S    
C15   O3    S    
C44   H60   S    
C31   H20   S    
C22   C27   S    
C13   C15   A    
C14   C16   A    
C42   C43   S    
C40   H43   S    
C21   N3    S    
C39   C40   S    
C30   H17   S    
C1    O7    A    
C9    C27   S    
C15   C17   A    
C4    H12   S    
C46   C47   S    
C40   C41   S    
C24   H67   S    
C46   H61   S    
C10   O14   S    
C24   C28   S    
C4    C5    A    
C3    C5    A    
C26   H4    S    
O10   Zn1   S    
H10   N3    S    
C7    H23   S    
C3    C52   A    
C48   H65   S    
C5    C19   S    
C37   H37   S    
C36   H33   S    
N2    Zn1   S    
C38   H38   S    
C35   H26   S    
C23   O5    S    
H13   N4    S    
C32   C33   S    
C9    O9    A    
C33   H25   S    
C45   C50   A    
C8    C11   A    
C22   H56   S    
C35   H27   S    
C33   C35   S    
C26   H3    S    
O1    Zn1   S    
C8    H34   S    
C42   H53   S    
H30   N5    S    
H11   N4    S    
C46   O6    S    
C29   H14   S    
C13   N5    S    
C44   H59   S    
C16   C18   A    
C49   C50   A    
C21   C24   S    
C41   H46   S    
H9    N3    S    
C43   H57   S    
C6    C52   A    
C25   H69   S    
C30   H16   S    
H29   N5    S    
H49   N7    S    
C39   O4    S    
C44   H58   S    
