data_mof_unit_63857.cif
_audit_creation_date              2012-12-10T20:33:28-0500
_audit_creation_method            fapswitch 2.2
_symmetry_space_group_name_H-M    P1
_symmetry_Int_Tables_number       1
_space_group_crystal_system       triclinic
_cell_length_a                    14.147185
_cell_length_b                    10.682216
_cell_length_c                    9.887625
_cell_angle_alpha                 90.187939
_cell_angle_beta                  90.538403
_cell_angle_gamma                 90.271715
_cell_volume                      1494.15934757

loop_
_atom_site_label
_atom_site_type_symbol
_atom_type_description
_atom_site_fract_x
_atom_site_fract_y
_atom_site_fract_z
_atom_type_partial_charge
C1    C     C_R   0.502448 0.260001 0.499964 0.866824
C2    C     C_1   0.772280 0.500193 0.501477 -0.164230
C3    C     C_R   0.512921 0.064340 0.623115 0.142628
C4    C     C_R   0.516511 0.128625 0.501001 -0.111105
C5    C     C_R   0.537643 0.064563 0.381122 -0.214387
C6    C     C_R   0.537860 0.935083 0.381327 -0.205517
C7    C     C_R   0.516841 0.871545 0.501392 -0.114351
C8    C     C_R   0.513077 0.936675 0.623327 0.181440
C9    C     C_3   0.442331 0.929480 0.734510 -0.447207
C10   C     C_3   0.442201 0.071422 0.734318 -0.496920
C11   C     C_R   0.440563 0.422685 0.069376 0.134587
C12   C     C_R   0.329206 0.499858 0.499534 0.892811
C13   C     C_R   0.562476 0.570887 0.073888 -0.134920
C14   C     C_R   0.562078 0.572340 0.930493 0.299971
C15   C     C_R   0.443262 0.418779 0.927226 0.109937
C16   C     C_3   0.338641 0.410055 0.914576 -0.503831
C17   C     C_3   0.334478 0.423460 0.067344 -0.014990
C18   C     C_R   0.502621 0.740014 0.500199 0.893931
C19   C     C_R   0.670811 0.500109 0.500510 0.900769
C20   C     C_1   0.227751 0.499827 0.498736 -0.180650
C21   C     C_1   0.142509 0.499897 0.498905 0.015918
C22   C     C_1   0.042648 0.500035 0.499715 0.029719
C23   C     C_1   0.957405 0.500141 0.500575 0.027689
C24   C     C_1   0.857533 0.500208 0.501377 0.014452
H1    H     H_    0.547791 0.113355 0.286440 0.176804
H2    H     H_    0.315548 0.316249 0.877720 0.179511
H3    H     H_    0.303633 0.340113 0.117782 0.144345
H4    H     H_    0.548164 0.885758 0.286725 0.181800
H5    H     H_    0.373912 0.887436 0.700991 0.203081
H6    H     H_    0.472917 0.889148 0.828634 0.235334
H7    H     H_    0.373699 0.112135 0.700744 0.202699
H8    H     H_    0.472789 0.113121 0.828252 0.213856
H9    H     H_    0.611409 0.630018 0.129839 0.170466
H10   H     H_    0.307455 0.489675 0.857938 0.243524
N1    N     N_R   0.499420 0.499140 0.142800 -0.106204
N2    N     N_R   0.499420 0.499180 0.857150 -0.112100
O1    O     O_R   0.500010 0.316790 0.614690 -0.609675
O2    O     O_R   0.500000 0.316760 0.385350 -0.621914
O3    O     O_R   0.373720 0.500020 0.614700 -0.610844
O4    O     O_R   0.373710 0.499980 0.385350 -0.565392
O5    O     O_R   0.500000 0.683240 0.614650 -0.578269
O6    O     O_R   0.499990 0.683210 0.385310 -0.609968
O7    O     O_R   0.626290 0.500020 0.614650 -0.554875
O8    O     O_R   0.626280 0.499980 0.385300 -0.610176
Zn1   Zn    Zn3+2 0.500010 0.500020 0.653130 0.985591
Zn2   Zn    Zn3+2 0.499990 0.499980 0.346870 0.969008
I1    I     I_    0.272861 0.600687 0.121057 -0.339386
Br1   Br    Br    0.648635 0.683852 0.844599 -0.509786

loop_
_geom_bond_atom_site_label_1
_geom_bond_atom_site_label_2
_ccdc_geom_bond_type
C12   O4    A    
C23   C24   S    
C13   H9    S    
C6    C7    A    
C1    O1    A    
C17   I1    S    
C9    C10   S    
C9    H5    S    
O3    Zn1   S    
C7    C18   S    
C12   C20   S    
C12   O3    A    
C11   N1    A    
N2    Zn1   S    
C3    C10   S    
C13   C14   A    
C19   O8    A    
O4    Zn2   S    
O7    Zn1   S    
C16   C17   S    
C1    O2    A    
C5    H1    S    
C9    H6    S    
O8    Zn2   S    
C13   N1    A    
C18   O6    A    
C2    C24   T    
C5    C6    A    
O2    Zn2   S    
C1    C4    S    
O1    Zn1   S    
C15   C16   S    
C17   H3    S    
C10   H8    S    
C15   N2    A    
C7    C8    A    
C20   C21   T    
C3    C8    A    
O6    Zn2   S    
C18   O5    A    
O5    Zn1   S    
C22   C23   T    
C8    C9    S    
C14   N2    A    
C14   Br1   S    
C16   H10   S    
C2    C19   S    
C21   C22   S    
N1    Zn2   S    
C11   C15   A    
C10   H7    S    
C6    H4    S    
C3    C4    A    
C19   O7    A    
C4    C5    A    
C16   H2    S    
C11   C17   S    
