data_mof_unit_64685.cif
_audit_creation_date              2012-12-10T19:33:52-0500
_audit_creation_method            fapswitch 2.2
_symmetry_space_group_name_H-M    P1
_symmetry_Int_Tables_number       1
_space_group_crystal_system       triclinic
_cell_length_a                    10.815345
_cell_length_b                    15.782431
_cell_length_c                    17.139173
_cell_angle_alpha                 95.921339
_cell_angle_beta                  90.845027
_cell_angle_gamma                 81.605719
_cell_volume                      2878.7435802

loop_
_atom_site_label
_atom_site_type_symbol
_atom_type_description
_atom_site_fract_x
_atom_site_fract_y
_atom_site_fract_z
_atom_type_partial_charge
C1    C     C_R   0.499486 0.490068 0.348484 0.846094
C2    C     C_R   0.500170 0.509991 0.651448 0.806250
C3    C     C_R   0.480976 0.408454 0.217741 -0.303559
C4    C     C_R   0.531680 0.588368 0.781817 -0.306843
C5    C     C_R   0.442390 0.759044 0.460263 0.103345
C6    C     C_R   0.558498 0.240831 0.539225 0.098617
C7    C     C_R   0.445656 0.848054 0.462664 -0.267105
C8    C     C_R   0.554813 0.151898 0.537085 -0.271138
C9    C     C_R   0.524821 0.887891 0.516513 0.378783
C10   C     C_R   0.474207 0.112298 0.484090 0.382823
C11   C     C_R   0.598395 0.835599 0.566167 -0.306232
C12   C     C_R   0.399539 0.164764 0.435078 -0.313097
C13   C     C_R   0.592176 0.746885 0.561864 0.061211
C14   C     C_R   0.406209 0.253404 0.439097 0.034122
C15   C     C_R   0.263833 0.533586 0.505419 0.840452
C16   C     C_R   0.736275 0.466816 0.502307 0.849615
C17   C     C_2   0.127802 0.548382 0.516388 -0.425414
C18   C     C_2   0.872554 0.452833 0.512123 -0.432973
C19   C     C_2   0.069797 0.497081 0.558039 0.249003
C20   C     C_2   0.931794 0.508390 0.559428 0.294234
C21   C     C_R   0.498916 0.485435 0.262442 -0.159575
C22   C     C_R   0.500331 0.514731 0.737346 -0.151678
C23   C     C_R   0.515565 0.557613 0.223987 0.569450
C24   C     C_R   0.469966 0.445925 0.775830 0.560664
C25   C     C_R   0.513708 0.552496 0.142581 -0.225667
C26   C     C_R   0.472364 0.450768 0.857236 -0.224510
C27   C     C_R   0.495201 0.475223 0.097882 0.300306
C28   C     C_R   0.505168 0.524425 0.901746 0.300602
C29   C     C_R   0.479022 0.403674 0.136168 -0.190516
C30   C     C_R   0.533903 0.592963 0.863356 -0.189752
Cu1   Cu    Cu3+1 0.494060 0.416090 0.496220 0.960449
Cu2   Cu    Cu3+1 0.505940 0.583910 0.503780 0.975769
H1    H     H_    0.649226 0.707607 0.600682 0.141880
H2    H     H_    0.347933 0.292949 0.401001 0.129129
H3    H     H_    0.925866 0.397952 0.478206 0.134263
H4    H     H_    0.073220 0.599204 0.487048 0.147217
H5    H     H_    0.448193 0.396839 0.885040 0.181949
H6    H     H_    0.526552 0.609266 0.114948 0.182657
H7    H     H_    0.464620 0.343956 0.102513 0.161737
H8    H     H_    0.558822 0.650013 0.896898 0.161132
H9    H     H_    0.467730 0.351956 0.245724 0.187386
H10   H     H_    0.555644 0.642150 0.753634 0.182829
H11   H     H_    0.620523 0.270552 0.580057 0.144683
H12   H     H_    0.381352 0.729176 0.418839 0.152418
H13   H     H_    0.614541 0.114983 0.576493 0.159419
H14   H     H_    0.386786 0.884835 0.422756 0.161362
H15   H     H_    0.660466 0.863533 0.608285 0.148318
H16   H     H_    0.336233 0.137022 0.393705 0.149238
N1    N     N_2   0.491415 0.466777 0.014776 -0.235996
N2    N     N_2   0.509664 0.532580 0.984811 -0.236283
N3    N     N_R   0.514860 0.709950 0.509460 -0.172366
N4    N     N_R   0.485140 0.290050 0.490540 -0.167148
N5    N     N_2   0.534006 0.978448 0.522972 -0.236861
N6    N     N_2   0.464887 0.021765 0.477715 -0.236979
O1    O     O_R   0.494450 0.421340 0.382530 -0.600780
O2    O     O_R   0.505550 0.578660 0.617470 -0.608714
O3    O     O_R   0.504470 0.563060 0.388920 -0.520171
O4    O     O_R   0.495530 0.436940 0.611080 -0.531765
O5    O     O_R   0.317520 0.455180 0.497990 -0.571672
O6    O     O_R   0.682480 0.544820 0.502010 -0.554442
O7    O     O_R   0.327540 0.596900 0.504370 -0.584038
O8    O     O_R   0.672460 0.403100 0.495630 -0.586275
N7    N     N_2   0.862728 0.575157 0.611703 -0.415467
H17   H     H_    0.784325 0.558391 0.636212 0.247889
C31   C     C_3   0.931175 0.627295 0.666195 -0.682127
H18   H     H_    0.864390 0.676696 0.700762 0.214124
H19   H     H_    0.993957 0.661348 0.634056 0.238224
H20   H     H_    0.986243 0.586465 0.707256 0.242780
N8    N     N_2   0.136829 0.440980 0.609721 -0.412829
H21   H     H_    0.223169 0.454948 0.628696 0.281261
C32   C     C_3   0.131273 0.350166 0.591130 -0.598358
H22   H     H_    0.189210 0.312968 0.633564 0.249797
H23   H     H_    0.167778 0.328302 0.531047 0.219746
H24   H     H_    0.033761 0.336972 0.595679 0.214825
F1    F     F_    0.436538 0.374229 0.735256 -0.667950
F2    F     F_    0.534159 0.633278 0.264522 -0.657767

loop_
_geom_bond_atom_site_label_1
_geom_bond_atom_site_label_2
_ccdc_geom_bond_type
N7    C31   S    
C1    C21   S    
C27   C29   A    
C11   H15   S    
C19   C20   S    
C23   F2    S    
C12   H16   S    
N5    N6    D    
Cu1   O4    S    
C24   C26   A    
Cu2   O7    S    
C7    C9    A    
C16   O6    A    
Cu1   O5    S    
C3    C29   A    
C8    H13   S    
C13   N3    A    
C28   N2    S    
C14   N4    A    
C31   H19   S    
C2    C22   S    
C17   H4    S    
C18   H3    S    
Cu1   N4    S    
Cu1   O8    S    
C16   O8    A    
Cu2   O3    S    
N8    C32   S    
C7    H14   S    
C5    C7    A    
C6    C8    A    
Cu2   N3    S    
C13   H1    S    
C1    O3    A    
C25   H6    S    
C4    C22   A    
Cu1   Cu2   S    
C31   H20   S    
C29   H7    S    
C15   O7    A    
C30   H8    S    
C24   F1    S    
C9    C11   A    
C10   C12   A    
C16   C18   S    
C5    H12   S    
C12   C14   A    
N1    N2    D    
C6    H11   S    
C21   C23   A    
C22   C24   A    
C3    C21   A    
C9    N5    S    
Cu2   O6    S    
C32   H23   S    
C15   C17   S    
C3    H9    S    
C15   O5    A    
C14   H2    S    
C32   H24   S    
C2    O4    A    
C26   H5    S    
C25   C27   A    
C26   C28   A    
Cu1   O1    S    
C20   N7    S    
C28   C30   A    
C1    O1    A    
C32   H22   S    
C2    O2    A    
C11   C13   A    
C4    H10   S    
C17   C19   D    
C18   C20   D    
C23   C25   A    
N8    H21   S    
C10   N6    S    
C19   N8    S    
N7    H17   S    
C8    C10   A    
C31   H18   S    
C5    N3    A    
C6    N4    A    
Cu2   O2    S    
C4    C30   A    
C27   N1    S    
