data_mof_unit_40328.cif
_audit_creation_date              2012-12-10T18:21:16-0500
_audit_creation_method            fapswitch 2.2
_symmetry_space_group_name_H-M    P1
_symmetry_Int_Tables_number       1
_space_group_crystal_system       triclinic
_cell_length_a                    9.461082
_cell_length_b                    10.605654
_cell_length_c                    17.320504
_cell_angle_alpha                 90.151456
_cell_angle_beta                  85.196215
_cell_angle_gamma                 90.577898
_cell_volume                      1731.76025593

loop_
_atom_site_label
_atom_site_type_symbol
_atom_type_description
_atom_site_fract_x
_atom_site_fract_y
_atom_site_fract_z
_atom_type_partial_charge
C1    C     C_R   0.500626 0.740276 0.500495 0.807891
C2    C     C_R   0.499281 0.259774 0.499831 0.800943
C3    C     C_3   0.449155 0.957532 0.435599 0.201660
C4    C     C_3   0.550726 0.042722 0.564526 0.197809
C5    C     C_3   0.581173 0.043583 0.437785 -0.203201
C6    C     C_3   0.418499 0.956955 0.562343 -0.202970
C7    C     C_3   0.497966 0.123054 0.499925 -0.062618
C8    C     C_3   0.501834 0.877086 0.500234 -0.028973
C9    C     C_3   0.365226 0.038935 0.496992 -0.216160
C10   C     C_3   0.634818 0.961406 0.503135 -0.171785
C11   C     C_3   0.955118 0.401360 0.465571 0.178621
C12   C     C_3   0.045047 0.598582 0.534473 0.177867
C13   C     C_3   0.043062 0.402854 0.535356 0.075576
C14   C     C_3   0.956983 0.597322 0.464736 0.080686
C15   C     C_3   0.061977 0.499255 0.429558 -0.104331
C16   C     C_3   0.938036 0.500942 0.570452 -0.105762
C17   C     C_R   0.480495 0.501454 0.650317 0.799822
C18   C     C_R   0.519543 0.494803 0.349671 0.793470
C19   C     C_R   0.472794 0.505527 0.736143 -0.170653
C20   C     C_R   0.527651 0.477260 0.264192 -0.172489
C21   C     C_R   0.599277 0.481307 0.770010 -0.216372
C22   C     C_R   0.397927 0.475110 0.230097 -0.232734
C23   C     C_R   0.610487 0.494882 0.848953 0.168084
C24   C     C_R   0.389737 0.446360 0.152309 0.150928
C25   C     C_R   0.489087 0.528076 0.897258 0.023278
C26   C     C_R   0.515932 0.427414 0.104926 0.030261
C27   C     C_R   0.359305 0.552590 0.865281 -0.024397
C28   C     C_R   0.648339 0.428127 0.136948 -0.013150
C29   C     C_R   0.351116 0.543013 0.784027 -0.016446
C30   C     C_R   0.654701 0.449764 0.217429 -0.018566
C31   C     C_2   0.494461 0.529817 0.981764 -0.253475
C32   C     C_2   0.511215 0.422920 0.020475 -0.220856
Cu1   Cu    Cu3+1 0.356850 0.500010 0.499980 0.954321
Cu2   Cu    Cu3+1 0.643150 0.499990 0.500020 0.949798
H1    H     H_    0.693724 0.454787 0.734261 0.163870
H2    H     H_    0.299630 0.492338 0.264862 0.159851
H3    H     H_    0.116728 0.500051 0.370445 0.132966
H4    H     H_    0.883110 0.500606 0.629575 0.133236
H5    H     H_    0.526560 0.333658 0.990265 0.162240
H6    H     H_    0.477426 0.618317 0.012797 0.156793
H7    H     H_    0.646814 0.081999 0.386925 0.148826
H8    H     H_    0.352508 0.918958 0.613202 0.154897
H9    H     H_    0.254948 0.071380 0.493923 0.136651
H10   H     H_    0.745086 0.928848 0.506265 0.134771
N1    N     N_3   0.141720 0.500030 0.499940 -0.198915
N2    N     N_3   0.858280 0.499970 0.500060 -0.198261
O1    O     O_R   0.379130 0.683150 0.499960 -0.609422
O2    O     O_R   0.620870 0.316850 0.500040 -0.613394
O3    O     O_R   0.620910 0.683140 0.500000 -0.558057
O4    O     O_R   0.379090 0.316860 0.500000 -0.558279
O5    O     O_R   0.365090 0.500030 0.613580 -0.569741
O6    O     O_R   0.634910 0.499970 0.386420 -0.573546
O7    O     O_R   0.606870 0.500020 0.613610 -0.592562
O8    O     O_R   0.393130 0.499980 0.386390 -0.584894
C33   C     C_3   0.903665 0.282001 0.426152 -0.374083
C34   C     C_3   0.024270 0.216766 0.377929 -0.848293
H11   H     H_    0.067359 0.278523 0.329749 0.280812
H12   H     H_    0.111243 0.193249 0.414331 0.228792
H13   H     H_    0.983934 0.128222 0.352955 0.256524
H14   H     H_    0.858436 0.215215 0.471132 0.192621
H15   H     H_    0.819819 0.306502 0.388077 0.249734
C35   C     C_3   0.097466 0.717671 0.573763 -0.379512
C36   C     C_3   0.977945 0.782298 0.622931 -0.851875
H16   H     H_    0.888961 0.803355 0.587390 0.229173
H17   H     H_    0.938338 0.721050 0.672118 0.276389
H18   H     H_    0.017856 0.872094 0.646518 0.263532
H19   H     H_    0.182312 0.693104 0.611090 0.248219
H20   H     H_    0.141659 0.784794 0.528715 0.193552
C37   C     C_2   0.792675 0.436932 0.251377 0.394377
H21   H     H_    0.829783 0.508167 0.289629 0.147449
O9    O     O_2   0.867424 0.345647 0.235768 -0.569613
C38   C     C_2   0.218680 0.579451 0.750163 0.398417
H22   H     H_    0.168787 0.516748 0.710966 0.136351
O10   O     O_2   0.163466 0.680662 0.766628 -0.556790
C39   C     C_2   0.232302 0.585440 0.917969 0.448860
H23   H     H_    0.243428 0.645569 0.967874 0.043977
O11   O     O_2   0.115139 0.542644 0.907494 -0.530377
C40   C     C_2   0.779585 0.409432 0.084778 0.422416
H24   H     H_    0.780499 0.340292 0.038596 0.058802
O12   O     O_2   0.885566 0.473938 0.091308 -0.533309
C41   C     C_3   0.244351 0.434571 0.121887 -0.349912
C42   C     C_3   0.206771 0.296947 0.106602 -0.720299
H25   H     H_    0.283484 0.255436 0.061855 0.232193
H26   H     H_    0.207056 0.241410 0.160895 0.243069
H27   H     H_    0.099243 0.290840 0.085585 0.274432
H28   H     H_    0.160878 0.473161 0.164226 0.226899
H29   H     H_    0.239788 0.490266 0.068307 0.216389
C43   C     C_3   0.756358 0.480298 0.878038 -0.352439
C44   C     C_3   0.807020 0.343966 0.871475 -0.803986
H30   H     H_    0.728686 0.279344 0.902403 0.231388
H31   H     H_    0.823060 0.314483 0.809834 0.246548
H32   H     H_    0.909788 0.335647 0.897562 0.277916
H33   H     H_    0.833183 0.541571 0.843048 0.233763
H34   H     H_    0.759246 0.512769 0.938671 0.234333
C45   C     C_3   0.386807 0.908858 0.362388 -0.445914
C46   C     C_3   0.498193 0.843232 0.307977 -0.758556
H35   H     H_    0.582942 0.911115 0.287120 0.254408
H36   H     H_    0.546440 0.764204 0.337892 0.264766
H37   H     H_    0.447690 0.804892 0.257164 0.234772
H38   H     H_    0.298482 0.841916 0.379051 0.206523
H39   H     H_    0.343259 0.989662 0.331643 0.207478
C47   C     C_3   0.608118 0.097367 0.637588 -0.404425
C48   C     C_3   0.638582 0.993920 0.694646 -0.819122
H40   H     H_    0.539408 0.942168 0.714168 0.256277
H41   H     H_    0.716479 0.926544 0.667253 0.251641
H42   H     H_    0.683210 0.036649 0.746036 0.249956
H43   H     H_    0.707291 0.151339 0.621105 0.199067
H44   H     H_    0.528870 0.163029 0.665892 0.214459
C49   C     C_2   0.090856 0.290123 0.577722 0.372580
H45   H     H_    0.065458 0.196069 0.558230 0.034492
O13   O     O_2   0.155299 0.303121 0.635333 -0.554399
C50   C     C_2   0.909709 0.712446 0.424338 0.366250
H46   H     H_    0.941255 0.805245 0.443273 0.034075
O14   O     O_2   0.839129 0.703114 0.368881 -0.563872

loop_
_geom_bond_atom_site_label_1
_geom_bond_atom_site_label_2
_ccdc_geom_bond_type
C25   C31   S    
C33   C34   S    
C36   H17   S    
C26   C32   S    
C27   C29   A    
C1    C8    S    
Cu1   N1    S    
C45   C46   S    
C24   C41   S    
C17   O5    A    
C6    C9    S    
C50   O14   D    
C41   C42   S    
C18   O6    A    
C14   N2    S    
C20   C30   A    
C34   H11   S    
C14   C50   S    
C35   H19   S    
C19   C21   A    
C24   C26   A    
C49   O13   D    
C40   O12   D    
C46   H37   S    
C31   H6    S    
C32   H5    S    
C37   O9    D    
C15   H3    S    
C13   C49   S    
C2    O4    A    
C2    C7    S    
C11   C15   S    
C12   C16   S    
C46   H36   S    
C47   H44   S    
Cu2   N2    S    
C44   H31   S    
C28   C40   S    
C41   H28   S    
C29   C38   S    
C36   H18   S    
C33   H14   S    
C37   H21   S    
C4    C7    S    
C27   C39   S    
C50   H46   S    
C43   H34   S    
C9    H9    S    
C10   H10   S    
C38   O10   D    
C3    C8    S    
C16   N2    S    
C5    C7    S    
C45   H38   S    
C1    O1    A    
C6    C8    S    
C2    O2    A    
Cu1   O4    S    
C4    C47   S    
C39   H23   S    
C35   C36   S    
C3    C9    S    
C12   C35   S    
C31   C32   D    
C46   H35   S    
Cu1   Cu2   S    
C47   H43   S    
C48   H41   S    
C44   H32   S    
C39   O11   D    
C41   H29   S    
C21   H1    S    
C4    C6    S    
C12   C14   S    
C42   H26   S    
C23   C43   S    
C21   C23   A    
C25   C27   A    
Cu1   O1    S    
C22   C24   A    
Cu2   O2    S    
C15   N1    S    
C4    C10   S    
C19   C29   A    
C17   O7    A    
C30   C37   S    
C11   C33   S    
Cu1   O8    S    
C7    C9    S    
C5    H7    S    
C43   H33   S    
Cu2   O3    S    
C40   H24   S    
C26   C28   A    
C20   C22   A    
C38   H22   S    
C3    C5    S    
C12   N1    S    
Cu1   O5    S    
C42   H27   S    
C22   H2    S    
Cu2   O6    S    
C34   H13   S    
C35   H20   S    
C28   C30   A    
C5    C10   S    
C49   H45   S    
C13   N1    S    
C11   C13   S    
C33   H15   S    
C17   C19   S    
C34   H12   S    
C48   H42   S    
C18   C20   S    
C23   C25   A    
C47   C48   S    
C18   O8    A    
C36   H16   S    
C43   C44   S    
Cu2   O7    S    
C8    C10   S    
C42   H25   S    
C6    H8    S    
C13   C16   S    
C48   H40   S    
C14   C15   S    
C11   N2    S    
C3    C45   S    
C44   H30   S    
C1    O3    A    
C45   H39   S    
C16   H4    S    
