data_mof_unit_62795.cif
_audit_creation_date              2012-12-10T17:06:40-0500
_audit_creation_method            fapswitch 2.2
_symmetry_space_group_name_H-M    P1
_symmetry_Int_Tables_number       1
_space_group_crystal_system       triclinic
_cell_length_a                    14.156437
_cell_length_b                    10.716732
_cell_length_c                    10.028906
_cell_angle_alpha                 89.04672
_cell_angle_beta                  90.139873
_cell_angle_gamma                 90.329412
_cell_volume                      1521.25285179

loop_
_atom_site_label
_atom_site_type_symbol
_atom_type_description
_atom_site_fract_x
_atom_site_fract_y
_atom_site_fract_z
_atom_type_partial_charge
C1    C     C_R   0.491965 0.263061 0.500970 0.943721
C2    C     C_R   0.500988 0.737181 0.498601 0.958353
C3    C     C_R   0.670812 0.500128 0.500121 0.895538
C4    C     C_1   0.227712 0.500500 0.499566 -0.181038
C5    C     C_1   0.142478 0.500760 0.499577 -0.001768
C6    C     C_1   0.042609 0.500934 0.499811 0.014192
C7    C     C_1   0.957377 0.500940 0.500079 0.014004
C8    C     C_1   0.857507 0.500776 0.500340 -0.003720
C9    C     C_1   0.359565 0.871554 0.359122 0.161758
C10   C     C_1   0.623421 0.650529 0.856071 0.261483
C11   C     C_1   0.772273 0.500508 0.500386 -0.189368
C12   C     C_2   0.441095 0.932280 0.418495 -0.075910
C13   C     C_2   0.506555 0.869229 0.491609 -0.111173
C14   C     C_2   0.450748 0.065697 0.397846 0.101087
C15   C     C_2   0.464877 0.134329 0.506041 -0.372271
C16   C     C_2   0.555017 0.571952 0.923786 -0.054453
C17   C     C_2   0.548744 0.579872 0.074985 0.104109
C18   C     C_R   0.329175 0.500157 0.499865 0.879537
H1    H     H_    0.455469 0.092750 0.604824 0.139064
H2    H     H_    0.447691 0.452277 0.898910 0.150260
H3    H     H_    0.469869 0.426296 0.102611 0.142379
H4    H     H_    0.579373 0.971318 0.629684 0.197589
H5    H     H_    0.622373 0.984238 0.469836 0.203263
H6    H     H_    0.502670 0.072770 0.210326 0.181749
H7    H     H_    0.385241 0.097738 0.221030 0.185538
H8    H     H_    0.577388 0.762617 0.102393 0.167161
H9    H     H_    0.671564 0.666812 0.120714 0.171426
N1    N     N_2   0.500930 0.501330 0.852150 -0.209569
N2    N     N_2   0.500950 0.501360 0.147810 -0.175403
N3    N     N_1   0.294638 0.823133 0.311853 -0.199466
N4    N     N_3   0.592522 0.924137 0.541538 -0.463906
N5    N     N_3   0.450497 0.117824 0.264905 -0.412998
N6    N     N_1   0.678372 0.713817 0.802302 -0.211443
N7    N     N_3   0.599717 0.676692 0.141549 -0.374114
O1    O     O_R   0.499990 0.319060 0.613040 -0.622194
O2    O     O_R   0.500010 0.319100 0.386900 -0.578241
O3    O     O_R   0.373700 0.499980 0.613090 -0.602179
O4    O     O_R   0.373730 0.500020 0.386960 -0.589977
O5    O     O_R   0.499990 0.680900 0.613100 -0.604093
O6    O     O_R   0.500010 0.680940 0.386960 -0.591009
O7    O     O_R   0.626270 0.499980 0.613040 -0.587901
O8    O     O_R   0.626300 0.500020 0.386910 -0.582837
Zn1   Zn    Zn3+2 0.499980 0.499970 0.650990 0.950527
Zn2   Zn    Zn3+2 0.500020 0.500030 0.349010 0.972296

loop_
_geom_bond_atom_site_label_1
_geom_bond_atom_site_label_2
_ccdc_geom_bond_type
O3    Zn1   S    
H6    N5    S    
C3    O8    A    
O4    Zn2   S    
C6    C7    T    
C1    C15   S    
O1    Zn1   S    
N1    Zn1   S    
C16   N1    D    
C4    C18   S    
H7    N5    S    
C18   O4    A    
C7    C8    S    
N2    Zn2   S    
C10   C16   S    
C15   H1    S    
O7    Zn1   S    
C16   C17   S    
O8    Zn2   S    
C9    N3    T    
C8    C11   T    
C18   O3    A    
C12   C14   S    
C10   N6    T    
H9    N7    S    
C5    C6    S    
C9    C12   S    
O2    Zn2   S    
C3    C11   S    
C17   N7    S    
C2    O6    A    
O6    Zn2   S    
C17   N2    D    
C12   C13   D    
C1    O1    A    
H4    N4    S    
C2    C13   S    
C13   N4    S    
C14   C15   D    
C3    O7    A    
O5    Zn1   S    
H2    N1    S    
H3    N2    S    
C2    O5    A    
H8    N7    S    
C1    O2    A    
C14   N5    S    
C4    C5    T    
H5    N4    S    
