data_mof_unit_60965.cif
_audit_creation_date              2012-12-10T16:51:48-0500
_audit_creation_method            fapswitch 2.2
_symmetry_space_group_name_H-M    P1
_symmetry_Int_Tables_number       1
_space_group_crystal_system       triclinic
_cell_length_a                    18.375871
_cell_length_b                    18.376179
_cell_length_c                    18.41202
_cell_angle_alpha                 90.82655
_cell_angle_beta                  119.587695
_cell_angle_gamma                 119.465289
_cell_volume                      4427.11549614

loop_
_atom_site_label
_atom_site_type_symbol
_atom_type_description
_atom_site_fract_x
_atom_site_fract_y
_atom_site_fract_z
_atom_type_partial_charge
C1    C     C_R   0.776970 0.638815 0.638534 0.519740
C2    C     C_2   0.112232 0.306882 0.292869 0.254277
C3    C     C_2   0.441754 0.164919 0.720459 -0.086616
C4    C     C_R   0.222897 0.361554 0.359597 0.498613
C5    C     C_2   0.489662 0.195275 0.808557 0.444063
C6    C     C_2   0.434973 0.222791 0.666995 -0.057139
C7    C     C_2   0.514846 0.306580 0.693918 0.310286
C8    C     C_2   0.056252 0.778659 0.718891 -0.149158
C9    C     C_2   0.112365 0.803338 0.807770 -0.084729
C10   C     C_2   0.943861 0.719970 0.662678 -0.147245
C11   C     C_2   0.887719 0.696754 0.695436 -0.081835
C12   C     C_3   0.567327 0.766155 0.833768 0.211198
C13   C     C_2   0.442042 0.162312 0.224414 -0.128939
C14   C     C_2   0.514603 0.195209 0.209689 0.392568
C15   C     C_2   0.448128 0.217739 0.286028 -0.126349
C16   C     C_R   0.500964 0.639605 0.362610 0.537667
C17   C     C_2   0.490303 0.303634 0.295679 -0.027254
C18   C     C_2   0.466312 0.798643 0.242392 0.230681
C19   C     C_2   0.488495 0.795286 0.183083 0.265185
C20   C     C_2   0.445877 0.728137 0.282764 0.233802
C21   C     C_2   0.511614 0.704845 0.317829 0.003428
C22   C     C_R   0.498581 0.138644 0.861739 0.528536
C23   C     C_3   0.591459 0.790900 0.766005 0.258243
C24   C     C_R   0.499320 0.860773 0.137787 0.545735
C25   C     C_R   0.777011 0.138537 0.139817 0.509104
C26   C     C_R   0.223114 0.861233 0.861645 0.510309
C27   C     C_R   0.502179 0.140946 0.143052 0.542262
C28   C     C_R   0.502040 0.361493 0.638485 0.485915
C29   C     C_R   0.500244 0.858446 0.858542 0.557056
C30   C     C_R   0.498537 0.358964 0.357771 0.514615
C31   C     C_R   0.499856 0.641597 0.641489 0.548777
C32   C     C_3   0.474407 0.672249 0.766748 -0.167552
C33   C     C_3   0.406034 0.707611 0.733385 -0.220863
C34   C     C_3   0.524329 0.825614 0.733130 0.380536
C35   C     C_3   0.500279 0.801080 0.801649 0.056225
C36   C     C_3   0.430292 0.732500 0.663853 -0.126226
C37   C     C_3   0.499080 0.698290 0.698248 0.008567
C38   C     C_2   0.944417 0.163514 0.224277 -0.116391
C39   C     C_2   0.887184 0.195003 0.202604 -0.038482
C40   C     C_2   0.056090 0.222190 0.287458 -0.090290
F1    F     F_    0.525792 0.278845 0.850780 -0.568080
F2    F     F_    0.604753 0.277021 0.260560 -0.620573
F3    F     F_    0.551067 0.905023 0.716948 -0.594051
H1    H     H_    0.329358 0.674004 0.720477 0.146832
H2    H     H_    0.414801 0.186879 0.321336 0.157966
H3    H     H_    0.517155 0.333930 0.256183 0.183970
H4    H     H_    0.578854 0.737652 0.316788 0.114979
H5    H     H_    0.373778 0.718417 0.593107 0.166156
H6    H     H_    0.909017 0.092891 0.198422 0.156193
H7    H     H_    0.921192 0.264145 0.233672 0.183737
H8    H     H_    0.093028 0.193741 0.329847 0.113027
H9    H     H_    0.120458 0.400572 0.241516 0.356575
H10   H     H_    0.661026 0.398308 0.776199 0.343006
H11   H     H_    0.452052 0.862749 0.313583 0.338435
H12   H     H_    0.403962 0.095577 0.685962 0.102818
H13   H     H_    0.502727 0.731073 0.111441 0.348288
H14   H     H_    0.319042 0.709585 0.251161 0.338384
H15   H     H_    0.669521 0.752929 0.921955 0.345583
H16   H     H_    0.730852 0.891541 0.829175 0.355461
H17   H     H_    0.362803 0.194600 0.602896 0.094909
H18   H     H_    0.093577 0.801202 0.685051 0.164217
H19   H     H_    0.078415 0.780433 0.843898 0.116430
H20   H     H_    0.906562 0.696159 0.591498 0.167946
H21   H     H_    0.921643 0.720936 0.765537 0.117976
H22   H     H_    0.375472 0.093728 0.189478 0.123754
H23   H     H_    0.454759 0.609089 0.780750 0.148650
O1    O     O_3   0.500000 0.500000 0.500000 -0.464175
O2    O     O_R   0.270900 0.886160 0.946260 -0.537785
O3    O     O_R   0.560160 0.177420 0.117340 -0.488387
O4    O     O_R   0.729180 0.615300 0.675360 -0.529491
O5    O     O_R   0.440020 0.882760 0.822680 -0.524939
O6    O     O_R   0.439990 0.057240 0.117340 -0.578043
O7    O     O_R   0.560190 0.882760 0.942820 -0.495331
O8    O     O_R   0.729270 0.053840 0.113900 -0.536010
O9    O     O_R   0.270910 0.884750 0.824690 -0.543859
O10   O     O_R   0.560170 0.175430 0.946260 -0.482336
O11   O     O_R   0.440000 0.886160 0.115330 -0.491287
O12   O     O_R   0.439910 0.615300 0.386140 -0.469016
O13   O     O_R   0.270820 0.446200 0.386140 -0.539076
O14   O     O_R   0.560090 0.613880 0.384720 -0.550098
O15   O     O_R   0.439920 0.324620 0.553780 -0.563057
O16   O     O_R   0.560100 0.442800 0.382710 -0.524070
O17   O     O_R   0.560070 0.617290 0.677370 -0.514398
O18   O     O_R   0.439930 0.322630 0.382710 -0.546186
O19   O     O_R   0.439900 0.617290 0.557220 -0.539474
O20   O     O_3   0.066944 0.340080 0.231941 -0.699976
O21   O     O_3   0.610144 0.338267 0.770086 -0.619576
O22   O     O_3   0.461398 0.867586 0.264818 -0.694284
O23   O     O_R   0.560080 0.446200 0.675360 -0.538608
O24   O     O_3   0.492277 0.725877 0.159536 -0.743614
O25   O     O_3   0.361460 0.688305 0.285762 -0.659807
O26   O     O_3   0.639735 0.785276 0.922902 -0.652663
O27   O     O_3   0.688121 0.833249 0.782485 -0.654916
O28   O     O_R   0.729180 0.613880 0.553780 -0.536956
O29   O     O_R   0.270820 0.324620 0.384720 -0.558712
O30   O     O_3   0.500090 0.000040 0.000040 -0.478519
O31   O     O_R   0.440010 0.053840 0.824690 -0.578425
O32   O     O_R   0.560180 0.884750 0.113900 -0.558340
O33   O     O_R   0.729260 0.175430 0.115330 -0.521058
Zn1   Zn    Zn3+2 0.414150 0.543930 0.458110 0.991568
Zn2   Zn    Zn3+2 0.585850 0.541910 0.456060 0.970255
Zn3   Zn    Zn3+2 0.414160 0.370220 0.456060 0.939024
Zn4   Zn    Zn3+2 0.585840 0.543930 0.629770 0.978542
Zn5   Zn    Zn3+2 0.585940 0.956110 0.041940 0.982120
Zn6   Zn    Zn3+2 0.585930 0.129820 0.043980 1.024954
Zn7   Zn    Zn3+2 0.414240 0.958130 0.043980 0.967505
Zn8   Zn    Zn3+2 0.414250 0.956110 0.870280 0.957597

loop_
_geom_bond_atom_site_label_1
_geom_bond_atom_site_label_2
_ccdc_geom_bond_type
H11   O22   S    
O30   Zn6   S    
O9    Zn8   S    
O10   Zn6   S    
C31   O19   A    
O5    Zn8   S    
O18   Zn3   S    
C10   H20   S    
C1    C11   S    
C22   O10   A    
C3    C6    S    
O1    Zn4   S    
C38   H6    S    
C13   H22   S    
C12   C23   S    
C16   C21   S    
O17   Zn4   S    
C24   O32   A    
O8    Zn5   S    
C36   C37   S    
C34   C35   S    
C38   C39   D    
C29   O7    A    
C33   C36   S    
C31   O17   A    
C25   O8    A    
O30   Zn7   S    
C3    H12   S    
C25   O33   A    
O7    Zn5   S    
C7    O21   S    
C5    C22   S    
O28   Zn2   S    
C1    O28   A    
C2    O20   S    
C28   O23   A    
C14   C27   S    
C18   C20   S    
C27   O3    A    
O29   Zn3   S    
C8    H18   S    
C14   F2    S    
H13   O24   S    
C22   O31   A    
C13   C14   D    
C12   C32   S    
C17   C30   S    
O2    Zn7   S    
C9    C26   S    
O15   Zn3   S    
O33   Zn6   S    
C20   O25   S    
C9    H19   S    
C6    H17   S    
O13   Zn1   S    
C17   H3    S    
C4    O13   A    
C11   H21   S    
O3    Zn6   S    
O4    Zn4   S    
C8    C9    D    
C23   C37   S    
C18   O22   S    
C7    C28   S    
C23   O27   S    
C31   C37   S    
C16   O14   A    
C30   O16   A    
C2    C4    S    
C4    O29   A    
C23   C34   S    
C26   O9    A    
H10   O21   S    
C32   C37   S    
C12   C35   S    
O1    Zn1   S    
O30   Zn8   S    
O6    Zn7   S    
C13   C15   S    
O12   Zn1   S    
C15   H2    S    
O1    Zn2   S    
C32   H23   S    
C15   C17   D    
C5    F1    S    
O11   Zn7   S    
H14   O25   S    
C28   O15   A    
C33   H1    S    
C12   O26   S    
C34   F3    S    
C3    C5    D    
C6    C7    D    
C40   H8    S    
C29   C35   S    
C1    O4    A    
O14   Zn2   S    
C26   O2    A    
C32   C33   S    
O30   Zn5   S    
C19   C24   S    
C19   O24   S    
C25   C39   S    
C38   C40   S    
O32   Zn5   S    
H9    O20   S    
C33   C35   S    
O16   Zn2   S    
C36   H5    S    
C16   O12   A    
C30   O18   A    
C10   C11   D    
O31   Zn8   S    
C2    C40   D    
C24   O11   A    
C39   H7    S    
C20   C21   D    
C34   C36   S    
C8    C10   S    
O19   Zn1   S    
C18   C19   D    
H16   O27   S    
C21   H4    S    
H15   O26   S    
O23   Zn4   S    
C27   O6    A    
O1    Zn3   S    
C29   O5    A    
