data_mof_unit_66523.cif
_audit_creation_date              2012-12-10T17:46:33-0500
_audit_creation_method            fapswitch 2.2
_symmetry_space_group_name_H-M    P1
_symmetry_Int_Tables_number       1
_space_group_crystal_system       monoclinic
_cell_length_a                    30.481473
_cell_length_b                    30.370459
_cell_length_c                    18.361391
_cell_angle_alpha                 90.0
_cell_angle_beta                  89.999989
_cell_angle_gamma                 90.0
_cell_volume                      16997.8066447

loop_
_atom_site_label
_atom_site_type_symbol
_atom_type_description
_atom_site_fract_x
_atom_site_fract_y
_atom_site_fract_z
_atom_type_partial_charge
C1    C     C_R   0.225888 0.000000 0.500000 0.084859
C2    C     C_R   0.999938 0.225693 0.500065 0.083552
C3    C     C_R   0.774330 1.000000 0.500000 0.092490
C4    C     C_R   0.999938 0.774306 0.499935 0.083552
C5    C     C_R   0.725670 0.500000 1.000000 0.092490
C6    C     C_R   0.500062 0.725693 0.999935 0.083552
C7    C     C_R   0.274111 0.500000 0.000000 0.084860
C8    C     C_R   0.500062 0.274307 0.000065 0.083552
C9    C     C_R   0.202549 0.032341 0.461461 -0.183491
C10   C     C_R   0.964192 0.202343 0.471200 -0.184859
C11   C     C_R   0.797458 0.980550 0.442503 -0.189921
C12   C     C_R   0.035661 0.797605 0.470900 -0.183316
C13   C     C_R   0.797458 0.019450 0.557497 -0.189921
C14   C     C_R   0.035661 0.202395 0.529100 -0.183316
C15   C     C_R   0.202549 0.967659 0.538539 -0.183490
C16   C     C_R   0.964192 0.797657 0.528800 -0.184860
C17   C     C_R   0.702542 0.519451 0.942503 -0.189921
C18   C     C_R   0.464338 0.702395 0.970902 -0.183316
C19   C     C_R   0.297451 0.467660 0.961458 -0.183491
C20   C     C_R   0.535809 0.297657 0.971202 -0.184860
C21   C     C_R   0.297451 0.532339 0.038542 -0.183491
C22   C     C_R   0.535809 0.702343 0.028798 -0.184860
C23   C     C_R   0.702542 0.480549 0.057496 -0.189921
C24   C     C_R   0.464338 0.297605 0.029098 -0.183316
C25   C     C_R   0.156695 0.032348 0.460690 -0.025767
C26   C     C_R   0.964125 0.156376 0.470606 -0.032143
C27   C     C_R   0.843096 0.979539 0.442697 -0.028063
C28   C     C_R   0.035746 0.843561 0.470116 -0.027951
C29   C     C_R   0.843096 0.020460 0.557303 -0.028063
C30   C     C_R   0.035746 0.156439 0.529884 -0.027951
C31   C     C_R   0.156695 0.967652 0.539310 -0.025767
C32   C     C_R   0.964125 0.843624 0.529394 -0.032143
C33   C     C_R   0.656904 0.520461 0.942698 -0.028062
C34   C     C_R   0.464253 0.656438 0.970118 -0.027952
C35   C     C_R   0.343305 0.467654 0.960687 -0.025767
C36   C     C_R   0.535876 0.343624 0.970608 -0.032143
C37   C     C_R   0.343305 0.532346 0.039313 -0.025767
C38   C     C_R   0.535876 0.656376 0.029392 -0.032143
C39   C     C_R   0.656904 0.479539 0.057302 -0.028063
C40   C     C_R   0.464253 0.343561 0.029882 -0.027952
C41   C     C_R   0.133325 1.000000 0.500000 -0.097778
C42   C     C_R   0.999998 0.133140 0.500097 -0.099714
C43   C     C_R   0.866620 1.000000 0.500000 -0.101751
C44   C     C_R   0.999998 0.866860 0.499903 -0.099714
C45   C     C_R   0.633379 0.500000 1.000000 -0.101749
C46   C     C_R   0.500002 0.633140 0.999903 -0.099713
C47   C     C_R   0.366675 0.500000 0.000000 -0.097778
C48   C     C_R   0.500002 0.366860 0.000097 -0.099713
C49   C     C_R   0.415138 0.000000 0.500000 0.786279
C50   C     C_R   0.999999 0.415157 0.499978 0.782841
C51   C     C_R   0.585089 1.000000 0.500000 0.772580
C52   C     C_R   0.999999 0.584843 0.500022 0.782841
C53   C     C_R   0.914910 0.500000 0.000000 0.772580
C54   C     C_R   0.500001 0.915157 0.000022 0.782841
C55   C     C_R   0.084862 0.500000 0.000000 0.786280
C56   C     C_R   0.500001 0.084842 0.999978 0.782840
C57   C     C_R   0.499995 0.999999 0.360185 0.841764
C58   C     C_R   0.000002 0.500002 0.360264 0.845095
C59   C     C_R   0.499995 0.000000 0.639815 0.841764
C60   C     C_R   0.000002 0.499998 0.639736 0.845095
C61   C     C_R   0.000005 0.500000 0.860185 0.841765
C62   C     C_R   0.499998 0.999998 0.860264 0.845094
C63   C     C_R   0.000005 0.499999 0.139815 0.841765
C64   C     C_R   0.499998 0.000002 0.139736 0.845095
C65   C     C_R   0.000042 0.915069 0.499982 0.792046
C66   C     C_R   0.085009 1.000000 0.500000 0.794119
C67   C     C_R   0.000042 0.084930 0.500018 0.792045
C68   C     C_R   0.914953 1.000000 0.500000 0.791490
C69   C     C_R   0.499958 0.415069 0.000018 0.792046
C70   C     C_R   0.585047 0.500000 0.000000 0.791491
C71   C     C_R   0.499958 0.584931 0.999982 0.792046
C72   C     C_R   0.414990 0.500000 0.000000 0.794118
C73   C     C_1   0.499989 0.999999 0.282619 -0.129468
C74   C     C_1   0.000011 0.500001 0.282702 -0.123710
C75   C     C_1   0.499989 0.000001 0.717381 -0.129468
C76   C     C_1   0.000011 0.499999 0.717298 -0.123710
C77   C     C_1   0.000011 0.500001 0.782619 -0.129465
C78   C     C_1   0.499989 0.999999 0.782702 -0.123713
C79   C     C_1   0.000011 0.499999 0.217381 -0.129465
C80   C     C_1   0.499989 0.000001 0.217298 -0.123713
C81   C     C_R   0.297915 0.988844 0.563347 -0.182668
C82   C     C_R   0.016581 0.297713 0.559992 -0.186161
C83   C     C_R   0.702870 0.036210 0.527344 -0.194242
C84   C     C_R   0.983286 0.702304 0.559895 -0.184724
C85   C     C_R   0.702870 0.963790 0.472656 -0.194242
C86   C     C_R   0.983286 0.297696 0.440104 -0.184724
C87   C     C_R   0.297915 0.011156 0.436653 -0.182668
C88   C     C_R   0.016581 0.702286 0.440008 -0.186161
C89   C     C_R   0.797130 0.463789 0.027343 -0.194243
C90   C     C_R   0.516716 0.797696 0.059894 -0.184725
C91   C     C_R   0.202084 0.511152 0.063348 -0.182667
C92   C     C_R   0.483417 0.202287 0.059991 -0.186161
C93   C     C_R   0.202085 0.488847 0.936652 -0.182668
C94   C     C_R   0.483417 0.797713 0.940009 -0.186161
C95   C     C_R   0.797130 0.536210 0.972657 -0.194243
C96   C     C_R   0.516715 0.202304 0.940106 -0.184725
C97   C     C_R   0.343774 0.988439 0.563555 -0.034788
C98   C     C_R   0.017021 0.343676 0.560102 -0.035542
C99   C     C_R   0.657228 0.036200 0.529096 -0.037351
C100  C     C_R   0.982918 0.656338 0.560079 -0.035506
C101  C     C_R   0.657228 0.963800 0.470904 -0.037351
C102  C     C_R   0.982918 0.343662 0.439921 -0.035507
C103  C     C_R   0.343774 0.011561 0.436445 -0.034788
C104  C     C_R   0.017020 0.656323 0.439898 -0.035542
C105  C     C_R   0.842772 0.463800 0.029094 -0.037351
C106  C     C_R   0.517083 0.843662 0.060078 -0.035507
C107  C     C_R   0.156226 0.511557 0.063557 -0.034788
C108  C     C_R   0.482978 0.156323 0.060101 -0.035542
C109  C     C_R   0.156226 0.488443 0.936443 -0.034788
C110  C     C_R   0.482978 0.843676 0.939899 -0.035542
C111  C     C_R   0.842772 0.536200 0.970906 -0.037351
C112  C     C_R   0.517083 0.156338 0.939922 -0.035507
C113  C     C_R   0.366999 0.000000 0.500000 -0.099585
C114  C     C_R   0.999989 0.366939 0.499991 -0.101206
C115  C     C_R   0.633577 1.000000 0.500000 -0.121332
C116  C     C_R   0.999989 0.633061 0.500009 -0.101206
C117  C     C_R   0.866423 0.500000 1.000000 -0.121333
C118  C     C_R   0.500011 0.866938 0.000009 -0.101207
C119  C     C_R   0.133001 0.500000 0.000000 -0.099584
C120  C     C_R   0.500011 0.133061 0.999991 -0.101207
C121  C     C_R   0.274565 0.000000 0.500000 0.082967
C122  C     C_R   0.999925 0.274379 0.500059 0.083604
C123  C     C_R   0.725990 1.000000 0.500000 0.092195
C124  C     C_R   0.999925 0.725621 0.499941 0.083604
C125  C     C_R   0.774010 0.500000 1.000000 0.092195
C126  C     C_R   0.500075 0.774379 0.999941 0.083604
C127  C     C_R   0.225434 0.500000 0.000000 0.082966
C128  C     C_R   0.500075 0.225621 0.000059 0.083604
Cu1   Cu    Cu3+1 0.500000 0.044060 0.500000 1.019260
Cu2   Cu    Cu3+1 0.955940 0.500000 0.500000 1.006023
Cu3   Cu    Cu3+1 0.500000 0.955940 0.500000 1.019261
Cu4   Cu    Cu3+1 0.044060 0.500000 0.500000 1.018340
Cu5   Cu    Cu3+1 0.000000 0.544060 0.000000 1.019261
Cu6   Cu    Cu3+1 0.455940 0.000000 0.000000 1.018338
Cu7   Cu    Cu3+1 0.000000 0.455940 0.000000 1.019261
Cu8   Cu    Cu3+1 0.544060 0.000000 0.000000 1.006024
Cu9   Cu    Cu3+1 1.000000 0.000000 0.427490 1.031419
Cu10  Cu    Cu3+1 1.000000 0.000000 0.572510 1.031419
Cu11  Cu    Cu3+1 0.500000 0.500000 0.927490 1.031419
Cu12  Cu    Cu3+1 0.500000 0.500000 0.072510 1.031419
H1    H     H_    0.280450 0.980991 0.613100 0.141365
H2    H     H_    0.028715 0.280133 0.607263 0.141351
H3    H     H_    0.720386 0.064786 0.547501 0.138706
H4    H     H_    0.971123 0.719903 0.607128 0.142587
H5    H     H_    0.720386 0.935214 0.452499 0.138706
H6    H     H_    0.971124 0.280097 0.392872 0.142588
H7    H     H_    0.280450 0.019009 0.386900 0.141365
H8    H     H_    0.028715 0.719867 0.392737 0.141351
H9    H     H_    0.779614 0.435213 0.047498 0.138706
H10   H     H_    0.528879 0.780097 0.107126 0.142588
H11   H     H_    0.219549 0.519003 0.113102 0.141365
H12   H     H_    0.471283 0.219867 0.107261 0.141351
H13   H     H_    0.219549 0.480997 0.886898 0.141365
H14   H     H_    0.471283 0.780133 0.892739 0.141351
H15   H     H_    0.779614 0.564787 0.952502 0.138706
H16   H     H_    0.528879 0.219903 0.892874 0.142588
H17   H     H_    0.220041 0.058104 0.432722 0.139711
H18   H     H_    0.935969 0.219915 0.450083 0.141000
H19   H     H_    0.779973 0.966043 0.397038 0.137157
H20   H     H_    0.063816 0.779999 0.449614 0.140897
H21   H     H_    0.779973 0.033957 0.602962 0.137158
H22   H     H_    0.063816 0.220001 0.550386 0.140897
H23   H     H_    0.220041 0.941895 0.567278 0.139710
H24   H     H_    0.935969 0.780085 0.549916 0.141000
H25   H     H_    0.720027 0.533958 0.897040 0.137158
H26   H     H_    0.436182 0.720001 0.949618 0.140898
H27   H     H_    0.279958 0.441898 0.932716 0.139711
H28   H     H_    0.564032 0.280085 0.950088 0.141000
H29   H     H_    0.279958 0.558102 0.067284 0.139711
H30   H     H_    0.564032 0.719915 0.049912 0.141000
H31   H     H_    0.720027 0.466041 0.102960 0.137158
H32   H     H_    0.436182 0.279999 0.050382 0.140898
O1    O     O_R   0.435730 0.037210 0.500000 -0.576975
O2    O     O_R   0.962790 0.435730 0.500000 -0.578235
O3    O     O_R   0.564270 0.962790 0.500000 -0.576943
O4    O     O_R   0.037210 0.564270 0.500000 -0.576572
O5    O     O_R   0.564270 0.037210 0.500000 -0.576944
O6    O     O_R   0.037210 0.435730 0.500000 -0.576572
O7    O     O_R   0.435730 0.962790 0.500000 -0.576975
O8    O     O_R   0.962790 0.564270 0.500000 -0.578235
O9    O     O_R   0.935730 0.537210 0.000000 -0.576944
O10   O     O_R   0.462790 0.935730 0.000000 -0.576572
O11   O     O_R   0.064270 0.462790 0.000000 -0.576975
O12   O     O_R   0.537210 0.064270 0.000000 -0.578235
O13   O     O_R   0.064270 0.537210 0.000000 -0.576975
O14   O     O_R   0.537210 0.935730 0.000000 -0.578235
O15   O     O_R   0.935730 0.462790 0.000000 -0.576943
O16   O     O_R   0.462790 0.064270 0.000000 -0.576572
O17   O     O_R   0.500010 0.037210 0.394200 -0.573923
O18   O     O_R   0.962790 0.500010 0.394200 -0.578761
O19   O     O_R   0.499990 0.962790 0.394200 -0.574318
O20   O     O_R   0.037210 0.499990 0.394200 -0.570714
O21   O     O_R   0.499990 0.037210 0.605800 -0.574318
O22   O     O_R   0.037210 0.500010 0.605800 -0.570713
O23   O     O_R   0.500010 0.962790 0.605800 -0.573923
O24   O     O_R   0.962790 0.499990 0.605800 -0.578761
O25   O     O_R   0.000010 0.537210 0.894200 -0.574318
O26   O     O_R   0.462790 0.000010 0.894200 -0.570714
O27   O     O_R   0.999990 0.462790 0.894200 -0.573924
O28   O     O_R   0.537210 0.999990 0.894200 -0.578760
O29   O     O_R   0.999990 0.537210 0.105800 -0.573924
O30   O     O_R   0.537210 0.000010 0.105800 -0.578760
O31   O     O_R   0.000010 0.462790 0.105800 -0.574318
O32   O     O_R   0.462790 0.999990 0.105800 -0.570714
O33   O     O_R   0.999990 0.935750 0.438770 -0.574908
O34   O     O_R   0.064250 0.999990 0.438770 -0.573105
O35   O     O_R   0.000010 0.064250 0.438770 -0.570584
O36   O     O_R   0.935750 0.000010 0.438770 -0.573504
O37   O     O_R   0.000010 0.935750 0.561230 -0.570584
O38   O     O_R   0.935750 0.999990 0.561230 -0.573504
O39   O     O_R   0.999990 0.064250 0.561230 -0.574908
O40   O     O_R   0.064250 0.000010 0.561230 -0.573105
O41   O     O_R   0.499990 0.435750 0.938770 -0.570584
O42   O     O_R   0.564250 0.499990 0.938770 -0.573504
O43   O     O_R   0.500010 0.564250 0.938770 -0.574908
O44   O     O_R   0.435750 0.500010 0.938770 -0.573105
O45   O     O_R   0.500010 0.435750 0.061230 -0.574908
O46   O     O_R   0.435750 0.499990 0.061230 -0.573105
O47   O     O_R   0.499990 0.564250 0.061230 -0.570584
O48   O     O_R   0.564250 0.500010 0.061230 -0.573504
C129  C     C_1   0.366404 0.976916 0.630047 0.235810
N1    N     N_1   0.384552 0.967697 0.683271 -0.256027
C130  C     C_1   0.033986 0.366340 0.623342 0.239149
N2    N     N_1   0.047542 0.384523 0.673960 -0.253060
C131  C     C_1   0.636049 0.073456 0.563296 0.278178
N3    N     N_1   0.619206 0.103298 0.590787 -0.249739
C132  C     C_1   0.965996 0.633692 0.623364 0.241703
N4    N     N_1   0.952477 0.615527 0.674025 -0.261273
C133  C     C_1   0.636049 0.926544 0.436704 0.278178
N5    N     N_1   0.619207 0.896702 0.409213 -0.249739
C134  C     C_1   0.965996 0.366308 0.376636 0.241703
N6    N     N_1   0.952477 0.384473 0.325975 -0.261274
C135  C     C_1   0.366404 0.023084 0.369953 0.235810
N7    N     N_1   0.384553 0.032303 0.316729 -0.256026
C136  C     C_1   0.033986 0.633660 0.376658 0.239149
N8    N     N_1   0.047543 0.615477 0.326040 -0.253060
C137  C     C_1   0.863951 0.426543 0.063294 0.278179
N9    N     N_1   0.880793 0.396701 0.090783 -0.249740
C138  C     C_1   0.534006 0.866308 0.123362 0.241705
N10   N     N_1   0.547527 0.884473 0.174022 -0.261272
C139  C     C_1   0.133596 0.523077 0.130050 0.235808
N11   N     N_1   0.115447 0.532293 0.183275 -0.256031
C140  C     C_1   0.466011 0.133660 0.123340 0.239151
N12   N     N_1   0.452454 0.115477 0.173957 -0.253057
C141  C     C_1   0.133596 0.476923 0.869950 0.235808
N13   N     N_1   0.115447 0.467707 0.816725 -0.256031
C142  C     C_1   0.466011 0.866340 0.876660 0.239151
N14   N     N_1   0.452454 0.884523 0.826043 -0.253057
C143  C     C_1   0.863951 0.573457 0.936706 0.278179
N15   N     N_1   0.880793 0.603299 0.909217 -0.249739
C144  C     C_1   0.534006 0.133692 0.876638 0.241704
N16   N     N_1   0.547527 0.115527 0.825978 -0.261272
C145  C     C_1   0.134341 0.066816 0.421083 0.262256
N17   N     N_1   0.116415 0.094420 0.389418 -0.263912
C146  C     C_1   0.926260 0.133664 0.441689 0.241812
N18   N     N_1   0.895952 0.115419 0.418645 -0.269944
C147  C     C_1   0.864545 0.955912 0.384327 0.277568
N19   N     N_1   0.881646 0.936931 0.337617 -0.257130
C148  C     C_1   0.073313 0.866155 0.439932 0.251721
N20   N     N_1   0.103373 0.884263 0.415733 -0.270781
C149  C     C_1   0.864545 0.044087 0.615673 0.277567
N21   N     N_1   0.881646 0.063069 0.662382 -0.257130
C150  C     C_1   0.073313 0.133845 0.560068 0.251721
N22   N     N_1   0.103372 0.115737 0.584267 -0.270781
C151  C     C_1   0.134341 0.933184 0.578917 0.262256
N23   N     N_1   0.116415 0.905580 0.610582 -0.263912
C152  C     C_1   0.926260 0.866336 0.558310 0.241812
N24   N     N_1   0.895952 0.884581 0.581355 -0.269944
C153  C     C_1   0.635454 0.544089 0.884329 0.277567
N25   N     N_1   0.618354 0.563071 0.837620 -0.257130
C154  C     C_1   0.426685 0.633845 0.939937 0.251718
N26   N     N_1   0.396626 0.615736 0.915740 -0.270783
C155  C     C_1   0.365659 0.433187 0.921077 0.262260
N27   N     N_1   0.383585 0.405583 0.889410 -0.263911
C156  C     C_1   0.573742 0.366336 0.941694 0.241811
N28   N     N_1   0.604049 0.384581 0.918652 -0.269946
C157  C     C_1   0.365659 0.566813 0.078923 0.262259
N29   N     N_1   0.383585 0.594417 0.110590 -0.263911
C158  C     C_1   0.573741 0.633664 0.058306 0.241811
N30   N     N_1   0.604049 0.615419 0.081348 -0.269946
C159  C     C_1   0.635454 0.455911 0.115671 0.277566
N31   N     N_1   0.618354 0.436929 0.162380 -0.257130
C160  C     C_1   0.426685 0.366155 0.060063 0.251718
N32   N     N_1   0.396626 0.384263 0.084260 -0.270783

loop_
_geom_bond_atom_site_label_1
_geom_bond_atom_site_label_2
_ccdc_geom_bond_type
C110  C142  S    
C91   C107  A    
C25   C41   A    
C49   C113  S    
C40   C160  S    
C4    C16   A    
C31   C151  S    
C33   C45   A    
C107  C139  S    
C108  C120  A    
C138  N10   T    
C71   O43   A    
C109  C119  A    
Cu7   O11   S    
C48   C69   S    
C88   C124  A    
C68   O38   A    
C110  C118  A    
C49   O1    A    
C18   H26   S    
C62   O26   A    
C9    C25   A    
C150  N22   T    
C89   C125  A    
Cu2   O2    S    
Cu1   Cu3   S    
C96   C112  A    
C60   O24   A    
C143  N15   T    
C8    C20   A    
C87   H7    S    
C12   C28   A    
C106  C118  A    
C69   O45   A    
C101  C133  S    
C13   C29   A    
C21   C37   A    
C50   O6    A    
C155  N27   T    
C14   C30   A    
C57   O19   A    
C21   H29   S    
Cu2   O24   S    
C26   C146  S    
C99   C115  A    
C145  N17   T    
C66   O34   A    
C53   C117  S    
C98   C114  A    
C5    C17   A    
C70   O48   A    
C84   H4    S    
Cu11  O42   S    
Cu10  O38   S    
C154  N26   T    
C22   C38   A    
C86   H6    S    
Cu10  O39   S    
C71   O47   A    
Cu1   O21   S    
C4    C124  S    
C32   C152  S    
C51   C115  S    
C139  N11   T    
Cu4   O4    S    
C57   C73   S    
C153  N25   T    
C40   C48   A    
C16   C32   A    
Cu2   O18   S    
C24   C40   A    
C104  C116  A    
Cu12  O48   S    
C104  C136  S    
C156  N28   T    
C97   C113  A    
Cu11  O43   S    
C43   C68   S    
Cu1   O17   S    
C13   H21   S    
C86   C122  A    
C29   C149  S    
C136  N8    T    
C54   O10   A    
C67   O39   A    
C84   C124  A    
C1    C15   A    
C11   C27   A    
C37   C47   A    
C63   O29   A    
C151  N23   T    
C10   H18   S    
C36   C156  S    
C65   O37   A    
C105  C137  S    
C3    C13   A    
C86   C102  A    
Cu5   O13   S    
Cu4   O20   S    
C39   C45   A    
Cu3   O3    S    
Cu8   O14   S    
C10   C26   A    
C52   C116  S    
C64   O32   A    
C35   C47   A    
C103  C135  S    
C83   C99   A    
C157  N29   T    
C29   C43   A    
Cu4   O22   S    
C64   C80   S    
C105  C117  A    
C44   C65   S    
C24   H32   S    
C19   H27   S    
Cu6   O10   S    
C20   H28   S    
C92   C128  A    
Cu7   O15   S    
C88   C104  A    
C92   C108  A    
C56   C120  S    
C36   C48   A    
C134  N6    T    
Cu9   O34   S    
C2    C122  S    
Cu5   O29   S    
C68   O36   A    
C27   C147  S    
C6    C18   A    
C90   C126  A    
C91   H11   S    
Cu8   O28   S    
C82   C98   A    
C60   O22   A    
C70   O42   A    
C56   O16   A    
C144  N16   T    
C69   O41   A    
C76   C77   T    
C6    C126  S    
C130  N2    T    
C90   H10   S    
C61   O25   A    
C112  C120  A    
Cu3   O7    S    
C63   C79   S    
C56   O12   A    
C59   O23   A    
C159  N31   T    
C7    C21   A    
Cu1   O5    S    
C15   C31   A    
C28   C44   A    
C59   O21   A    
C81   C121  A    
C50   C114  S    
C39   C159  S    
C84   C100  A    
C14   H22   S    
C100  C132  S    
Cu2   Cu4   S    
C52   O8    A    
C57   O17   A    
C133  N5    T    
C102  C114  A    
C53   O9    A    
Cu8   O30   S    
C129  N1    T    
C8    C128  S    
C109  C141  S    
C95   C125  A    
Cu12  O47   S    
C45   C70   S    
C132  N4    T    
C5    C23   A    
C9    H17   S    
Cu11  O44   S    
C158  N30   T    
C28   C148  S    
C60   C76   S    
C98   C130  S    
Cu8   O12   S    
C131  N3    T    
C11   H19   S    
C1    C9    A    
C94   C126  A    
C17   C33   A    
C99   C131  S    
C152  N24   T    
C12   H20   S    
C51   O3    A    
C18   C34   A    
C90   C106  A    
C46   C71   S    
C22   H30   S    
C63   O31   A    
C34   C46   A    
C25   C145  S    
Cu12  O46   S    
C61   O27   A    
Cu10  O40   S    
C81   H1    S    
C61   C77   S    
C106  C138  S    
C91   C127  A    
C58   O20   A    
C42   C67   S    
C101  C115  A    
C87   C103  A    
C34   C154  S    
C4    C12   A    
C96   H16   S    
C66   O40   A    
C148  N20   T    
C2    C10   A    
C59   C75   S    
C147  N19   T    
Cu7   O27   S    
C85   C101  A    
C111  C143  S    
C58   C74   S    
C112  C144  S    
C87   C121  A    
C102  C134  S    
C135  N7    T    
Cu5   O9    S    
Cu6   O26   S    
C95   C111  A    
C64   O30   A    
Cu11  O41   S    
C67   O35   A    
Cu5   O25   S    
C31   C41   A    
C146  N18   T    
C33   C153  S    
Cu6   Cu8   S    
C72   O44   A    
C93   C127  A    
C62   C78   S    
Cu3   O23   S    
C58   O18   A    
C141  N13   T    
Cu6   O16   S    
Cu7   O31   S    
Cu11  Cu12  S    
C89   C105  A    
Cu6   O32   S    
C41   C66   S    
Cu9   O33   S    
Cu3   O19   S    
Cu1   O1    S    
C72   O46   A    
Cu9   Cu10  S    
Cu10  O37   S    
C7    C19   A    
C107  C119  A    
C111  C117  A    
C74   C79   T    
C65   O33   A    
C55   C119  S    
C100  C116  A    
C54   C118  S    
C93   C109  A    
C53   O15   A    
C51   O5    A    
C38   C158  S    
C16   H24   S    
C19   C35   A    
C30   C150  S    
C83   H3    S    
C94   H14   S    
C88   H8    S    
C96   C128  A    
C149  N21   T    
C103  C113  A    
C81   C97   A    
Cu9   O35   S    
C23   C39   A    
C94   C110  A    
C85   H5    S    
C108  C140  S    
C89   H9    S    
C8    C24   A    
C73   C80   T    
C97   C129  S    
C85   C123  A    
C95   H15   S    
C55   O13   A    
C26   C42   A    
C2    C14   A    
C75   C78   T    
C1    C121  S    
C47   C72   S    
C38   C46   A    
C3    C11   A    
C27   C43   A    
C62   O28   A    
C82   H2    S    
C20   C36   A    
C93   H13   S    
C92   H12   S    
Cu2   O8    S    
C23   H31   S    
C32   C44   A    
C3    C123  S    
C54   O14   A    
C5    C125  S    
C160  N32   T    
Cu5   Cu7   S    
C55   O11   A    
C52   O4    A    
C30   C42   A    
C17   H25   S    
C50   O2    A    
C7    C127  S    
C137  N9    T    
C35   C155  S    
Cu12  O45   S    
C82   C122  A    
C15   H23   S    
C83   C123  A    
C140  N12   T    
C142  N14   T    
C37   C157  S    
Cu4   O6    S    
C49   O7    A    
Cu9   O36   S    
C6    C22   A    
