data_mof_unit_63264.cif
_audit_creation_date              2012-12-10T19:03:54-0500
_audit_creation_method            fapswitch 2.2
_symmetry_space_group_name_H-M    P1
_symmetry_Int_Tables_number       1
_space_group_crystal_system       monoclinic
_cell_length_a                    19.413702
_cell_length_b                    19.136435
_cell_length_c                    13.083592
_cell_angle_alpha                 90.0
_cell_angle_beta                  95.707909
_cell_angle_gamma                 90.0
_cell_volume                      4836.57284583

loop_
_atom_site_label
_atom_site_type_symbol
_atom_type_description
_atom_site_fract_x
_atom_site_fract_y
_atom_site_fract_z
_atom_type_partial_charge
C1    C     C_R   0.407993 0.093035 0.481507 0.886618
C2    C     C_1   0.520009 0.998922 0.147694 0.236587
C3    C     C_1   0.979991 0.498920 0.852306 0.236585
C4    C     C_1   0.020009 0.498924 0.147694 0.236587
C5    C     C_1   0.643161 0.144997 0.532972 -0.157201
C6    C     C_1   0.356834 0.855009 0.467018 -0.154708
C7    C     C_1   0.356839 0.144997 0.467028 -0.157201
C8    C     C_1   0.643166 0.855009 0.532981 -0.154708
C9    C     C_1   0.143161 0.644997 0.532972 -0.157200
C10   C     C_1   0.856834 0.355009 0.467018 -0.154707
C11   C     C_1   0.856839 0.644997 0.467028 -0.157202
C12   C     C_R   0.592007 0.906965 0.518495 0.886770
C13   C     C_1   0.143166 0.355009 0.532981 -0.154709
C14   C     C_2   0.738402 0.240857 0.544069 -0.154255
C15   C     C_2   0.261585 0.759158 0.455906 -0.152058
C16   C     C_2   0.261598 0.240856 0.455930 -0.154258
C17   C     C_2   0.738415 0.759158 0.544094 -0.152060
C18   C     C_2   0.238402 0.740857 0.544069 -0.154257
C19   C     C_2   0.761585 0.259158 0.455906 -0.152060
C20   C     C_2   0.761598 0.740857 0.455930 -0.154256
C21   C     C_2   0.238414 0.259158 0.544094 -0.152058
C22   C     C_1   0.313389 0.811083 0.458213 0.026395
C23   C     C_R   0.592007 0.093035 0.518493 0.886618
C24   C     C_1   0.686602 0.188928 0.541767 0.025780
C25   C     C_1   0.686611 0.811083 0.541786 0.026395
C26   C     C_1   0.313397 0.188928 0.458233 0.025780
C27   C     C_1   0.813389 0.311083 0.458213 0.026395
C28   C     C_1   0.186602 0.688928 0.541767 0.025781
C29   C     C_1   0.186611 0.311083 0.541786 0.026394
C30   C     C_1   0.813397 0.688928 0.458233 0.025779
C31   C     C_2   0.527965 0.996991 0.036828 -0.203739
C32   C     C_2   0.472033 0.996993 0.963172 -0.203740
C33   C     C_2   0.027966 0.496998 0.036828 -0.203737
C34   C     C_R   0.407993 0.906965 0.481505 0.886770
C35   C     C_2   0.972034 0.496986 0.963172 -0.203740
C36   C     C_2   0.398994 0.995891 0.990204 0.929563
C37   C     C_2   0.601004 0.995880 0.009795 0.929561
C38   C     C_2   0.898995 0.495863 0.990204 0.929563
C39   C     C_2   0.101005 0.495908 0.009795 0.929562
C40   C     C_R   0.907993 0.593035 0.481507 0.886618
C41   C     C_R   0.092007 0.406966 0.518495 0.886770
C42   C     C_R   0.092007 0.593035 0.518493 0.886618
C43   C     C_R   0.907993 0.406965 0.481505 0.886770
C44   C     C_1   0.479990 0.998923 0.852306 0.236586
H1    H     H_    0.742015 0.235559 0.383152 0.171532
H2    H     H_    0.668281 0.976710 0.904891 0.350576
H3    H     H_    0.831721 0.476687 0.095110 0.350577
H4    H     H_    0.168287 0.476757 0.904892 0.350577
H5    H     H_    0.257973 0.764456 0.616823 0.169818
H6    H     H_    0.257985 0.235559 0.616848 0.171533
H7    H     H_    0.742027 0.764456 0.383177 0.169818
H8    H     H_    0.242015 0.735559 0.383152 0.171535
H9    H     H_    0.757973 0.264456 0.616823 0.169820
H10   H     H_    0.757985 0.735559 0.616848 0.171531
H11   H     H_    0.242027 0.264456 0.383177 0.169816
H12   H     H_    0.331716 0.976734 0.095110 0.350577
N1    N     N_1   0.515180 0.000000 0.235860 -0.064923
N2    N     N_1   0.484820 1.000000 0.764140 -0.064923
N3    N     N_1   0.015180 0.500000 0.235860 -0.064923
N4    N     N_1   0.984820 0.500000 0.764140 -0.064924
O1    O     O_R   0.435400 0.070190 0.403000 -0.601139
O2    O     O_R   0.574340 0.929830 0.427410 -0.602815
O3    O     O_R   0.574340 0.070170 0.427410 -0.601440
O4    O     O_R   0.425660 0.929830 0.572590 -0.602813
O5    O     O_R   0.925660 0.570170 0.572590 -0.601441
O6    O     O_R   0.074340 0.429830 0.427410 -0.602816
O7    O     O_R   0.074340 0.570170 0.427410 -0.601438
O8    O     O_R   0.925660 0.429830 0.572590 -0.602812
O9    O     O_2   0.351885 0.011733 0.925164 -0.617202
O10   O     O_R   0.383209 0.975394 0.087816 -0.800190
O11   O     O_2   0.648115 0.011724 0.074832 -0.617202
O12   O     O_R   0.564600 0.929810 0.597000 -0.593785
O13   O     O_R   0.616787 0.975375 0.912186 -0.800189
O14   O     O_2   0.851882 0.511693 0.925163 -0.617202
O15   O     O_R   0.883216 0.475361 0.087817 -0.800190
O16   O     O_2   0.148111 0.511766 0.074831 -0.617203
O17   O     O_R   0.116794 0.475406 0.912187 -0.800189
O18   O     O_R   0.564600 0.070190 0.597000 -0.601141
O19   O     O_R   0.435400 0.929810 0.403000 -0.593786
O20   O     O_R   0.935400 0.570190 0.403000 -0.601141
O21   O     O_R   0.064600 0.429810 0.597000 -0.593786
O22   O     O_R   0.064600 0.570190 0.597000 -0.601139
O23   O     O_R   0.935400 0.429810 0.403000 -0.593784
O24   O     O_R   0.425660 0.070170 0.572590 -0.601439
Zn1   Zn    Zn3+2 0.506520 0.000000 0.386760 1.019818
Zn2   Zn    Zn3+2 0.493480 0.000000 0.613240 1.019817
Zn3   Zn    Zn3+2 0.006520 0.500000 0.386760 1.019817
Zn4   Zn    Zn3+2 0.993480 0.500000 0.613240 1.019818

loop_
_geom_bond_atom_site_label_1
_geom_bond_atom_site_label_2
_ccdc_geom_bond_type
C10   C27   T    
C15   C18   D    
O23   Zn3   S    
C16   C21   D    
C43   O23   A    
C42   O22   A    
C13   C41   S    
N4    Zn4   S    
C2    N1    T    
C20   C30   S    
C1    O24   A    
C9    C42   S    
C33   C39   S    
C7    C26   T    
C32   C36   S    
C13   C29   T    
O24   Zn2   S    
O20   Zn3   S    
C6    C22   T    
C17   C20   D    
C14   C24   S    
C15   C22   S    
C11   C30   T    
C44   N2    T    
C43   O8    A    
C40   O20   A    
C19   C27   S    
C3    N4    T    
O18   Zn2   S    
C23   O3    A    
C12   O12   A    
O3    Zn1   S    
C8    C25   T    
N2    Zn2   S    
O4    Zn2   S    
C21   H6    S    
C36   O10   S    
C38   O15   S    
C16   C26   S    
O2    Zn1   S    
C35   C38   S    
C18   C28   S    
O6    Zn3   S    
C15   H8    S    
C21   C29   S    
C31   C37   S    
C2    C31   S    
H4    O17   S    
C34   O19   A    
C12   O2    A    
C31   C32   D    
C5    C23   S    
C3    C35   S    
C8    C12   S    
C41   O21   A    
C34   O4    A    
C32   C44   S    
C39   O16   D    
O1    Zn1   S    
H12   O10   S    
C40   O5    A    
C37   O11   D    
C42   O7    A    
O8    Zn4   S    
C39   O17   S    
O19   Zn1   S    
C36   O9    D    
O5    Zn4   S    
C38   O14   D    
C37   O13   S    
C4    C33   S    
C10   C43   S    
C1    C7    S    
C14   C19   D    
C1    O1    A    
O12   Zn2   S    
C19   H1    S    
C41   O6    A    
C20   H7    S    
O7    Zn3   S    
C17   C25   S    
C16   H11   S    
H3    O15   S    
C5    C24   T    
O22   Zn4   S    
C4    N3    T    
C33   C35   D    
N1    Zn1   S    
C23   O18   A    
C11   C40   S    
N3    Zn3   S    
O21   Zn4   S    
C6    C34   S    
C14   H9    S    
C18   H5    S    
C17   H10   S    
H2    O13   S    
C9    C28   T    
