data_mof_unit_61306.cif
_audit_creation_date              2012-12-10T18:40:31-0500
_audit_creation_method            fapswitch 2.2
_symmetry_space_group_name_H-M    P1
_symmetry_Int_Tables_number       1
_space_group_crystal_system       triclinic
_cell_length_a                    10.77819
_cell_length_b                    11.574432
_cell_length_c                    16.716445
_cell_angle_alpha                 89.983527
_cell_angle_beta                  84.820046
_cell_angle_gamma                 89.969149
_cell_volume                      2076.88333451

loop_
_atom_site_label
_atom_site_type_symbol
_atom_type_description
_atom_site_fract_x
_atom_site_fract_y
_atom_site_fract_z
_atom_type_partial_charge
C1    C     C_R   0.499973 0.718837 0.500062 0.906883
C2    C     C_R   0.500025 0.281157 0.500015 0.913703
C3    C     C_1   0.499947 0.838943 0.500233 -0.170592
C4    C     C_1   0.500061 0.161029 0.500137 -0.175969
C5    C     C_1   0.499993 0.940826 0.500300 0.018457
C6    C     C_1   0.500046 0.059139 0.500246 0.017435
C7    C     C_1   0.930239 0.500012 0.500005 0.060472
C8    C     C_1   0.069760 0.500008 0.499992 0.060084
C9    C     C_R   0.482539 0.506519 0.653564 0.859692
C10   C     C_R   0.517489 0.499298 0.346017 0.866207
C11   C     C_R   0.469583 0.545827 0.736517 -0.076799
C12   C     C_R   0.529420 0.514599 0.259292 -0.087211
C13   C     C_R   0.545568 0.635779 0.762156 -0.014654
C14   C     C_R   0.438383 0.472291 0.211421 -0.020805
C15   C     C_R   0.527118 0.675116 0.840852 -0.138262
C16   C     C_R   0.443692 0.504065 0.131065 -0.146336
C17   C     C_R   0.435399 0.624787 0.894167 0.103949
C18   C     C_R   0.537545 0.578692 0.098457 0.110825
C19   C     C_R   0.354535 0.541876 0.867298 -0.118212
C20   C     C_R   0.632196 0.614197 0.144480 -0.109692
C21   C     C_R   0.371329 0.502746 0.788549 -0.215250
C22   C     C_R   0.628030 0.582571 0.224739 -0.212661
C23   C     C_2   0.438349 0.640352 0.980325 0.413919
C24   C     C_2   0.542535 0.611470 0.014137 0.421550
H1    H     H_    0.699066 0.615373 0.260640 0.170106
H2    H     H_    0.309928 0.436552 0.768791 0.161755
H3    H     H_    0.283453 0.502451 0.908488 0.174981
H4    H     H_    0.707227 0.668749 0.118861 0.176983
H5    H     H_    0.374993 0.470139 0.093711 0.167918
H6    H     H_    0.587733 0.741182 0.861881 0.167137
N1    N     N_1   0.819370 0.500000 0.500010 -0.073094
N2    N     N_1   0.180630 0.500000 0.499990 -0.073332
O1    O     O_R   0.397470 0.665550 0.500010 -0.604875
O2    O     O_R   0.602530 0.334450 0.499990 -0.603627
O3    O     O_R   0.602530 0.665550 0.499990 -0.603341
O4    O     O_R   0.397470 0.334450 0.500010 -0.603859
O5    O     O_R   0.385350 0.500000 0.615800 -0.609703
O6    O     O_R   0.614650 0.500000 0.384200 -0.613850
O7    O     O_R   0.590410 0.500000 0.615800 -0.601629
O8    O     O_R   0.409590 0.500000 0.384200 -0.600410
Zn1   Zn    Zn3+2 0.363080 0.500000 0.500000 1.003038
Zn2   Zn    Zn3+2 0.636920 0.500000 0.500000 1.001200
C25   C     C_1   0.641219 0.690889 0.709156 0.201404
N3    N     N_1   0.717833 0.735170 0.666850 -0.174343
C26   C     C_1   0.340118 0.395352 0.242701 0.199781
N4    N     N_1   0.261434 0.333738 0.267735 -0.177148
F1    F     F_    0.652467 0.595049 0.968604 -0.675747
F2    F     F_    0.328700 0.657216 0.026047 -0.676078

loop_
_geom_bond_atom_site_label_1
_geom_bond_atom_site_label_2
_ccdc_geom_bond_type
C2    C4    S    
C23   C24   D    
N1    Zn2   S    
O7    Zn2   S    
C11   C13   A    
O2    Zn2   S    
C10   O6    A    
N2    Zn1   S    
O1    Zn1   S    
C2    O2    A    
C9    O5    A    
C1    O1    A    
C7    C8    S    
C26   N4    T    
C9    C11   S    
O4    Zn1   S    
C17   C23   S    
C10   C12   S    
C18   C24   S    
C16   C18   A    
O8    Zn1   S    
C19   C21   A    
C21   H2    S    
C12   C14   A    
O6    Zn2   S    
C14   C26   S    
C18   C20   A    
C13   C15   A    
C25   N3    T    
O5    Zn1   S    
C5    C6    S    
C14   C16   A    
C7    N1    T    
C8    N2    T    
C12   C22   A    
C13   C25   S    
C19   H3    S    
C1    O3    A    
C15   H6    S    
C4    C6    T    
C2    O4    A    
C1    C3    S    
C15   C17   A    
O3    Zn2   S    
C10   O8    A    
C23   F2    S    
C20   H4    S    
C17   C19   A    
C16   H5    S    
C24   F1    S    
C11   C21   A    
C9    O7    A    
C20   C22   A    
C3    C5    T    
C22   H1    S    
