data_mof_unit_36468.cif
_audit_creation_date              2012-12-11T14:17:29-0500
_audit_creation_method            fapswitch 2.2
_symmetry_space_group_name_H-M    P1
_symmetry_Int_Tables_number       1
_space_group_crystal_system       triclinic
_cell_length_a                    6.951267
_cell_length_b                    13.667321
_cell_length_c                    20.442579
_cell_angle_alpha                 102.265754
_cell_angle_beta                  89.27926
_cell_angle_gamma                 90.821415
_cell_volume                      1897.53188484

loop_
_atom_site_label
_atom_site_type_symbol
_atom_type_description
_atom_site_fract_x
_atom_site_fract_y
_atom_site_fract_z
_atom_type_partial_charge
O1    O     O_R   0.506860 0.599390 0.449240 -0.556271
O2    O     O_R   0.180220 0.594600 0.586780 -0.499745
O3    O     O_R   0.004500 0.400610 0.550760 -0.537631
C1    C     C_R   0.348072 0.616074 0.613526 0.787477
O4    O     O_R   0.177490 0.611290 0.451970 -0.537424
O5    O     O_R   0.001750 0.417420 0.414990 -0.513355
C2    C     C_R   0.348152 0.637729 0.435373 0.731468
O6    O     O_R   0.509610 0.582580 0.585010 -0.540641
O7    O     O_3   0.337420 0.436370 0.488020 -0.377404
V1    V     V_3+5 0.064680 0.511800 0.502220 1.530285
O8    O     O_R   0.671710 0.405400 0.413220 -0.566464
C3    C     C_R   0.840714 0.385354 0.386048 0.766124
O9    O     O_R   0.674440 0.388710 0.548030 -0.544972
C4    C     C_R   0.841702 0.362538 0.565131 0.708397
V2    V     V_3+5 0.564010 0.488200 0.497780 1.437286
O10   O     O_3   0.841140 0.563630 0.511980 -0.365851
C5    C     C_R   0.817694 0.112133 0.612839 -0.153951
H1    H     H_    0.808885 0.162509 0.520450 0.108203
H2    H     H_    0.809835 0.986915 0.695598 0.139446
H3    H     H_    0.801098 0.034210 0.587873 0.114766
C6    C     C_R   0.845083 0.285610 0.605126 -0.037005
C7    C     C_R   0.886734 0.314500 0.928234 -0.168619
C8    C     C_R   0.892003 0.390525 0.892678 -0.117696
C9    C     C_R   0.880319 0.368135 0.823080 -0.156211
C10   C     C_R   0.862501 0.267831 0.786885 0.075874
C11   C     C_R   0.854826 0.190176 0.823856 0.066269
C12   C     C_R   0.852222 0.242011 0.715398 0.070732
C13   C     C_R   0.831835 0.139574 0.682834 0.138261
C14   C     C_R   0.824761 0.065109 0.720191 -0.197543
C15   C     C_R   0.836623 0.089765 0.789482 -0.194087
C16   C     C_R   0.860578 0.314120 0.674822 -0.214776
C17   C     C_R   0.822702 0.184813 0.574319 -0.168254
C18   C     C_R   0.867559 0.214622 0.894678 -0.070461
H4    H     H_    0.876251 0.393115 0.695579 0.110057
H5    H     H_    0.898121 0.333591 0.982293 0.099740
H6    H     H_    0.885766 0.431257 0.799308 0.116701
H7    H     H_    0.906321 0.467687 0.919281 0.119524
H8    H     H_    0.830863 0.029044 0.815944 0.122560
C19   C     C_2   0.003470 0.277106 0.287308 0.508783
C20   C     C_2   0.847442 0.327798 0.315674 -0.386945
H9    H     H_    0.723384 0.332989 0.285045 0.072974
C21   C     C_2   0.008289 0.225480 0.214992 -0.244609
C22   C     C_2   0.855312 0.179873 0.181654 -0.350786
H10   H     H_    0.146109 0.218240 0.189605 0.129709
H11   H     H_    0.715557 0.184787 0.206230 0.142881
C23   C     C_2   0.205523 0.791501 0.783293 -0.212552
C24   C     C_2   0.365015 0.815661 0.820048 -0.397469
H12   H     H_    0.068901 0.822595 0.803507 0.169134
H13   H     H_    0.502992 0.785114 0.801584 0.148061
C25   C     C_2   0.199821 0.722675 0.716037 0.625329
C26   C     C_2   0.357764 0.684688 0.680311 -0.411456
H14   H     H_    0.500737 0.703922 0.699659 0.121570
C27   C     C_R   0.523105 0.868788 0.383330 -0.144534
H15   H     H_    0.530743 0.813475 0.473446 0.132229
H16   H     H_    0.591182 0.988422 0.301008 0.140217
H17   H     H_    0.603388 0.936075 0.405353 0.126636
C28   C     C_R   0.368281 0.715242 0.396453 -0.115268
C29   C     C_R   0.285728 0.692807 0.075877 -0.177034
C30   C     C_R   0.264291 0.617810 0.111675 -0.138855
C31   C     C_R   0.297326 0.638120 0.180175 -0.108620
C32   C     C_R   0.348706 0.735547 0.215346 0.025507
C33   C     C_R   0.389091 0.810424 0.177472 -0.029071
C34   C     C_R   0.372073 0.759190 0.286460 -0.035851
C35   C     C_R   0.470993 0.849086 0.315839 0.021043
C36   C     C_R   0.517852 0.919304 0.277991 -0.242209
C37   C     C_R   0.466898 0.904203 0.210922 0.403135
C38   C     C_R   0.302419 0.697608 0.330191 0.373845
C39   C     C_R   0.479122 0.800167 0.422472 -0.251284
C40   C     C_R   0.350548 0.788259 0.107391 -0.077718
H18   H     H_    0.255740 0.675691 0.022723 0.102805
H19   H     H_    0.290298 0.574779 0.203727 0.164686
H20   H     H_    0.222453 0.542980 0.086055 0.117393
O11   O     O_R   0.203230 0.917310 0.915020 -0.541099
O12   O     O_R   0.535500 0.888690 0.048040 -0.519795
O13   O     O_R   0.711080 0.082610 0.085000 -0.523094
C41   C     C_R   0.365392 0.863458 0.065897 0.776776
O14   O     O_R   0.532630 0.905370 0.913230 -0.550121
O15   O     O_R   0.708190 0.099410 0.949230 -0.542433
C42   C     C_R   0.365076 0.884218 0.886560 0.772278
O16   O     O_R   0.206120 0.900510 0.050790 -0.549196
O17   O     O_3   0.375360 0.063570 0.011990 -0.378080
V3    V     V_3+5 0.648170 0.988200 0.997780 1.456783
O18   O     O_R   0.038240 0.111390 0.951940 -0.543119
C43   C     C_R   0.871012 0.137151 0.934575 0.676347
O19   O     O_R   0.041120 0.094710 0.086750 -0.554172
C44   C     C_R   0.871307 0.116123 0.113398 0.794273
V4    V     V_3+5 0.148810 0.011930 0.002180 1.416689
O20   O     O_3   0.871750 0.936430 0.988010 -0.374889
F1    F     F_    0.021332 0.699182 0.690352 -0.689033
O21   O     O_3   0.172338 0.619941 0.309741 -0.580353
C45   C     C_3   0.985600 0.660074 0.313728 -0.239170
H21   H     H_    0.968789 0.711183 0.278494 0.146817
H22   H     H_    0.949031 0.699733 0.365716 0.148936
H23   H     H_    0.880553 0.597550 0.299284 0.151303
O22   O     O_3   0.511093 0.979098 0.177296 -0.556117
C46   C     C_3   0.375890 0.056031 0.195911 -0.226890
H24   H     H_    0.397994 0.097252 0.248346 0.145869
H25   H     H_    0.225258 0.026933 0.189206 0.140865
H26   H     H_    0.397433 0.109868 0.162862 0.159982
O23   O     O_3   0.153518 0.261889 0.327745 -0.552223
C47   C     C_3   0.318271 0.314125 0.312667 -0.207954
H27   H     H_    0.370301 0.287152 0.260522 0.080148
H28   H     H_    0.433929 0.299055 0.345510 0.175479
H29   H     H_    0.293928 0.396318 0.322992 0.158709

loop_
_geom_bond_atom_site_label_1
_geom_bond_atom_site_label_2
_ccdc_geom_bond_type
O18   V4    S    
V4    O20   S    
C47   H27   S    
O22   C46   S    
C24   C42   S    
C1    O6    A    
O17   V3    S    
O21   C45   S    
C24   H13   S    
O19   C44   A    
C7    H5    S    
C6    C16   A    
C9    H6    S    
O12   C41   A    
C4    C6    S    
C13   C14   A    
O12   V3    S    
O16   V4    S    
O5    C3    A    
C27   C35   A    
H15   C39   S    
V2    O10   S    
C46   H26   S    
C5    H3    S    
C15   H8    S    
C40   C41   S    
C32   C34   A    
C27   C39   A    
O11   V4    S    
O13   C44   A    
O8    V2    S    
C46   H25   S    
C8    C9    A    
O1    V2    S    
O7    V1    S    
C30   H20   S    
O14   C42   A    
C30   C31   A    
C47   H28   S    
O9    C4    A    
C22   C44   S    
C21   H10   S    
C28   C38   A    
H16   C36   S    
C19   C21   S    
C34   C38   A    
O19   V4    S    
C6    C17   A    
C23   H12   S    
C33   C37   A    
C1    C26   S    
C12   C16   A    
C26   H14   S    
C9    C10   A    
C19   C20   D    
O4    C2    A    
C29   H18   S    
C31   H19   S    
C10   C11   A    
C8    H7    S    
C38   O21   S    
C33   C40   A    
C31   C32   A    
C3    C20   S    
O2    C1    A    
C14   C15   A    
C45   H22   S    
O15   V3    S    
C25   F1    S    
O18   C43   A    
C46   H24   S    
C25   C26   D    
O11   C42   A    
C16   H4    S    
C29   C40   A    
C22   H11   S    
O17   V4    S    
O3    C4    A    
C20   H9    S    
C11   C15   A    
C47   H29   S    
O9    V2    S    
C10   C12   A    
H1    C17   S    
C21   C22   D    
C28   C39   A    
O2    V1    S    
C45   H21   S    
C27   H17   S    
C7    C18   A    
C23   C24   D    
O1    C2    A    
C5    C13   A    
C41   O16   A    
O5    V1    S    
O8    C3    A    
O13   V3    S    
O6    V2    S    
C23   C25   S    
C35   C36   A    
C29   C30   A    
O4    V1    S    
O3    V1    S    
V1    O10   S    
C45   H23   S    
C19   O23   S    
O14   V3    S    
V3    O20   S    
O23   C47   S    
O7    V2    S    
C32   C33   A    
C18   C43   S    
C34   C35   A    
O15   C43   A    
C36   C37   A    
C12   C13   A    
C5    C17   A    
C7    C8    A    
C2    C28   S    
C11   C18   A    
C37   O22   S    
H2    C14   S    
