data_mof_unit_17869.cif
_audit_creation_date              2012-12-10T20:28:42-0500
_audit_creation_method            fapswitch 2.2
_symmetry_space_group_name_H-M    P1
_symmetry_Int_Tables_number       1
_space_group_crystal_system       triclinic
_cell_length_a                    10.631015
_cell_length_b                    10.665863
_cell_length_c                    9.867106
_cell_angle_alpha                 89.946945
_cell_angle_beta                  89.924517
_cell_angle_gamma                 89.900433
_cell_volume                      1118.8176468

loop_
_atom_site_label
_atom_site_type_symbol
_atom_type_description
_atom_site_fract_x
_atom_site_fract_y
_atom_site_fract_z
_atom_type_partial_charge
C1    C     C_R   0.504173 0.259901 0.500025 0.873697
C2    C     C_R   0.065530 0.612400 0.563817 0.097650
C3    C     C_R   0.128186 0.511815 0.499878 -0.100857
C4    C     C_R   0.064403 0.416771 0.432635 -0.222317
C5    C     C_R   0.935924 0.416899 0.432364 -0.205339
C6    C     C_R   0.871644 0.512040 0.499439 -0.095620
C7    C     C_R   0.532734 0.063784 0.622342 0.143811
C8    C     C_R   0.525851 0.128562 0.500012 -0.105806
C9    C     C_R   0.544960 0.064783 0.377392 -0.234810
C10   C     C_R   0.545479 0.935214 0.377423 -0.220011
C11   C     C_R   0.526791 0.871229 0.500048 -0.100517
C12   C     C_R   0.260462 0.503323 0.500087 0.871223
C13   C     C_R   0.533613 0.935845 0.622436 0.115064
C14   C     C_3   0.451981 0.928464 0.745729 -0.480968
C15   C     C_3   0.450335 0.070556 0.745025 -0.488254
C16   C     C_R   0.440869 0.406483 0.071418 0.212223
C17   C     C_R   0.567858 0.585507 0.071771 -0.134927
C18   C     C_R   0.567987 0.585430 0.927794 -0.124809
C19   C     C_R   0.440335 0.407028 0.928786 0.166813
C20   C     C_3   0.303682 0.376234 0.922737 -0.503959
C21   C     C_3   0.304060 0.374812 0.077162 -0.062726
C22   C     C_R   0.504547 0.740057 0.499936 0.852992
C23   C     C_R   0.739485 0.503447 0.499894 0.863817
C24   C     C_R   0.130414 0.713791 0.623927 -0.191416
C25   C     C_R   0.064474 0.812387 0.683976 -0.141192
C26   C     C_R   0.933574 0.812435 0.683875 -0.135085
C27   C     C_R   0.868187 0.713936 0.623708 -0.188990
C28   C     C_R   0.933678 0.612501 0.563634 0.096751
H1    H     H_    0.114365 0.340967 0.382886 0.150883
H2    H     H_    0.502757 0.888167 0.834087 0.198855
H3    H     H_    0.355950 0.110573 0.722642 0.197203
H4    H     H_    0.499477 0.112527 0.833379 0.203435
H5    H     H_    0.620667 0.656073 0.125922 0.147100
H6    H     H_    0.620985 0.655860 0.873322 0.143405
H7    H     H_    0.246638 0.454143 0.879745 0.204948
H8    H     H_    0.286608 0.283543 0.874919 0.203814
H9    H     H_    0.245741 0.450455 0.122946 0.192024
H10   H     H_    0.231890 0.718874 0.623199 0.143855
H11   H     H_    0.115029 0.889595 0.729509 0.131222
H12   H     H_    0.882487 0.889613 0.729318 0.134394
H13   H     H_    0.766662 0.719272 0.623075 0.141591
H14   H     H_    0.886268 0.341193 0.382367 0.152021
H15   H     H_    0.549890 0.113720 0.281261 0.173886
H16   H     H_    0.550699 0.886414 0.281324 0.167078
H17   H     H_    0.358467 0.886437 0.725014 0.199032
N1    N     N_R   0.499160 0.499140 0.142800 -0.121081
N2    N     N_R   0.499160 0.499180 0.857150 -0.103282
O1    O     O_R   0.500020 0.316790 0.614690 -0.609453
O2    O     O_R   0.500000 0.316760 0.385350 -0.624910
O3    O     O_R   0.316770 0.500020 0.614690 -0.621623
O4    O     O_R   0.316760 0.499980 0.385350 -0.617374
O5    O     O_R   0.500000 0.683240 0.614650 -0.632483
O6    O     O_R   0.499980 0.683210 0.385310 -0.622503
O7    O     O_R   0.683240 0.500020 0.614650 -0.618518
O8    O     O_R   0.683230 0.499980 0.385310 -0.614005
Zn1   Zn    Zn3+2 0.500010 0.500020 0.653130 0.937992
Zn2   Zn    Zn3+2 0.499990 0.499980 0.346870 0.940033
C29   C     C_3   0.279884 0.245189 0.138391 -0.871683
H18   H     H_    0.343091 0.173193 0.093342 0.239519
H19   H     H_    0.295746 0.248031 0.249411 0.256306
H20   H     H_    0.180715 0.217766 0.119800 0.241878

loop_
_geom_bond_atom_site_label_1
_geom_bond_atom_site_label_2
_ccdc_geom_bond_type
C12   O3    A    
C5    H14   S    
C1    O1    A    
C23   O8    A    
C16   C21   S    
O4    Zn2   S    
C22   O6    A    
C1    C8    S    
C11   C13   A    
C9    C10   A    
C27   H13   S    
C11   C22   S    
C24   H10   S    
C4    H1    S    
C7    C13   A    
C26   H12   S    
C18   N2    A    
C29   H20   S    
C7    C15   S    
C17   C18   A    
C29   H18   S    
C24   C25   A    
C21   H9    S    
C21   C29   S    
C13   C14   S    
C17   N1    A    
C15   H3    S    
C18   H6    S    
C25   H11   S    
C26   C27   A    
C17   H5    S    
C14   H2    S    
C16   C19   A    
C6    C23   S    
N2    Zn1   S    
C2    C3    A    
C14   H17   S    
O7    Zn1   S    
O8    Zn2   S    
N1    Zn2   S    
C2    C24   A    
C5    C6    A    
C19   N2    A    
C9    H15   S    
C10   C11   A    
C10   H16   S    
C3    C4    A    
C20   H8    S    
O3    Zn1   S    
C7    C8    A    
C12   O4    A    
O2    Zn2   S    
C20   C21   S    
O5    Zn1   S    
C23   O7    A    
C22   O5    A    
C16   N1    A    
C27   C28   A    
O1    Zn1   S    
O6    Zn2   S    
C14   C15   S    
C4    C5    A    
C2    C28   A    
C3    C12   S    
C25   C26   A    
C15   H4    S    
C20   H7    S    
C29   H19   S    
C6    C28   A    
C19   C20   S    
C8    C9    A    
C1    O2    A    
