data_mof_unit_54222.cif
_audit_creation_date              2013-03-05T15:50:11-0500
_audit_creation_method            fapswitch 2.2
_symmetry_space_group_name_H-M    P1
_symmetry_Int_Tables_number       1
_space_group_crystal_system       triclinic
_cell_length_a                    14.808194
_cell_length_b                    15.886194
_cell_length_c                    9.58701
_cell_angle_alpha                 89.987564
_cell_angle_beta                  91.373214
_cell_angle_gamma                 90.000282
_cell_volume                      2254.65647571

loop_
_atom_site_label
_atom_site_type_symbol
_atom_site_description
_atom_site_fract_x
_atom_site_fract_y
_atom_site_fract_z
_atom_type_partial_charge
O1    O     O_R   0.409820 0.909830 0.618810 -0.548794
O2    O     O_R   0.409820 0.090170 0.618810 -0.549184
O3    O     O_R   0.909820 0.409830 0.618810 -0.548773
O4    O     O_R   0.909820 0.590170 0.618810 -0.549203
O5    O     O_R   0.409840 0.909830 0.381240 -0.545059
O6    O     O_R   0.409840 0.090170 0.381240 -0.544135
O7    O     O_R   0.909840 0.409830 0.381240 -0.545091
O8    O     O_R   0.909840 0.590170 0.381240 -0.544101
C1    C     C_R   0.388509 0.875532 0.499882 0.844619
C2    C     C_R   0.388522 0.124476 0.499853 0.844729
C3    C     C_R   0.888508 0.375532 0.499882 0.844615
C4    C     C_R   0.888523 0.624476 0.499853 0.844735
Cu1   Cu    Cu3+1 0.499990 0.000000 0.640660 0.962602
Cu2   Cu    Cu3+1 0.999990 0.500000 0.640660 0.962603
Cu3   Cu    Cu3+1 0.500010 0.000000 0.359340 0.983256
Cu4   Cu    Cu3+1 0.000010 0.500000 0.359340 0.983256
O9    O     O_R   0.590170 0.090170 0.618760 -0.627040
O10   O     O_R   0.590170 0.909830 0.618760 -0.627087
O11   O     O_R   0.090170 0.590170 0.618760 -0.627039
O12   O     O_R   0.090170 0.409830 0.618760 -0.627087
O13   O     O_R   0.590190 0.090180 0.381190 -0.604116
O14   O     O_R   0.590190 0.909820 0.381190 -0.604088
O15   O     O_R   0.090190 0.590180 0.381190 -0.604116
O16   O     O_R   0.090190 0.409820 0.381190 -0.604088
C5    C     C_R   0.617430 0.120668 0.502130 0.751512
C6    C     C_R   0.617466 0.879357 0.502151 0.751655
C7    C     C_R   0.117430 0.620668 0.502130 0.751510
C8    C     C_R   0.117465 0.379357 0.502151 0.751656
H1    H     H_    0.307841 0.201076 0.278107 0.208099
H2    H     H_    0.307970 0.798910 0.278175 0.208324
H3    H     H_    0.807852 0.701088 0.278103 0.208087
H4    H     H_    0.807961 0.298918 0.278181 0.208339
C9    C     C_R   0.368535 0.236599 0.748263 -0.106221
C10   C     C_R   0.368179 0.763565 0.748546 -0.106416
C11   C     C_R   0.868537 0.736600 0.748263 -0.106220
C12   C     C_R   0.868182 0.263562 0.748540 -0.106424
H5    H     H_    0.437472 0.214558 0.742847 0.134243
H6    H     H_    0.437147 0.785545 0.743280 0.134411
H7    H     H_    0.937474 0.714558 0.742848 0.134242
H8    H     H_    0.937149 0.285541 0.743273 0.134410
C13   C     C_R   0.337853 0.261511 0.878061 -0.085928
C14   C     C_R   0.337300 0.738800 0.878324 -0.085415
C15   C     C_R   0.837855 0.761513 0.878060 -0.085934
C16   C     C_R   0.837303 0.238798 0.878317 -0.085414
H9    H     H_    0.381361 0.255812 0.969947 0.132441
H10   H     H_    0.380691 0.744553 0.970327 0.132662
H11   H     H_    0.881363 0.755814 0.969947 0.132435
H12   H     H_    0.880695 0.244551 0.970319 0.132671
C17   C     C_R   0.749544 0.789371 0.890180 -0.096098
C18   C     C_R   0.748954 0.211000 0.890244 -0.095421
C19   C     C_R   0.249543 0.289369 0.890181 -0.096094
C20   C     C_R   0.248950 0.711002 0.890251 -0.095427
H13   H     H_    0.723373 0.803347 0.992111 0.140657
H14   H     H_    0.722638 0.197123 0.992128 0.140748
H15   H     H_    0.223371 0.303345 0.992112 0.140660
H16   H     H_    0.222634 0.697124 0.992135 0.140740
C21   C     C_R   0.695339 0.801246 0.770751 -0.161446
C22   C     C_R   0.694903 0.199041 0.770684 -0.161512
C23   C     C_R   0.195337 0.301245 0.770751 -0.161450
C24   C     C_R   0.194899 0.699043 0.770688 -0.161497
H17   H     H_    0.626417 0.819122 0.788322 0.164747
H18   H     H_    0.625943 0.181200 0.788064 0.164610
H19   H     H_    0.126415 0.319121 0.788323 0.164747
H20   H     H_    0.125939 0.681202 0.788069 0.164604
C25   C     C_R   0.729298 0.785812 0.635833 0.091523
C26   C     C_R   0.729054 0.214347 0.635839 0.091393
C27   C     C_R   0.229296 0.285810 0.635834 0.091523
C28   C     C_R   0.229053 0.714348 0.635842 0.091389
C29   C     C_R   0.310953 0.240535 0.628333 0.116604
C30   C     C_R   0.310741 0.759582 0.628458 0.116802
C31   C     C_R   0.810955 0.740536 0.628333 0.116593
C32   C     C_R   0.810742 0.259580 0.628455 0.116819
C33   C     C_R   0.331586 0.200020 0.501467 -0.137595
C34   C     C_R   0.331528 0.800018 0.501553 -0.137589
C35   C     C_R   0.831590 0.700022 0.501467 -0.137599
C36   C     C_R   0.831527 0.300019 0.501553 -0.137589
C37   C     C_R   0.288128 0.225559 0.377813 -0.167270
C38   C     C_R   0.288162 0.774450 0.377859 -0.167725
C39   C     C_R   0.788136 0.725566 0.377811 -0.167245
C40   C     C_R   0.788157 0.274455 0.377861 -0.167749
H21   H     H_    0.688122 0.803006 0.282114 0.169389
H22   H     H_    0.688233 0.196966 0.282079 0.169425
H23   H     H_    0.188114 0.302998 0.282115 0.169392
H24   H     H_    0.188241 0.696959 0.282076 0.169418
C41   C     C_R   0.718322 0.783107 0.380765 -0.204472
C42   C     C_R   0.718340 0.216912 0.380754 -0.204164
C43   C     C_R   0.218315 0.283101 0.380766 -0.204464
C44   C     C_R   0.218345 0.716908 0.380753 -0.204168
C45   C     C_R   0.686325 0.812721 0.508219 -0.109526
C46   C     C_R   0.686233 0.187350 0.508185 -0.109548
C47   C     C_R   0.186323 0.312718 0.508219 -0.109529
C48   C     C_R   0.186234 0.687349 0.508185 -0.109543
C49   C     C_R   0.666256 0.000114 0.149673 -0.116387
C50   C     C_R   0.166256 0.500117 0.149673 -0.116388
H25   H     H_    0.674201 0.000053 0.260045 0.199777
H26   H     H_    0.174201 0.500054 0.260045 0.199778
C51   C     C_R   0.747318 0.000176 0.079801 -0.238683
C52   C     C_R   0.247318 0.500180 0.079801 -0.238682
H27   H     H_    0.810904 0.000208 0.137990 0.161339
H28   H     H_    0.310905 0.500212 0.137990 0.161339
C53   C     C_R   0.746986 0.000158 0.935963 -0.193983
C54   C     C_R   0.246987 0.500161 0.935963 -0.193981
H29   H     H_    0.810261 0.000181 0.881628 0.163213
H30   H     H_    0.310261 0.500184 0.881628 0.163212
C55   C     C_R   0.665579 0.000073 0.861133 -0.115060
C56   C     C_R   0.165579 0.500075 0.861133 -0.115058
H31   H     H_    0.672346 0.000004 0.751102 0.204258
H32   H     H_    0.172346 0.500005 0.751101 0.204258
C57   C     C_R   0.581515 0.000048 0.927981 0.091686
C58   C     C_R   0.081515 0.500049 0.927981 0.091685
C59   C     C_R   0.581623 0.000080 0.077567 0.127262
C60   C     C_R   0.081623 0.500083 0.077567 0.127262
N1    N     N_R   0.501200 0.000000 0.147910 -0.281769
N2    N     N_R   0.001200 0.500000 0.147910 -0.281768
C61   C     C_R   0.421923 0.999800 0.071002 0.313806
C62   C     C_R   0.921923 0.499790 0.071002 0.313801
C63   C     C_R   0.421884 0.999940 0.922849 0.313743
C64   C     C_R   0.921884 0.499937 0.922849 0.313747
N3    N     N_R   0.501270 0.000000 0.852040 -0.292247
N4    N     N_R   0.001270 0.500000 0.852040 -0.292247
N5    N     N_R   0.337107 0.000252 0.848023 0.181703
O17   O     O_R   0.292605 0.930114 0.834598 -0.324668
O18   O     O_R   0.292503 0.070455 0.836696 -0.326057
N6    N     N_R   0.837107 0.500265 0.848022 0.181702
O19   O     O_R   0.792615 0.430126 0.834525 -0.324630
O20   O     O_R   0.792493 0.570467 0.836769 -0.326092
N7    N     N_R   0.337289 0.999169 0.139262 0.178416
O21   O     O_R   0.292376 0.929017 0.143806 -0.358104
O22   O     O_R   0.292695 0.069296 0.148236 -0.356842
N8    N     N_R   0.837288 0.499130 0.139264 0.178408
O23   O     O_R   0.792361 0.428977 0.143679 -0.358138
O24   O     O_R   0.792709 0.569265 0.148363 -0.356813

loop_
_geom_bond_atom_site_label_1
_geom_bond_atom_site_label_2
_geom_bond_distance
_ccdc_geom_bond_type
C22   H18   1.076572 S    
H23   C43   1.083516 S    
C43   C47   1.402443 A    
Cu4   O16   1.966230 S    
N8    O24   1.299081 A    
O10   C6    1.292052 A    
C32   C36   1.416042 A    
C60   N2    1.382597 A    
C17   C21   1.395248 A    
C26   C46   1.430661 A    
C6    C45   1.470008 S    
C25   C45   1.430715 A    
C55   H31   1.062009 S    
C5    C46   1.469945 S    
C18   H14   1.082899 S    
C35   C39   1.395473 A    
O13   C5    1.311284 A    
Cu1   O10   1.973045 S    
C3    C36   1.466955 S    
C63   N3    1.371505 A    
C2    C33   1.466963 S    
C50   C52   1.388589 A    
C38   C44   1.380807 A    
H3    C39   1.078768 S    
C61   N7    1.427719 S    
C14   H10   1.082629 S    
O2    Cu1   1.966013 S    
C63   N5    1.430910 S    
C40   C42   1.380807 A    
C20   C24   1.395251 A    
C51   H27   1.082887 S    
O6    Cu3   1.972943 S    
C22   C26   1.420315 A    
Cu3   O14   1.966230 S    
C26   C32   1.410217 A    
C12   C32   1.416324 A    
C44   C48   1.402414 A    
C61   C63   1.420326 A    
C10   C14   1.392453 A    
C30   C34   1.416056 A    
Cu3   N1    2.027481 S    
C29   C33   1.416001 A    
O15   C7    1.311285 A    
O4    C4    1.295984 A    
O11   C7    1.292016 A    
C10   C30   1.416333 A    
C9    C29   1.416315 A    
C50   H26   1.061849 S    
C23   C27   1.420333 A    
C11   C31   1.416315 A    
C53   H29   1.082896 S    
Cu1   N3    2.026138 S    
O7    C3    1.306650 A    
C58   C60   1.434044 A    
C53   C55   1.387962 A    
O5    Cu3   1.972869 S    
C18   C22   1.395242 A    
Cu2   O12   1.973045 S    
C12   H8    1.081638 S    
O1    C1    1.295946 A    
C42   C46   1.402394 A    
C58   N4    1.378631 A    
C41   C45   1.402446 A    
C15   C17   1.388094 A    
O12   C8    1.292052 A    
C25   C31   1.410264 A    
C9    H5    1.081643 S    
C27   C29   1.410264 A    
H24   C44   1.083525 S    
O1    Cu1   1.966071 S    
C11   H7    1.081644 S    
N7    O22   1.298981 A    
O5    C1    1.306652 A    
C52   C54   1.378871 A    
H4    C40   1.078682 S    
O8    C4    1.306617 A    
C51   C53   1.378871 A    
C27   C47   1.430714 A    
C62   N8    1.427736 S    
C7    C48   1.469945 S    
C59   N1    1.382596 A    
C64   N6    1.430912 S    
C54   H30   1.082897 S    
C37   C43   1.380794 A    
N5    O17   1.299352 A    
O3    Cu2   1.966071 S    
C49   C59   1.416685 A    
C28   C30   1.410223 A    
O7    Cu4   1.972869 S    
Cu4   O15   1.966286 S    
Cu2   N4    2.026138 S    
Cu1   Cu3   2.697024 S    
C34   C38   1.395464 A    
Cu2   Cu4   2.697024 S    
C12   C16   1.392435 A    
C19   C23   1.395250 A    
C1    C34   1.466956 S    
N7    O21   1.299072 A    
O2    C2    1.295983 A    
C49   C51   1.388586 A    
C39   C41   1.380795 A    
C11   C15   1.392418 A    
C57   N3    1.378632 A    
O16   C8    1.311274 A    
N6    O20   1.299386 A    
C56   C58   1.413707 A    
C16   C18   1.388108 A    
C55   C57   1.413705 A    
C33   C37   1.395469 A    
C10   H6    1.081646 S    
Cu2   O11   1.972968 S    
C36   C40   1.395449 A    
C21   C25   1.420330 A    
Cu4   N2    2.027481 S    
O6    C2    1.306616 A    
N2    C62   1.371248 A    
C21   H17   1.076531 S    
C23   H19   1.076532 S    
Cu1   O9    1.972968 S    
C24   H20   1.076584 S    
C9    C13   1.392419 A    
C57   C59   1.434043 A    
N8    O23   1.299133 A    
O9    C5    1.292017 A    
H22   C42   1.083512 S    
C31   C35   1.415999 A    
C49   H25   1.061848 S    
C56   H32   1.062012 S    
C17   H13   1.082904 S    
C50   C60   1.416685 A    
C28   C48   1.430674 A    
C62   C64   1.420327 A    
C54   C56   1.387965 A    
C8    C47   1.470006 S    
C19   H15   1.082906 S    
O4    Cu2   1.966013 S    
C52   H28   1.082888 S    
C64   N4    1.371506 A    
N5    O18   1.299368 A    
O3    C3    1.295946 A    
H2    C38   1.078702 S    
C20   H16   1.082911 S    
Cu3   O13   1.966286 S    
H1    C37   1.078764 S    
C24   C28   1.420338 A    
O8    Cu4   1.972943 S    
O14   C6    1.311274 A    
C4    C35   1.466968 S    
C13   H9    1.082622 S    
C15   H11   1.082622 S    
C13   C19   1.388095 A    
H21   C41   1.083518 S    
C16   H12   1.082622 S    
C14   C20   1.388115 A    
N6    O19   1.299354 A    
N1    C61   1.371247 A    
