data_mof_unit_39250.cif
_audit_creation_date              2012-12-11T16:29:33-0500
_audit_creation_method            fapswitch 2.2
_symmetry_space_group_name_H-M    P1
_symmetry_Int_Tables_number       1
_space_group_crystal_system       triclinic
_cell_length_a                    6.951472
_cell_length_b                    17.285969
_cell_length_c                    18.850458
_cell_angle_alpha                 106.061923
_cell_angle_beta                  90.025977
_cell_angle_gamma                 90.478424
_cell_volume                      2176.61817286

loop_
_atom_site_label
_atom_site_type_symbol
_atom_type_description
_atom_site_fract_x
_atom_site_fract_y
_atom_site_fract_z
_atom_type_partial_charge
O1    O     O_R   0.494360 0.415680 0.413760 -0.552855
O2    O     O_R   0.818810 0.432910 0.557230 -0.481198
O3    O     O_R   0.994290 0.584320 0.586240 -0.511006
C1    C     C_R   0.650588 0.418134 0.582456 0.743197
O4    O     O_R   0.823740 0.406440 0.412520 -0.515210
O5    O     O_R   0.999250 0.557660 0.440500 -0.514838
C2    C     C_R   0.653807 0.383500 0.384667 0.744688
O6    O     O_R   0.489400 0.442340 0.559500 -0.535608
O7    O     O_3   0.662500 0.549650 0.509350 -0.369165
V1    V     V_3+5 0.935340 0.490790 0.498270 1.608146
O8    O     O_R   0.329270 0.567090 0.442770 -0.545043
C3    C     C_R   0.161315 0.581806 0.417497 0.728375
O9    O     O_R   0.324340 0.593560 0.587480 -0.558001
C4    C     C_R   0.155925 0.617523 0.614600 0.738097
V2    V     V_3+5 0.435970 0.509210 0.501730 1.449480
O10   O     O_3   0.158940 0.450350 0.490650 -0.342475
H1    H     H_    0.432232 0.865690 0.574622 0.127754
C5    C     C_R   0.065881 0.590607 0.760353 -0.037081
C6    C     C_R   0.973798 0.579688 0.824085 0.180883
C7    C     C_R   0.928018 0.646622 0.881883 -0.147966
C8    C     C_R   0.977620 0.723363 0.879032 -0.194151
C9    C     C_R   0.059271 0.737474 0.815114 0.073440
C10   C     C_R   0.091185 0.670598 0.752112 -0.048240
C11   C     C_R   0.112970 0.816932 0.814719 -0.145023
C12   C     C_R   0.179584 0.832007 0.748280 0.007434
C13   C     C_R   0.194916 0.766459 0.682683 0.044615
C14   C     C_R   0.147954 0.685728 0.683993 -0.164269
C15   C     C_R   0.228663 0.911549 0.743999 0.133706
C16   C     C_R   0.348902 0.920005 0.686362 0.196016
C17   C     C_R   0.363801 0.855992 0.623217 -0.202481
C18   C     C_R   0.261735 0.784953 0.617676 -0.031604
H2    H     H_    0.861378 0.639420 0.931650 0.126056
H3    H     H_    0.948328 0.771469 0.928090 0.122457
C19   C     C_1   0.112048 0.863411 0.132188 -0.194676
C20   C     C_1   0.119862 0.820856 0.175766 0.007616
C21   C     C_1   0.129754 0.770706 0.227698 0.005461
C22   C     C_1   0.138046 0.728357 0.271446 0.035427
C23   C     C_1   0.147217 0.677714 0.322972 0.076121
C24   C     C_1   0.153730 0.634261 0.365793 -0.148282
C25   C     C_1   0.642868 0.367190 0.635417 -0.125520
C26   C     C_1   0.638660 0.324818 0.679173 0.036499
C27   C     C_1   0.634979 0.274519 0.731007 0.012300
C28   C     C_1   0.632095 0.231971 0.774635 0.007572
C29   C     C_1   0.628239 0.181268 0.826126 -0.001778
C30   C     C_1   0.623653 0.137917 0.869047 -0.223336
C31   C     C_R   0.744635 0.403905 0.235997 0.118829
C32   C     C_R   0.845634 0.408469 0.171746 0.059752
C33   C     C_R   0.869821 0.339183 0.113976 -0.249059
C34   C     C_R   0.794607 0.266281 0.118005 -0.150069
C35   C     C_R   0.708883 0.257684 0.183354 0.038576
C36   C     C_R   0.699329 0.326232 0.246224 0.021742
C37   C     C_R   0.626342 0.182741 0.185059 -0.160113
C38   C     C_R   0.549743 0.173318 0.252286 0.047066
C39   C     C_R   0.559549 0.239159 0.317826 0.037679
C40   C     C_R   0.639221 0.315256 0.315490 -0.145880
C41   C     C_R   0.462401 0.099762 0.257457 -0.005914
C42   C     C_R   0.339655 0.101078 0.316237 -0.263248
C43   C     C_R   0.344226 0.165616 0.379507 -0.030093
C44   C     C_R   0.483425 0.226642 0.384216 -0.004762
H4    H     H_    0.941468 0.341946 0.063646 0.118984
H5    H     H_    0.807803 0.216716 0.068783 0.123507
H6    H     H_    0.255174 0.047931 0.316037 0.116231
O11   O     O_R   0.775690 0.057750 0.940570 -0.527690
O12   O     O_R   0.441200 0.093570 0.087490 -0.545037
O13   O     O_R   0.265840 0.942320 0.059480 -0.531863
C45   C     C_R   0.611039 0.116472 0.115031 0.756091
O14   O     O_R   0.446270 0.067110 0.942790 -0.533234
O15   O     O_R   0.270950 0.915660 0.913750 -0.531898
C46   C     C_R   0.615094 0.084700 0.919944 0.697110
O16   O     O_R   0.770580 0.084400 0.086300 -0.516740
O17   O     O_3   0.602640 0.950400 0.990690 -0.354051
V3    V     V_3+5 0.329740 0.009200 0.001730 1.422600
O18   O     O_R   0.940900 0.906360 0.912450 -0.545210
C47   C     C_R   0.108962 0.883032 0.885243 0.700175
O19   O     O_R   0.935830 0.932820 0.057160 -0.500542
C48   C     C_R   0.104128 0.915635 0.080333 0.728881
V4    V     V_3+5 0.829130 0.990680 0.998180 1.465027
O20   O     O_3   0.106100 0.049590 0.009310 -0.365499
C49   C     C_3   0.649795 0.479766 0.282488 -0.692324
H7    H     H_    0.505141 0.465986 0.300772 0.176067
H8    H     H_    0.741987 0.510076 0.330232 0.214864
H9    H     H_    0.619991 0.522785 0.249816 0.222706
C50   C     C_2   0.925104 0.484413 0.161063 0.337641
H10   H     H_    0.965396 0.487270 0.106188 0.046241
O21   O     O_2   0.953754 0.543443 0.213062 -0.540622
C51   C     C_2   0.512423 0.018591 0.210781 0.373145
H11   H     H_    0.404222 0.971336 0.198084 0.042334
O22   O     O_2   0.678561 0.001714 0.192343 -0.531160
C52   C     C_2   0.586683 0.256353 0.455363 0.341545
H12   H     H_    0.510984 0.266183 0.507058 0.086926
O23   O     O_2   0.761654 0.263447 0.456757 -0.508950
C53   C     C_2   0.163088 0.520056 0.710312 0.351907
H13   H     H_    0.311142 0.525833 0.694293 0.033455
O24   O     O_2   0.079825 0.455639 0.686397 -0.523869
C54   C     C_3   0.932008 0.497259 0.833658 -0.717713
H14   H     H_    0.863518 0.500720 0.887677 0.180656
H15   H     H_    0.831512 0.464021 0.789826 0.230241
H16   H     H_    0.067587 0.463062 0.830916 0.219417
C55   C     C_3   0.126807 0.986187 0.789192 -0.735111
H17   H     H_    0.096065 0.028044 0.755506 0.200089
H18   H     H_    0.982394 0.971259 0.806746 0.195732
H19   H     H_    0.215448 0.018532 0.837040 0.221093
C56   C     C_3   0.448234 0.998481 0.688463 -0.755897
H20   H     H_    0.551843 0.991324 0.642280 0.208304
H21   H     H_    0.342885 0.044837 0.684290 0.214131
H22   H     H_    0.530679 0.019479 0.740645 0.209414
C57   C     C_2   0.195185 0.743350 0.542922 0.345091
H23   H     H_    0.293107 0.735660 0.496775 0.030249
O25   O     O_2   0.025647 0.725013 0.531662 -0.535140
C58   C     C_2   0.217995 0.161947 0.441968 0.405079
H24   H     H_    0.151979 0.105172 0.443137 0.053408
O26   O     O_2   0.178590 0.222551 0.490760 -0.505827

loop_
_geom_bond_atom_site_label_1
_geom_bond_atom_site_label_2
_ccdc_geom_bond_type
C26   C27   S    
C54   H14   S    
C2    C40   S    
C28   C29   S    
C54   H16   S    
C37   C45   S    
C42   H6    S    
C45   O16   A    
C38   C39   A    
C29   C30   T    
C12   C15   A    
C13   C14   A    
C16   C17   A    
O13   C48   A    
C50   H10   S    
C15   C16   A    
O14   V3    S    
C44   C52   S    
C17   C18   A    
C19   C20   T    
C51   O22   D    
C8    H3    S    
O15   C47   A    
V2    O10   S    
C41   C42   A    
C16   C56   S    
C5    C6    A    
O18   C47   A    
C58   H24   S    
V3    O20   S    
C31   C32   A    
O8    V2    S    
C1    C25   S    
C35   C37   A    
C57   H23   S    
O1    V2    S    
C10   C14   A    
C4    C14   S    
C52   O23   D    
O7    V1    S    
C1    O6    A    
C13   C18   A    
O1    C2    A    
O9    C4    A    
O16   V4    S    
H1    C17   S    
C57   O25   D    
C7    H2    S    
C33   H4    S    
C39   C44   A    
C23   C24   T    
C34   H5    S    
C30   C46   S    
C5    C10   A    
C32   C33   A    
O11   C46   A    
C11   C12   A    
C49   H8    S    
C51   H11   S    
C43   C44   A    
V4    O20   S    
C31   C36   A    
O14   C46   A    
C20   C21   S    
O12   C45   A    
O2    C1    A    
O19   C48   A    
C22   C23   S    
C41   C51   S    
C55   H17   S    
O15   V3    S    
C53   O24   D    
C35   C36   A    
C56   H21   S    
O19   V4    S    
O3    C4    A    
C15   C55   S    
C33   C34   A    
C55   H18   S    
O6    V2    S    
C32   C50   S    
O9    V2    S    
C9    C11   A    
C27   C28   T    
O2    V1    S    
O17   V4    S    
C6    C54   S    
C37   C38   A    
O4    C2    A    
O11   V4    S    
C38   C41   A    
C39   C40   A    
C25   C26   T    
C50   O21   D    
C43   C58   S    
C18   C57   S    
O5    V1    S    
C49   H9    S    
O8    C3    A    
C54   H15   S    
O13   V3    S    
C5    C53   S    
C6    C7    A    
C12   C13   A    
O4    V1    S    
O3    V1    S    
V1    O10   S    
O5    C3    A    
C11   C47   S    
C42   C43   A    
C31   C49   S    
C3    C24   S    
C53   H13   S    
C56   H22   S    
C36   C40   A    
O12   V3    S    
O7    V2    S    
C58   O26   D    
C49   H7    S    
O17   V3    S    
C55   H19   S    
C7    C8    A    
C21   C22   T    
C34   C35   A    
C56   H20   S    
O18   V4    S    
C9    C10   A    
C52   H12   S    
C8    C9    A    
C19   C48   S    
