data_mof_unit_52289.cif
_audit_creation_date              2012-12-10T20:43:24-0500
_audit_creation_method            fapswitch 2.2
_symmetry_space_group_name_H-M    P1
_symmetry_Int_Tables_number       1
_space_group_crystal_system       triclinic
_cell_length_a                    15.809283
_cell_length_b                    10.623315
_cell_length_c                    9.965906
_cell_angle_alpha                 90.92405
_cell_angle_beta                  89.734158
_cell_angle_gamma                 90.80889
_cell_volume                      1673.34320982

loop_
_atom_site_label
_atom_site_type_symbol
_atom_type_description
_atom_site_fract_x
_atom_site_fract_y
_atom_site_fract_z
_atom_type_partial_charge
Br1   Br    Br    0.104654 0.231032 0.538528 -0.315573
Br2   Br    Br    0.700981 0.148628 0.425083 -0.391695
Br3   Br    Br    0.642594 0.668737 0.162024 -0.282489
Br4   Br    Br    0.314483 0.627819 0.143849 -0.378503
Br5   Br    Br    0.898087 0.770626 0.461838 -0.261952
Br6   Br    Br    0.109701 0.768551 0.461348 -0.250093
Br7   Br    Br    0.333664 0.149971 0.357918 -0.247257
C1    C     C_R   0.498890 0.260713 0.499202 0.949092
C2    C     C_R   0.423058 0.932256 0.444068 0.428561
C3    C     C_R   0.490854 0.870636 0.506445 -0.305990
C4    C     C_R   0.339669 0.499641 0.500236 0.882531
C5    C     C_R   0.550005 0.938163 0.581836 -0.032845
C6    C     C_3   0.644845 0.930467 0.587370 0.760021
C7    C     C_3   0.646846 0.074974 0.582949 0.467015
C8    C     C_R   0.438528 0.436589 0.070180 0.067456
C9    C     C_R   0.561098 0.562196 0.072166 0.317604
C10   C     C_R   0.561241 0.562580 0.929669 0.415154
C11   C     C_R   0.440024 0.432979 0.928075 -0.102463
C12   C     C_R   0.042696 0.385195 0.515946 0.151383
C13   C     C_3   0.345696 0.448720 0.921192 0.699329
C14   C     C_3   0.345053 0.460611 0.074306 0.484718
C15   C     C_R   0.498578 0.739124 0.501200 0.926883
C16   C     C_R   0.660353 0.500543 0.499789 0.920032
C17   C     C_R   0.953775 0.386091 0.515392 0.403537
C18   C     C_R   0.912943 0.501091 0.499166 -0.110048
C19   C     C_R   0.957647 0.614753 0.483323 0.189233
C20   C     C_R   0.045739 0.613847 0.483507 0.231109
C21   C     C_R   0.087203 0.499345 0.499974 -0.132789
C22   C     C_1   0.823710 0.501519 0.499069 0.203056
C23   C     C_1   0.176383 0.499223 0.500510 0.174852
C24   C     C_1   0.251305 0.499349 0.500689 -0.022370
C25   C     C_1   0.748771 0.501211 0.499260 -0.026156
C26   C     C_R   0.551938 0.066273 0.577560 -0.108151
C27   C     C_R   0.494073 0.128624 0.499532 -0.255897
C28   C     C_R   0.425391 0.063374 0.440473 0.277782
H1    H     H_    0.601941 0.656562 0.779355 0.402531
H2    H     H_    0.360457 0.625617 0.867823 0.338413
H3    H     H_    0.319164 0.330043 0.777453 0.366723
H4    H     H_    0.240027 0.382191 0.128721 0.382454
H5    H     H_    0.940242 0.203937 0.539408 0.402665
H6    H     H_    0.353323 0.781172 0.416133 0.343560
H7    H     H_    0.734544 0.889176 0.709025 0.399063
H8    H     H_    0.651301 0.891219 0.393799 0.353399
H9    H     H_    0.664072 0.222344 0.695866 0.362147
N1    N     N_R   0.499440 0.499140 0.142800 -0.176907
N2    N     N_R   0.499440 0.499180 0.857150 -0.204624
O1    O     O_R   0.500010 0.316790 0.614690 -0.611420
O2    O     O_3   0.317773 0.557041 0.855380 -0.701151
O3    O     O_3   0.304129 0.339248 0.873803 -0.654730
O4    O     O_3   0.300901 0.362627 0.137292 -0.643252
O5    O     O_3   0.904344 0.278517 0.530428 -0.673584
O6    O     O_3   0.355501 0.869088 0.384947 -0.637517
O7    O     O_3   0.671900 0.881781 0.709591 -0.656334
O8    O     O_3   0.681910 0.867851 0.476299 -0.721065
O9    O     O_3   0.674775 0.130949 0.703532 -0.665639
O10   O     O_R   0.500000 0.316760 0.385350 -0.568375
O11   O     O_R   0.378030 0.499990 0.614640 -0.603604
O12   O     O_R   0.378020 0.499950 0.385300 -0.569333
O13   O     O_R   0.500000 0.683240 0.614650 -0.628644
O14   O     O_R   0.499990 0.683210 0.385310 -0.577889
O15   O     O_R   0.621980 0.500050 0.614700 -0.625622
O16   O     O_R   0.621970 0.500010 0.385360 -0.570513
O17   O     O_3   0.623214 0.632810 0.867589 -0.664563
Zn1   Zn    Zn3+2 0.500010 0.500020 0.653130 0.999587
Zn2   Zn    Zn3+2 0.499990 0.499980 0.346870 1.079146

loop_
_geom_bond_atom_site_label_1
_geom_bond_atom_site_label_2
_ccdc_geom_bond_type
C9    N1    A    
O15   Zn1   S    
C10   N2    A    
O1    Zn1   S    
C13   O3    S    
C12   C21   A    
C8    C11   A    
H1    O17   S    
C2    C3    A    
H6    O6    S    
C11   C13   S    
Br6   C20   S    
C16   O15   A    
C16   C25   S    
C1    O10   A    
C17   O5    S    
C21   C23   S    
C7    O9    S    
C19   C20   A    
C1    O1    A    
C4    C24   S    
H7    O7    S    
H3    O3    S    
C1    C27   S    
C6    C7    S    
C3    C15   S    
H2    O2    S    
C15   O14   A    
Br4   C14   S    
H9    O9    S    
O13   Zn1   S    
C13   O2    S    
C2    O6    S    
C3    C5    A    
C7    C26   S    
C27   C28   A    
C11   N2    A    
C14   O4    S    
C12   C17   A    
O14   Zn2   S    
C26   C27   A    
C22   C25   T    
C6    O7    S    
C5    C26   A    
C18   C22   S    
C23   C24   T    
Br2   C7    S    
H8    O8    S    
Br1   C12   S    
C8    N1    A    
O10   Zn2   S    
C4    O12   A    
C13   C14   S    
C8    C14   S    
H4    O4    S    
C17   C18   A    
O11   Zn1   S    
H5    O5    S    
C6    O8    S    
C15   O13   A    
C2    C28   A    
O12   Zn2   S    
O16   Zn2   S    
C5    C6    S    
C18   C19   A    
C4    O11   A    
N1    Zn2   S    
Br7   C28   S    
C16   O16   A    
C10   O17   S    
Br3   C9    S    
Br5   C19   S    
N2    Zn1   S    
C9    C10   A    
C20   C21   A    
