data_mof_unit_54739.cif
_audit_creation_date              2012-12-10T17:16:49-0500
_audit_creation_method            fapswitch 2.2
_symmetry_space_group_name_H-M    P1
_symmetry_Int_Tables_number       1
_space_group_crystal_system       triclinic
_cell_length_a                    23.490945
_cell_length_b                    13.02963
_cell_length_c                    11.650539
_cell_angle_alpha                 100.166842
_cell_angle_beta                  93.338581
_cell_angle_gamma                 90.863498
_cell_volume                      3502.86090409

loop_
_atom_site_label
_atom_site_type_symbol
_atom_type_description
_atom_site_fract_x
_atom_site_fract_y
_atom_site_fract_z
_atom_type_partial_charge
C1    C     C_R   0.498792 0.298659 0.477995 0.851441
C2    C     C_R   0.704413 0.581935 0.537662 -0.264230
C3    C     C_R   0.237357 0.437550 0.403697 -0.101284
C4    C     C_R   0.763513 0.579436 0.534520 -0.093591
C5    C     C_R   0.208454 0.493552 0.494899 0.323626
C6    C     C_R   0.789866 0.486469 0.490439 0.321834
C7    C     C_R   0.502135 0.814844 0.536011 -0.209770
C8    C     C_R   0.494913 0.184489 0.464670 -0.175578
C9    C     C_R   0.472527 0.013159 0.347560 0.080206
C10   C     C_R   0.511930 0.986240 0.659644 0.085551
C11   C     C_R   0.484208 0.120382 0.354546 0.397717
C12   C     C_R   0.502086 0.701076 0.521860 0.823508
C13   C     C_R   0.520182 0.878215 0.642832 0.430398
C14   C     C_R   0.501364 0.140215 0.565051 -0.331778
C15   C     C_R   0.483372 0.859982 0.441378 -0.319925
C16   C     C_R   0.390888 0.502041 0.501152 0.804638
C17   C     C_R   0.608853 0.498328 0.499037 0.791598
C18   C     C_R   0.498356 0.032377 0.559487 0.021602
C19   C     C_R   0.483890 0.968140 0.449028 0.062790
C20   C     C_R   0.438559 0.416160 0.024293 0.367595
C21   C     C_R   0.557929 0.591158 0.976886 0.345670
C22   C     C_R   0.445334 0.424026 0.146567 0.034176
C23   C     C_R   0.239079 0.555263 0.589477 -0.130669
C24   C     C_R   0.552299 0.581304 0.854397 0.023611
C25   C     C_R   0.527131 0.534127 0.155866 0.002269
C26   C     C_R   0.472842 0.465463 0.843931 0.006654
C27   C     C_R   0.521537 0.531619 0.033597 -0.101641
C28   C     C_R   0.477360 0.470087 0.966653 -0.112132
C29   C     C_R   0.877335 0.533159 0.410358 0.535703
C30   C     C_R   0.120728 0.438451 0.567510 0.536339
C31   C     C_R   0.881153 0.434150 0.564789 0.537812
C32   C     C_R   0.116887 0.536814 0.412506 0.537850
C33   C     C_R   0.940903 0.432965 0.566005 -0.017334
C34   C     C_R   0.756809 0.395681 0.449649 -0.126208
C35   C     C_R   0.057073 0.535661 0.409228 -0.017642
C36   C     C_R   0.968929 0.483712 0.487219 -0.017223
C37   C     C_R   0.029042 0.484702 0.487823 -0.017300
C38   C     C_R   0.936998 0.533977 0.408278 -0.017400
C39   C     C_R   0.060996 0.435250 0.567479 -0.016893
C40   C     C_R   0.973172 0.383209 0.644470 -0.161961
C41   C     C_R   0.024788 0.584837 0.330248 -0.161318
C42   C     C_R   0.032599 0.384385 0.645240 -0.160773
C43   C     C_R   0.965372 0.584044 0.329813 -0.160820
C44   C     C_3   0.399226 0.259860 0.928899 0.046406
C45   C     C_R   0.298930 0.561839 0.594585 0.115386
C46   C     C_3   0.376100 0.197443 0.016060 -0.811413
C47   C     C_3   0.574295 0.754871 0.078505 0.028817
C48   C     C_3   0.618519 0.828911 0.151596 -0.771842
C49   C     C_3   0.329029 0.635072 0.696641 -0.390675
C50   C     C_3   0.354368 0.731435 0.658366 -0.780000
C51   C     C_3   0.663193 0.296513 0.410996 -0.443594
C52   C     C_3   0.648940 0.244911 0.513999 -0.816990
C53   C     C_3   0.607598 0.835121 0.710608 0.042118
C54   C     C_3   0.642772 0.841837 0.825726 -0.797866
C55   C     C_3   0.539005 0.144203 0.205927 0.042343
C56   C     C_R   0.697184 0.397058 0.452086 0.127520
C57   C     C_3   0.551289 0.224395 0.129666 -0.778157
C58   C     C_3   0.448003 0.949611 0.232084 -0.418683
C59   C     C_3   0.385882 0.916508 0.240250 -0.792052
C60   C     C_3   0.519243 0.046135 0.785143 -0.362165
C61   C     C_3   0.474428 0.010177 0.860737 -0.835309
C62   C     C_R   0.328188 0.502822 0.502329 -0.054778
C63   C     C_R   0.670889 0.491765 0.496274 -0.031074
C64   C     C_R   0.296637 0.442186 0.407316 -0.253484
Cu1   Cu    Cu3+1 0.504210 0.507730 0.615930 0.944726
Cu2   Cu    Cu3+1 0.495790 0.492270 0.384070 0.941116
H1    H     H_    0.952653 0.343601 0.705855 0.188979
H2    H     H_    0.777833 0.323932 0.416768 0.139776
H3    H     H_    0.318019 0.396879 0.336058 0.162402
H4    H     H_    0.684846 0.654680 0.571213 0.127282
H5    H     H_    0.213785 0.389852 0.330197 0.150921
H6    H     H_    0.788954 0.649752 0.566550 0.145204
H7    H     H_    0.471013 0.809043 0.359978 0.196267
H8    H     H_    0.512490 0.191971 0.645818 0.179030
H9    H     H_    0.444606 0.241072 0.913559 0.122365
H10   H     H_    0.375040 0.234282 0.843596 0.184519
H11   H     H_    0.332485 0.222651 0.037884 0.264541
H12   H     H_    0.045306 0.624465 0.268878 0.189309
H13   H     H_    0.374043 0.113127 0.977891 0.213337
H14   H     H_    0.404316 0.208597 0.097100 0.264858
H15   H     H_    0.538282 0.745722 0.134223 0.134182
H16   H     H_    0.558281 0.790783 0.003203 0.166297
H17   H     H_    0.654905 0.841472 0.098513 0.256945
H18   H     H_    0.598996 0.905127 0.182614 0.181107
H19   H     H_    0.634415 0.795740 0.228596 0.254316
H20   H     H_    0.385629 0.709608 0.591214 0.243502
H21   H     H_    0.319937 0.776038 0.621891 0.248911
H22   H     H_    0.376494 0.782545 0.734834 0.240401
H23   H     H_    0.439638 0.417836 0.790763 0.164985
H24   H     H_    0.298602 0.662722 0.764378 0.198876
H25   H     H_    0.362259 0.594179 0.741349 0.232122
H26   H     H_    0.688748 0.227449 0.562352 0.267517
H27   H     H_    0.622537 0.296537 0.574612 0.259761
H28   H     H_    0.624732 0.170618 0.481548 0.229011
H29   H     H_    0.623402 0.311295 0.361310 0.214616
H30   H     H_    0.687748 0.241017 0.350215 0.203611
H31   H     H_    0.622101 0.901789 0.669932 0.126065
H32   H     H_    0.616892 0.761323 0.652200 0.143341
H33   H     H_    0.635229 0.771759 0.864694 0.261043
H34   H     H_    0.560994 0.580226 0.208696 0.179858
H35   H     H_    0.688847 0.846946 0.810282 0.211281
H36   H     H_    0.631562 0.912135 0.888205 0.240191
H37   H     H_    0.538734 0.065390 0.150757 0.136298
H38   H     H_    0.574850 0.149255 0.273980 0.133859
H39   H     H_    0.555830 0.303400 0.183919 0.264123
H40   H     H_    0.591615 0.205868 0.086112 0.197587
H41   H     H_    0.516151 0.223885 0.061922 0.235232
H42   H     H_    0.381414 0.867843 0.308428 0.254802
H43   H     H_    0.359465 0.986601 0.261046 0.258267
H44   H     H_    0.369393 0.870514 0.155026 0.240017
H45   H     H_    0.581102 0.624005 0.810194 0.157107
H46   H     H_    0.448064 0.994853 0.159925 0.235061
H47   H     H_    0.474330 0.880962 0.203918 0.175336
H48   H     H_    0.430967 0.020282 0.822134 0.244629
H49   H     H_    0.479420 0.927190 0.868791 0.280744
H50   H     H_    0.479012 0.057303 0.949996 0.236113
H51   H     H_    0.562473 0.033617 0.823075 0.217000
H52   H     H_    0.515454 0.131185 0.794547 0.175121
H53   H     H_    0.414508 0.385985 0.191424 0.155605
H54   H     H_    0.056179 0.345649 0.707197 0.189504
H55   H     H_    0.941801 0.623079 0.268119 0.189748
H56   H     H_    0.215704 0.599567 0.658247 0.138345
N1    N     N_R   0.850788 0.484107 0.488099 -0.465028
N2    N     N_R   0.147326 0.489007 0.491101 -0.464644
N3    N     N_R   0.510550 0.519360 0.790130 -0.212119
N4    N     N_R   0.489450 0.480640 0.209870 -0.223741
O1    O     O_R   0.502990 0.354470 0.582000 -0.601661
O2    O     O_2   0.152031 0.391242 0.642965 -0.535652
O3    O     O_2   0.853604 0.386795 0.640374 -0.536728
O4    O     O_2   0.144475 0.586259 0.338754 -0.534741
O5    O     O_3   0.390062 0.367501 0.964542 -0.591127
O6    O     O_3   0.599457 0.658042 0.039500 -0.581375
O7    O     O_3   0.548663 0.836165 0.730521 -0.577599
O8    O     O_3   0.485237 0.163059 0.253858 -0.585619
O9    O     O_R   0.497010 0.645530 0.418000 -0.592824
O10   O     O_R   0.495870 0.341410 0.386200 -0.534401
O11   O     O_R   0.504130 0.658590 0.613800 -0.538393
O12   O     O_R   0.421440 0.506500 0.597920 -0.586812
O13   O     O_R   0.578560 0.493500 0.402080 -0.594595
O14   O     O_R   0.414320 0.493440 0.402120 -0.585584
O15   O     O_R   0.585680 0.506560 0.597880 -0.582093
O16   O     O_2   0.846032 0.580670 0.335183 -0.533962

loop_
_geom_bond_atom_site_label_1
_geom_bond_atom_site_label_2
_ccdc_geom_bond_type
C57   H39   S    
C34   C56   A    
C23   C45   A    
C48   H18   S    
C1    C8    S    
C14   C18   A    
C54   H35   S    
C10   C60   S    
C49   H24   S    
C59   H44   S    
C32   O4    S    
C53   C54   S    
C26   H23   S    
C15   C19   A    
C5    N2    S    
C58   H46   S    
Cu1   O1    S    
C36   C37   A    
C35   C37   A    
C51   C56   S    
C46   H13   S    
C22   N4    A    
C29   O16   S    
C55   H37   S    
C45   C62   A    
C33   C36   A    
C17   O15   A    
C9    C58   S    
C47   H16   S    
C44   H10   S    
C32   N2    A    
C62   C64   A    
C9    C19   A    
Cu2   O13   S    
C12   O9    A    
C29   C38   A    
C61   H49   S    
C58   H47   S    
C31   C33   A    
C60   H52   S    
C23   H56   S    
C1    O10   A    
C43   H55   S    
C50   H22   S    
C51   H30   S    
Cu1   O11   S    
C40   C42   A    
C57   H40   S    
C21   C27   A    
C41   C43   A    
C16   O14   A    
C24   H45   S    
C16   C62   S    
C6    N1    S    
C49   H25   S    
C44   C46   S    
C39   C42   A    
C22   H53   S    
C30   O2    S    
C33   C40   A    
C51   C52   S    
C32   C35   A    
C60   H51   S    
C53   O7    S    
C4    C6    A    
C11   O8    S    
C34   H2    S    
C41   H12   S    
C18   C19   A    
C20   C28   A    
C53   H31   S    
C58   C59   S    
C3    C64   A    
C55   H38   S    
C40   H1    S    
Cu2   N4    S    
C60   C61   S    
C44   O5    S    
C26   N3    A    
Cu1   N3    S    
C44   H9    S    
C3    H5    S    
C25   N4    A    
C21   O6    S    
Cu1   O15   S    
C25   H34   S    
C47   C48   S    
C5    C23   A    
C45   C49   S    
C61   H50   S    
C56   C63   A    
C52   H27   S    
C17   O13   A    
C64   H3    S    
C52   H28   S    
C9    C11   A    
C50   H21   S    
Cu2   O10   S    
Cu1   O12   S    
C57   H41   S    
C30   N2    A    
C49   C50   S    
C55   C57   S    
C24   N3    A    
C54   H33   S    
C52   H26   S    
C20   O5    S    
C14   H8    S    
C4    H6    S    
C2    C63   A    
C8    C14   A    
C15   H7    S    
C48   H19   S    
C13   O7    S    
C54   H36   S    
C16   O12   A    
C1    O1    A    
C20   C22   A    
C3    C5    A    
C10   C13   A    
C46   H11   S    
C53   H32   S    
C25   C27   A    
C55   O8    S    
C26   C28   A    
C59   H42   S    
C48   H17   S    
C47   O6    S    
C36   C38   A    
C31   N1    A    
C38   C43   A    
C31   O3    S    
C17   C63   S    
C46   H14   S    
C42   H54   S    
C10   C18   A    
C8    C11   A    
C2    C4    A    
C29   N1    A    
C7    C15   A    
C59   H43   S    
C30   C39   A    
C47   H15   S    
C35   C41   A    
C50   H20   S    
Cu2   O9    S    
C6    C34   A    
C7    C13   A    
Cu2   O14   S    
C37   C39   A    
Cu1   Cu2   S    
C21   C24   A    
C61   H48   S    
C12   O11   A    
C7    C12   S    
C2    H4    S    
C51   H29   S    
C27   C28   A    
