data_mof_unit_39688.cif
_audit_creation_date              2012-12-11T14:04:03-0500
_audit_creation_method            fapswitch 2.2
_symmetry_space_group_name_H-M    P1
_symmetry_Int_Tables_number       1
_space_group_crystal_system       triclinic
_cell_length_a                    18.926137
_cell_length_b                    10.996038
_cell_length_c                    18.915391
_cell_angle_alpha                 90.045882
_cell_angle_beta                  89.492187
_cell_angle_gamma                 89.581019
_cell_volume                      3936.26838554

loop_
_atom_site_label
_atom_site_type_symbol
_atom_type_description
_atom_site_fract_x
_atom_site_fract_y
_atom_site_fract_z
_atom_type_partial_charge
C1    C     C_R   0.238953 0.469723 0.645397 0.559357
C2    C     C_R   0.773757 0.517906 0.361471 0.556101
C3    C     C_R   0.738953 0.969723 0.645397 0.559364
C4    C     C_R   0.273755 0.017901 0.361471 0.556097
C5    C     C_2   0.283017 0.854482 0.536053 -0.164237
C6    C     C_2   0.704562 0.856024 0.460910 -0.174841
C7    C     C_2   0.783002 0.354470 0.536048 -0.164182
C8    C     C_2   0.204562 0.356024 0.460911 -0.174837
C9    C     C_R   0.004755 0.653370 0.425154 -0.026052
C10   C     C_R   0.998056 0.671304 0.573771 -0.029722
C11   C     C_R   0.504756 0.153365 0.425152 -0.026041
C12   C     C_R   0.498064 0.171314 0.573767 -0.029717
C13   C     C_R   0.050371 0.859682 0.416913 -0.070641
C14   C     C_R   0.028243 0.892081 0.561349 -0.038653
C15   C     C_R   0.550391 0.359661 0.416898 -0.070637
C16   C     C_R   0.528293 0.392077 0.561336 -0.038669
C17   C     C_R   0.070544 0.967467 0.449112 -0.108356
C18   C     C_R   0.058077 0.984746 0.520860 -0.097062
C19   C     C_R   0.570583 0.467441 0.449090 -0.108337
C20   C     C_R   0.558137 0.484725 0.520840 -0.097084
C21   C     C_R   0.015584 0.775802 0.531851 -0.001449
C22   C     C_R   0.022092 0.763726 0.457415 0.003843
C23   C     C_R   0.515609 0.275802 0.531844 -0.001472
C24   C     C_R   0.522108 0.263719 0.457407 0.003835
C25   C     C_R   0.979057 0.562494 0.539553 -0.003064
C26   C     C_R   0.995971 0.547932 0.468161 -0.011968
C27   C     C_R   0.479051 0.062510 0.539553 -0.003074
C28   C     C_R   0.495966 0.047934 0.468162 -0.011965
C29   C     C_R   0.950533 0.463273 0.577202 -0.111439
C30   C     C_R   0.001876 0.428049 0.441518 -0.070379
C31   C     C_R   0.450523 0.963300 0.577208 -0.111413
C32   C     C_R   0.501867 0.928044 0.441526 -0.070391
C33   C     C_R   0.951435 0.345172 0.549506 -0.017196
C34   C     C_R   0.976419 0.327275 0.479390 0.015100
C35   C     C_R   0.451441 0.845192 0.549527 -0.017174
C36   C     C_R   0.476425 0.827276 0.479414 0.015102
C37   C     C_2   0.209157 0.818093 0.936009 -0.042738
C38   C     C_2   0.758074 0.895726 0.076725 -0.011621
C39   C     C_2   0.709158 0.318094 0.936009 -0.042742
C40   C     C_2   0.258073 0.395729 0.076726 -0.011625
C41   C     C_2   0.253149 0.916468 0.078456 0.222794
C42   C     C_2   0.741002 0.928251 0.923482 0.211586
C43   C     C_2   0.753150 0.416470 0.078456 0.222786
C44   C     C_2   0.241003 0.428250 0.923482 0.211583
C45   C     C_R   0.228360 0.877101 0.649524 0.558816
C46   C     C_R   0.772278 0.875148 0.352036 0.554854
C47   C     C_R   0.728360 0.377102 0.649524 0.558810
C48   C     C_R   0.272278 0.375148 0.352036 0.554855
C49   C     C_2   0.187909 0.887987 0.056655 -0.149642
C50   C     C_2   0.778149 0.999487 0.968047 -0.176972
C51   C     C_2   0.687909 0.387994 0.056654 -0.149640
C52   C     C_2   0.278153 0.499483 0.968046 -0.176972
C53   C     C_2   0.168357 0.883043 0.981793 -0.000716
C54   C     C_2   0.770647 0.000516 0.044598 -0.024692
C55   C     C_2   0.668359 0.383049 0.981792 -0.000718
C56   C     C_2   0.270651 0.500515 0.044597 -0.024696
C57   C     C_2   0.008413 0.656399 0.925630 -0.066238
C58   C     C_2   0.007885 0.662511 0.082276 -0.099461
C59   C     C_2   0.508412 0.156399 0.925630 -0.066238
C60   C     C_2   0.507884 0.162510 0.082275 -0.099458
C61   C     C_2   0.017934 0.562470 0.043510 -0.103479
C62   C     C_2   0.031529 0.566768 0.968138 -0.125358
C63   C     C_2   0.517930 0.062469 0.043509 -0.103476
C64   C     C_2   0.531526 0.066766 0.968137 -0.125356
C65   C     C_R   0.028391 0.656864 0.645584 0.531949
C66   C     C_R   0.972535 0.653106 0.353814 0.517871
C67   C     C_R   0.528394 0.156866 0.645582 0.531946
C68   C     C_R   0.472534 0.153105 0.353814 0.517872
C69   C     C_R   0.238090 0.467320 0.851107 0.579422
C70   C     C_R   0.761534 0.465695 0.149039 0.612643
C71   C     C_R   0.738089 0.967320 0.851107 0.579417
C72   C     C_R   0.261534 0.965695 0.149039 0.612644
C73   C     C_R   0.205240 0.820102 0.858739 0.588333
C74   C     C_R   0.772227 0.873845 0.148609 0.599173
C75   C     C_R   0.705240 0.320102 0.858739 0.588326
C76   C     C_R   0.272227 0.373846 0.148609 0.599169
C77   C     C_R   0.031040 0.651896 0.852181 0.552985
C78   C     C_R   0.971774 0.652394 0.149845 0.564381
C79   C     C_R   0.531040 0.151896 0.852181 0.552984
C80   C     C_R   0.471774 0.152394 0.149845 0.564382
C81   C     C_2   0.254367 0.928959 0.584629 -0.112231
C82   C     C_2   0.749224 0.920965 0.420667 -0.103747
C83   C     C_2   0.754366 0.428956 0.584628 -0.112233
C84   C     C_2   0.249224 0.420965 0.420667 -0.103742
C85   C     C_2   0.263467 0.984758 0.434568 -0.099938
C86   C     C_2   0.751058 0.915792 0.576015 -0.114876
C87   C     C_2   0.763471 0.484770 0.434568 -0.099944
C88   C     C_2   0.251058 0.415792 0.576015 -0.114886
C89   C     C_2   0.299371 0.893962 0.464411 -0.144788
C90   C     C_2   0.696078 0.881147 0.536434 -0.171102
C91   C     C_2   0.799359 0.393947 0.464407 -0.144766
C92   C     C_2   0.196078 0.381147 0.536434 -0.171092
Cr1   Cr    Cr6+3 0.113970 0.508630 0.747920 1.060204
Cr2   Cr    Cr6+3 0.886030 0.508630 0.252080 1.089203
Cr3   Cr    Cr6+3 0.613970 0.008630 0.747920 1.060254
Cr4   Cr    Cr6+3 0.386030 0.008630 0.252080 1.089191
Cr5   Cr    Cr6+3 0.269200 0.666740 0.749850 1.041905
Cr6   Cr    Cr6+3 0.730800 0.666740 0.250150 1.055134
Cr7   Cr    Cr6+3 0.769200 0.166740 0.749850 1.041906
Cr8   Cr    Cr6+3 0.230800 0.166740 0.250150 1.055151
Cr9   Cr    Cr6+3 0.112300 0.820070 0.749800 1.076474
Cr10  Cr    Cr6+3 0.887700 0.820070 0.250200 1.067460
Cr11  Cr    Cr6+3 0.612300 0.320070 0.749800 1.076511
Cr12  Cr    Cr6+3 0.387700 0.320070 0.250200 1.067467
H1    H     H_    0.336472 0.839412 0.433748 0.164145
H2    H     H_    0.643306 0.873235 0.558987 0.169206
H3    H     H_    0.836446 0.339376 0.433739 0.164138
H4    H     H_    0.143306 0.373235 0.558987 0.169175
H5    H     H_    0.250849 0.761231 0.957183 0.107366
H6    H     H_    0.755664 0.811485 0.047566 0.167417
H7    H     H_    0.750848 0.261231 0.957183 0.107365
H8    H     H_    0.255658 0.311486 0.047568 0.167425
H9    H     H_    0.012430 0.472411 0.066442 0.195440
H10   H     H_    0.059276 0.488287 0.946633 0.216239
H11   H     H_    0.512424 0.972411 0.066441 0.195440
H12   H     H_    0.559271 0.988281 0.946632 0.216238
H13   H     H_    0.016495 0.752467 0.060238 0.102847
H14   H     H_    0.980154 0.735525 0.945768 0.142538
H15   H     H_    0.516497 0.252465 0.060238 0.102853
H16   H     H_    0.480155 0.235527 0.945768 0.142546
H17   H     H_    0.292375 0.759055 0.547926 0.160119
H18   H     H_    0.674983 0.780688 0.439060 0.156167
H19   H     H_    0.792348 0.259039 0.547919 0.160240
H20   H     H_    0.174984 0.280687 0.439061 0.156165
H21   H     H_    0.221465 0.032352 0.462754 0.091664
H22   H     H_    0.804036 0.919966 0.553518 0.128773
H23   H     H_    0.721481 0.532387 0.462758 0.091638
H24   H     H_    0.304036 0.419966 0.553518 0.128694
H25   H     H_    0.243543 0.024314 0.574464 0.100887
H26   H     H_    0.776909 0.998468 0.442544 0.116444
H27   H     H_    0.743552 0.524314 0.574466 0.100880
H28   H     H_    0.276909 0.498468 0.442544 0.116419
H29   H     H_    0.094524 0.038855 0.418017 0.170505
H30   H     H_    0.070872 0.070956 0.545098 0.146671
H31   H     H_    0.594562 0.538822 0.417988 0.170521
H32   H     H_    0.570951 0.570929 0.545074 0.146763
H33   H     H_    0.060435 0.849358 0.360777 0.139861
H34   H     H_    0.014208 0.914528 0.615218 0.177366
H35   H     H_    0.560444 0.349331 0.360760 0.139858
H36   H     H_    0.514268 0.414540 0.615206 0.177472
H37   H     H_    0.026064 0.412382 0.390244 0.189788
H38   H     H_    0.929947 0.477481 0.630292 0.121802
H39   H     H_    0.526048 0.912364 0.390250 0.189784
H40   H     H_    0.429936 0.977518 0.630297 0.121808
H41   H     H_    0.144601 0.888956 0.094905 0.105139
H42   H     H_    0.812536 0.069868 0.947206 0.129596
H43   H     H_    0.644599 0.388967 0.094903 0.105147
H44   H     H_    0.312542 0.569861 0.947204 0.129600
O1    O     O_R   0.043230 0.549300 0.667990 -0.514272
O2    O     O_R   0.956770 0.549300 0.332010 -0.529400
O3    O     O_R   0.543230 0.049300 0.667990 -0.514243
O4    O     O_R   0.456770 0.049300 0.332010 -0.529413
O5    O     O_R   0.262920 0.788600 0.824420 -0.492944
O6    O     O_R   0.737080 0.788600 0.175580 -0.499589
O7    O     O_R   0.762920 0.288600 0.824420 -0.492951
O8    O     O_R   0.237080 0.288600 0.175580 -0.499591
O9    O     O_R   0.167530 0.905110 0.830340 -0.432068
O10   O     O_R   0.832470 0.905110 0.169660 -0.479344
O11   O     O_R   0.667530 0.405110 0.830340 -0.432071
O12   O     O_R   0.332470 0.405110 0.169660 -0.479337
O13   O     O_R   0.054010 0.748440 0.822860 -0.469012
O14   O     O_R   0.945990 0.748440 0.177140 -0.503004
O15   O     O_R   0.554010 0.248440 0.822860 -0.469007
O16   O     O_R   0.445990 0.248440 0.177140 -0.503003
O17   O     O_3   0.165160 0.665150 0.749190 -0.302308
O18   O     O_3   0.834840 0.665150 0.250810 -0.289568
O19   O     O_3   0.665160 0.165150 0.749190 -0.302324
O20   O     O_3   0.334840 0.165150 0.250810 -0.289568
O21   O     O_R   0.178620 0.457600 0.674100 -0.494773
O22   O     O_R   0.821380 0.457600 0.325900 -0.484380
O23   O     O_R   0.678620 0.957600 0.674100 -0.494773
O24   O     O_R   0.321380 0.957600 0.325900 -0.484380
O25   O     O_R   0.284680 0.542100 0.669460 -0.491695
O26   O     O_R   0.715320 0.542100 0.330540 -0.521651
O27   O     O_R   0.784680 0.042100 0.669460 -0.491626
O28   O     O_R   0.215320 0.042100 0.330540 -0.521633
O29   O     O_R   0.262860 0.790390 0.676650 -0.509080
O30   O     O_R   0.737140 0.790390 0.323350 -0.513788
O31   O     O_R   0.762860 0.290390 0.676650 -0.509036
O32   O     O_R   0.237140 0.290390 0.323350 -0.513784
O33   O     O_R   0.167460 0.907030 0.670940 -0.509725
O34   O     O_R   0.832540 0.907030 0.329060 -0.489833
O35   O     O_R   0.667460 0.407030 0.670940 -0.509727
O36   O     O_R   0.332540 0.407030 0.329060 -0.489826
O37   O     O_R   0.053950 0.750220 0.675100 -0.516993
O38   O     O_R   0.946050 0.750220 0.324900 -0.499635
O39   O     O_R   0.553950 0.250220 0.675100 -0.517007
O40   O     O_R   0.446050 0.250220 0.324900 -0.499635
O41   O     O_R   0.043300 0.547370 0.827390 -0.502627
O42   O     O_R   0.956700 0.547370 0.172610 -0.491145
O43   O     O_R   0.543300 0.047370 0.827390 -0.502622
O44   O     O_R   0.456700 0.047370 0.172610 -0.491150
O45   O     O_R   0.178690 0.455820 0.821860 -0.456722
O46   O     O_R   0.821310 0.455820 0.178140 -0.448227
O47   O     O_R   0.678690 0.955820 0.821860 -0.456719
O48   O     O_R   0.321310 0.955820 0.178140 -0.448227
O49   O     O_R   0.284750 0.540170 0.828860 -0.545442
O50   O     O_R   0.715250 0.540170 0.171140 -0.525701
O51   O     O_R   0.784750 0.040170 0.828860 -0.545457
O52   O     O_R   0.215250 0.040170 0.171140 -0.525698
C93   C     C_2   0.105563 0.958349 0.963626 0.273526
H45   H     H_    0.093652 0.038801 0.994977 0.147864
O53   O     O_2   0.064184 0.928815 0.917896 -0.489350
C94   C     C_2   0.786036 0.114891 0.083203 0.234798
H46   H     H_    0.817619 0.184191 0.057771 0.145923
O54   O     O_2   0.762694 0.133731 0.142651 -0.496389
C95   C     C_2   0.605568 0.458360 0.963621 0.273533
H47   H     H_    0.593666 0.538828 0.994961 0.147885
O55   O     O_2   0.564181 0.428814 0.917900 -0.489356
C96   C     C_2   0.286045 0.614891 0.083201 0.234800
H48   H     H_    0.317628 0.684188 0.057766 0.145922
O56   O     O_2   0.262708 0.633734 0.142650 -0.496384
Cl1   Cl    Cl    0.326223 0.936996 0.020463 -0.623988
Cl2   Cl    Cl    0.673694 0.823659 0.948524 -0.640516
Cl3   Cl    Cl    0.826225 0.436992 0.020464 -0.623992
Cl4   Cl    Cl    0.173693 0.323660 0.948523 -0.640509
C97   C     C_2   0.928569 0.246410 0.598228 0.192834
H49   H     H_    0.903658 0.269984 0.648344 0.141643
O57   O     O_2   0.938590 0.139136 0.585291 -0.567405
C98   C     C_2   0.968978 0.210130 0.440920 0.208630
H50   H     H_    0.937512 0.136816 0.462049 0.178237
O58   O     O_2   0.995506 0.195748 0.382375 -0.540039
C99   C     C_2   0.428597 0.746433 0.598256 0.192824
H51   H     H_    0.403591 0.769998 0.648319 0.141707
O59   O     O_2   0.438774 0.639176 0.585399 -0.567396
C100  C     C_2   0.468988 0.710109 0.440968 0.208643
H52   H     H_    0.437545 0.636789 0.462129 0.178154
O60   O     O_2   0.495494 0.695710 0.382414 -0.540020

loop_
_geom_bond_atom_site_label_1
_geom_bond_atom_site_label_2
_ccdc_geom_bond_type
C82   H26   S    
C47   C83   S    
C7    C83   D    
Cr6   O6    S    
Cr11  O19   S    
C59   H16   S    
C6    C82   D    
C87   C91   D    
C86   H22   S    
Cr5   O49   S    
C80   O44   A    
C93   H45   S    
C14   C18   A    
C85   H21   S    
C35   C36   A    
C78   O42   A    
C30   C34   A    
C43   Cl3   S    
Cr2   O18   S    
C98   O58   D    
C45   O33   A    
C57   C62   D    
C40   H8    S    
Cr3   O43   S    
Cr7   O31   S    
C12   C23   A    
Cr1   O21   S    
C59   C64   D    
C50   C54   S    
C30   H37   S    
C60   C63   D    
Cr11  O35   S    
C32   C36   A    
C14   C21   A    
C66   O2    A    
Cr6   O26   S    
C34   C98   S    
C9    C22   A    
Cr12  O20   S    
C43   C70   S    
C19   H31   S    
Cr4   O4    S    
C5    H17   S    
C11   C24   A    
C41   Cl1   S    
C74   O6    A    
C60   H15   S    
C1    O21   A    
C31   H40   S    
C46   O30   A    
C9    C66   S    
C80   O16   A    
C32   H39   S    
C47   O31   A    
C43   C51   D    
C46   C82   S    
Cr1   O1    S    
C92   H4    S    
C39   C55   D    
C14   H34   S    
C29   C33   A    
C40   C76   S    
C68   O4    A    
C40   C56   D    
Cr7   O7    S    
Cr8   O28   S    
Cr3   O47   S    
C23   C24   A    
Cr4   O20   S    
C8    C92   S    
C39   C75   S    
C38   H6    S    
C4    O24   A    
C15   H35   S    
C61   C62   S    
C2    O26   A    
C16   C20   A    
C63   H11   S    
C70   O46   A    
C50   H42   S    
C58   C61   D    
C39   H7    S    
Cr1   O17   S    
C52   H44   S    
C79   O43   A    
C21   C22   A    
C3    C86   S    
C69   O49   A    
C93   O53   D    
Cr10  O10   S    
C16   H36   S    
Cr12  O12   S    
Cr9   O37   S    
C41   C49   D    
C98   H50   S    
C67   O39   A    
C9    C26   A    
C17   C18   A    
Cr7   O19   S    
Cr11  O11   S    
C10   C21   A    
C25   C29   A    
Cr12  O40   S    
C12   C67   S    
C65   O37   A    
Cr5   O25   S    
Cr6   O50   S    
C12   C27   A    
C27   C31   A    
C95   H47   S    
Cr10  O34   S    
C91   H3    S    
C28   C32   A    
Cr11  O39   S    
C90   H2    S    
C99   H51   S    
C47   O35   A    
C86   C90   D    
C59   C79   S    
C48   O36   A    
C62   H10   S    
C85   C89   D    
C8    H20   S    
C4    C85   S    
C8    C84   D    
C97   H49   S    
C6    C90   S    
C67   O3    A    
C64   H12   S    
C84   H28   S    
C58   H13   S    
C53   C93   S    
C48   C84   S    
Cr5   O29   S    
C13   H33   S    
C15   C19   A    
Cr2   O42   S    
C56   C96   S    
C42   Cl2   S    
C35   C99   S    
C72   O52   A    
C5    C81   D    
C71   O47   A    
C38   C54   D    
C51   H43   S    
Cr10  O14   S    
C1    O25   A    
Cr11  O15   S    
C69   O45   A    
C33   C34   A    
C49   H41   S    
C2    C87   S    
C100  H52   S    
C88   C92   D    
C20   H32   S    
C74   O10   A    
Cr9   O17   S    
Cr1   O45   S    
Cr6   O18   S    
C2    O22   A    
C41   C72   S    
Cr8   O52   S    
C10   C25   A    
C3    O27   A    
C15   C24   A    
Cr12  O36   S    
C42   C50   D    
C78   O14   A    
C16   C23   A    
Cr5   O5    S    
C66   O38   A    
C61   H9    S    
C81   H25   S    
C31   C35   A    
C79   O15   A    
Cr3   O3    S    
Cr8   O8    S    
C6    H18   S    
Cr4   O24   S    
Cr7   O51   S    
Cr8   O32   S    
C7    C91   S    
C48   O32   A    
Cr9   O33   S    
C11   C68   S    
Cr6   O30   S    
C38   C74   S    
C10   C65   S    
C75   O11   A    
C37   C73   S    
C76   O12   A    
C36   C100  S    
Cr1   O41   S    
Cr10  O38   S    
C60   C80   S    
Cr2   O46   S    
C37   H5    S    
C45   C81   S    
C94   O54   D    
Cr3   O19   S    
C44   C52   D    
C72   O48   A    
Cr10  O18   S    
C99   O59   D    
C71   O51   A    
C73   O9    A    
C33   C97   S    
C97   O57   D    
C55   C95   S    
C100  O60   D    
C13   C17   A    
Cr8   O20   S    
C77   O41   A    
C89   H1    S    
C46   O34   A    
C19   C20   A    
C57   C77   S    
C83   H27   S    
C25   C26   A    
C37   C53   D    
C88   H24   S    
Cr2   O22   S    
C17   H29   S    
C45   O29   A    
C3    O23   A    
Cr12  O16   S    
C11   C28   A    
C1    C88   S    
C54   C94   S    
C29   H38   S    
Cr9   O13   S    
C42   C71   S    
C77   O13   A    
C76   O8    A    
C13   C22   A    
C18   H30   S    
C51   C55   S    
C65   O1    A    
Cr4   O44   S    
C49   C53   S    
C58   C78   S    
Cr9   O9    S    
C63   C64   S    
C75   O7    A    
Cr2   O2    S    
Cr4   O48   S    
Cr7   O27   S    
C94   H46   S    
C68   O40   A    
C70   O50   A    
C96   H48   S    
C4    O28   A    
C73   O5    A    
Cr5   O17   S    
C95   O55   D    
C44   C69   S    
C57   H14   S    
C96   O56   D    
Cr3   O23   S    
C44   Cl4   S    
C5    C89   S    
C52   C56   S    
C7    H19   S    
C87   H23   S    
C27   C28   A    
C26   C30   A    
