data_mof_unit_47256.cif
_audit_creation_date              2013-03-05T16:07:17-0500
_audit_creation_method            fapswitch 2.2
_symmetry_space_group_name_H-M    P1
_symmetry_Int_Tables_number       1
_space_group_crystal_system       triclinic
_cell_length_a                    18.250731
_cell_length_b                    18.277536
_cell_length_c                    18.211888
_cell_angle_alpha                 90.253348
_cell_angle_beta                  119.717999
_cell_angle_gamma                 120.0173
_cell_volume                      4303.36159218

loop_
_atom_site_label
_atom_site_type_symbol
_atom_site_description
_atom_site_fract_x
_atom_site_fract_y
_atom_site_fract_z
_atom_type_partial_charge
Zn1   Zn    Zn3+2 0.412450 0.543930 0.456390 1.080069
Zn2   Zn    Zn3+2 0.587550 0.543620 0.456070 1.130001
Zn3   Zn    Zn3+2 0.412480 0.368530 0.456070 1.071808
Zn4   Zn    Zn3+2 0.587520 0.543930 0.631470 1.019857
O1    O     O_3   0.500000 0.500000 0.500000 -0.564404
O2    O     O_R   0.733670 0.616970 0.678220 -0.659917
O3    O     O_R   0.266300 0.444520 0.383270 -0.634811
O4    O     O_R   0.561280 0.616750 0.383040 -0.575354
O5    O     O_R   0.438750 0.321760 0.555460 -0.600232
O6    O     O_R   0.561320 0.444010 0.382720 -0.567626
O7    O     O_R   0.561210 0.617270 0.678540 -0.627199
O8    O     O_R   0.438790 0.321460 0.382720 -0.614018
O9    O     O_R   0.438680 0.617270 0.556010 -0.617582
O10   O     O_R   0.438720 0.616970 0.383270 -0.558397
O11   O     O_R   0.561250 0.444520 0.678220 -0.609893
O12   O     O_R   0.733700 0.616750 0.555460 -0.558686
O13   O     O_R   0.266330 0.321760 0.383040 -0.622216
C1    C     C_R   0.782246 0.638828 0.640872 0.956609
C2    C     C_R   0.217616 0.358870 0.360072 0.895640
C3    C     C_R   0.500381 0.641129 0.358655 0.970984
C4    C     C_R   0.500662 0.359295 0.641398 0.819043
C5    C     C_R   0.498243 0.358168 0.356989 0.937518
C6    C     C_R   0.499655 0.641230 0.641114 0.916266
C7    C     C_3   0.498404 0.682267 0.780791 -0.289898
C8    C     C_3   0.416965 0.703022 0.749639 0.194418
H1    H     H_    0.495907 0.626305 0.805734 0.238755
C9    C     C_3   0.502488 0.803596 0.803043 -0.345174
C10   C     C_3   0.584170 0.783881 0.833105 0.241133
C11   C     C_3   0.584983 0.798643 0.750601 0.181833
C12   C     C_3   0.503347 0.817934 0.720035 0.141499
C13   C     C_3   0.416742 0.717848 0.666624 0.209465
C14   C     C_3   0.498669 0.698193 0.696983 -0.287511
C15   C     C_3   0.061281 0.357976 0.310673 0.222182
H2    H     H_    0.102219 0.419670 0.297449 0.130961
C16   C     C_3   0.939838 0.302403 0.239821 0.830456
H3    H     H_    0.903358 0.211177 0.085189 0.243654
C17   C     C_3   0.059326 0.263083 0.204235 0.241315
C18   C     C_3   0.060323 0.222125 0.336580 -0.458404
C19   C     C_3   0.101841 0.301931 0.303775 -0.130867
H4    H     H_    0.082005 0.177655 0.326716 0.251869
H5    H     H_    0.096425 0.245971 0.409780 0.236253
C20   C     C_3   0.898691 0.201230 0.203141 -0.112801
C21   C     C_3   0.939832 0.196628 0.147693 -0.474646
C22   C     C_3   0.941160 0.168465 0.284164 0.264371
H6    H     H_    0.922026 0.183035 0.329450 0.158138
H7    H     H_    0.092109 0.225454 0.203336 0.156032
H8    H     H_    0.917182 0.127411 0.125871 0.239555
C23   C     C_3   0.595790 0.363282 0.801631 -0.016964
H9    H     H_    0.665935 0.400154 0.801517 0.176027
C24   C     C_3   0.605661 0.302399 0.862399 0.606571
H10   H     H_    0.388741 0.305109 0.710916 0.155007
H11   H     H_    0.420029 0.245182 0.819529 0.156574
C25   C     C_3   0.398097 0.253834 0.692700 0.112856
C26   C     C_3   0.517555 0.234367 0.673269 -0.426232
C27   C     C_3   0.501771 0.303466 0.700539 -0.185877
H12   H     H_    0.463910 0.197094 0.600059 0.271553
H13   H     H_    0.596118 0.270253 0.687855 0.212788
C28   C     C_3   0.503694 0.201981 0.803301 -0.182025
C29   C     C_3   0.405841 0.204120 0.762588 -0.004294
C30   C     C_3   0.505025 0.168018 0.725611 -0.362628
H14   H     H_    0.569069 0.159860 0.752241 0.235518
H15   H     H_    0.433076 0.100776 0.678751 0.281068
C31   C     C_3   0.937105 0.792590 0.741879 0.106188
H16   H     H_    0.909733 0.783984 0.785325 0.132135
C32   C     C_3   0.059559 0.858169 0.799638 0.299209
C33   C     C_3   0.940940 0.657081 0.773711 0.132818
C34   C     C_3   0.939513 0.697605 0.637279 0.569146
C35   C     C_3   0.897952 0.696285 0.697545 -0.337624
C36   C     C_3   0.102037 0.797952 0.801881 -0.401902
C37   C     C_3   0.063050 0.720553 0.842634 0.580511
C38   C     C_3   0.060935 0.751158 0.702839 0.092822
H17   H     H_    0.095066 0.804269 0.677685 0.190410
H18   H     H_    0.924996 0.598945 0.733775 0.225271
C39   C     C_3   0.525679 0.347562 0.236139 0.299542
H19   H     H_    0.473165 0.368195 0.198866 0.174690
C40   C     C_3   0.511447 0.281090 0.168116 0.142921
H20   H     H_    0.583931 0.315394 0.170908 0.127447
H21   H     H_    0.662897 0.292125 0.304149 0.155693
C41   C     C_3   0.577106 0.278957 0.358728 0.275062
C42   C     C_3   0.380699 0.206457 0.233655 0.266176
C43   C     C_3   0.495147 0.298588 0.298006 -0.290308
C44   C     C_3   0.498315 0.197605 0.198403 -0.323897
C45   C     C_3   0.593461 0.236603 0.299104 0.030628
C46   C     C_3   0.390609 0.143513 0.185781 -0.003595
H22   H     H_    0.332117 0.119123 0.112290 0.243109
H23   H     H_    0.545485 0.229327 0.387800 0.187712
C47   C     C_3   0.600706 0.739828 0.296013 0.387284
C48   C     C_3   0.584232 0.786006 0.223397 -0.528458
H24   H     H_    0.658095 0.848301 0.242497 0.235911
H25   H     H_    0.557006 0.742121 0.160107 0.235399
H26   H     H_    0.400097 0.600290 0.169402 0.174180
H27   H     H_    0.373966 0.681947 0.084125 0.186451
C49   C     C_3   0.400171 0.648759 0.205905 0.122726
C50   C     C_3   0.515357 0.786358 0.348601 0.534883
C51   C     C_3   0.504874 0.702644 0.304262 -0.313290
C52   C     C_3   0.501809 0.803964 0.201334 -0.165054
C53   C     C_3   0.395389 0.712402 0.150787 -0.414843
C54   C     C_3   0.528982 0.851337 0.291847 0.037732
H28   H     H_    0.612085 0.907757 0.328524 0.167657
H29   H     H_    0.334516 0.721585 0.135476 0.265997
Zn5   Zn    Zn3+2 0.587490 0.956040 0.043570 1.073878
Zn6   Zn    Zn3+2 0.587450 0.131440 0.043900 1.034041
Zn7   Zn    Zn3+2 0.412380 0.956350 0.043900 1.152953
Zn8   Zn    Zn3+2 0.412420 0.956040 0.868500 1.083285
O14   O     O_3   0.499930 0.999970 0.999970 -0.561138
O15   O     O_R   0.438680 0.055440 0.821740 -0.591958
O16   O     O_R   0.561210 0.883000 0.116700 -0.648881
O17   O     O_R   0.733610 0.178210 0.116920 -0.593396
O18   O     O_R   0.266230 0.883210 0.944500 -0.559761
O19   O     O_R   0.561150 0.178510 0.117240 -0.687020
O20   O     O_R   0.438720 0.882700 0.821420 -0.630432
O21   O     O_R   0.438610 0.055960 0.117240 -0.567157
O22   O     O_R   0.561250 0.882700 0.943960 -0.603668
O23   O     O_R   0.733630 0.055440 0.116700 -0.593001
O24   O     O_R   0.266260 0.883000 0.821740 -0.643110
O25   O     O_R   0.561190 0.178210 0.944500 -0.589901
O26   O     O_R   0.438650 0.883210 0.116920 -0.584291
C55   C     C_R   0.500901 0.141666 0.859046 0.889872
C56   C     C_R   0.500998 0.860166 0.142320 0.880680
C57   C     C_R   0.782446 0.141550 0.143064 0.899463
C58   C     C_R   0.217665 0.858033 0.858903 1.029541
C59   C     C_R   0.498900 0.141154 0.140575 0.966423
C60   C     C_R   0.500948 0.859581 0.858951 0.978039
N1    N     N_R   0.325462 0.647784 0.749754 0.235884
O27   O     O_R   0.257675 0.564017 0.698721 -0.340222
O28   O     O_R   0.319610 0.677100 0.810474 -0.372035
O29   O     O_3   0.905866 0.329205 0.161573 -0.612024
C61   C     C_3   0.965984 0.421433 0.173445 -0.237177
H30   H     H_    0.027262 0.436850 0.164201 0.246415
H31   H     H_    0.999951 0.466766 0.238485 0.108645
H32   H     H_    0.915881 0.436273 0.120042 0.196390
O30   O     O_3   0.088627 0.334034 0.169595 -0.602227
C62   C     C_3   0.091661 0.308884 0.098243 -0.057502
H33   H     H_    0.020275 0.242651 0.047284 0.153170
H34   H     H_    0.160437 0.308092 0.124448 0.217320
H35   H     H_    0.098442 0.359426 0.063798 0.218205
O31   O     O_3   0.897198 0.075684 0.253017 -0.581230
C63   C     C_3   0.885626 0.034910 0.315670 -0.063283
H36   H     H_    0.825867 0.033059 0.319652 0.156369
H37   H     H_    0.960329 0.069667 0.383174 0.191208
H38   H     H_    0.858941 0.964626 0.292592 0.220156
N2    N     N_R   0.592343 0.433693 0.837273 0.234553
O32   O     O_R   0.523613 0.414606 0.852918 -0.389584
O33   O     O_R   0.666251 0.517719 0.862661 -0.375537
N3    N     N_R   0.698785 0.303046 0.892900 0.158746
O34   O     O_R   0.731516 0.271907 0.956834 -0.346084
O35   O     O_R   0.748098 0.331802 0.855319 -0.417610
O36   O     O_3   0.609561 0.332286 0.937888 -0.620673
C64   C     C_3   0.707518 0.409236 0.007693 -0.117093
H39   H     H_    0.695518 0.452743 0.036082 0.179817
H40   H     H_    0.757790 0.450188 0.985818 0.165410
H41   H     H_    0.747418 0.388278 0.062107 0.163553
N4    N     N_R   0.306235 0.195415 0.600283 0.269987
O37   O     O_R   0.237424 0.212480 0.559806 -0.367287
O38   O     O_R   0.291217 0.126619 0.557778 -0.289561
N5    N     N_R   0.676219 0.821016 0.924277 0.273631
O39   O     O_R   0.691344 0.767946 0.967277 -0.313097
O40   O     O_R   0.742972 0.907444 0.963482 -0.303299
N6    N     N_R   0.307181 0.117242 0.727123 0.252500
O41   O     O_R   0.236428 0.116626 0.728798 -0.258887
O42   O     O_R   0.280834 0.045296 0.677948 -0.263107
O43   O     O_3   0.890133 0.823872 0.674124 -0.555381
C65   C     C_3   0.840278 0.852720 0.692199 0.117134
H42   H     H_    0.893809 0.903841 0.760186 0.192085
H43   H     H_    0.771051 0.794530 0.685062 0.124608
H44   H     H_    0.814348 0.884374 0.642626 0.253968
N7    N     N_R   0.090472 0.928652 0.759417 0.275544
O44   O     O_R   0.160962 0.950388 0.745687 -0.322357
O45   O     O_R   0.065794 0.984593 0.757751 -0.233930
N8    N     N_R   0.103358 0.907525 0.892170 0.252091
O46   O     O_R   0.045083 0.895443 0.918823 -0.344786
O47   O     O_R   0.197921 0.979523 0.940434 -0.322498
O48   O     O_3   0.882712 0.611267 0.809491 -0.598651
C66   C     C_3   0.882695 0.663386 0.867262 -0.061278
H45   H     H_    0.942301 0.735640 0.894293 0.198613
H46   H     H_    0.894474 0.639782 0.925555 0.169262
H47   H     H_    0.806305 0.651930 0.833831 0.219494
O49   O     O_3   0.094008 0.762762 0.928676 -0.619704
C67   C     C_3   0.108671 0.715457 0.989919 -0.031704
H48   H     H_    0.104875 0.739788 0.042988 0.188399
H49   H     H_    0.186750 0.729999 0.023451 0.200597
H50   H     H_    0.048141 0.641964 0.957874 0.177099
O50   O     O_3   0.893192 0.605415 0.594734 -0.635348
C68   C     C_3   0.907325 0.589516 0.527987 -0.044410
H51   H     H_    0.941483 0.550987 0.544724 0.181803
H52   H     H_    0.957120 0.650929 0.519456 0.131774
H53   H     H_    0.830594 0.547069 0.462704 0.225505
N9    N     N_R   0.909138 0.739506 0.567389 0.229015
O51   O     O_R   0.830031 0.690008 0.484670 -0.288304
O52   O     O_R   0.967788 0.825148 0.583363 -0.266292
N10   N     N_R   0.675958 0.850925 0.749346 0.219184
O53   O     O_R   0.767756 0.883978 0.821137 -0.330847
O54   O     O_R   0.665445 0.865126 0.675971 -0.334173
O55   O     O_3   0.090520 0.691806 0.704647 -0.570919
C69   C     C_3   0.153064 0.713633 0.672678 -0.025992
H54   H     H_    0.235579 0.762501 0.727760 0.216702
H55   H     H_    0.131940 0.739220 0.615602 0.115511
H56   H     H_    0.143646 0.651783 0.648451 0.222657
N11   N     N_R   0.108711 0.669202 0.851621 0.222902
O56   O     O_R   0.052503 0.582064 0.828635 -0.343928
O57   O     O_R   0.208446 0.710596 0.896612 -0.388700
O58   O     O_3   0.630290 0.424507 0.290508 -0.580488
C70   C     C_3   0.653188 0.485288 0.244543 -0.163391
H57   H     H_    0.676391 0.466627 0.205840 0.105489
H58   H     H_    0.720269 0.552821 0.295051 0.238423
H59   H     H_    0.588852 0.491055 0.199474 0.205354
O59   O     O_3   0.423149 0.253356 0.080445 -0.599315
C71   C     C_3   0.452118 0.294843 0.025407 -0.142318
H60   H     H_    0.494510 0.273775 0.014486 0.181292
H61   H     H_    0.499263 0.369075 0.054222 0.145245
H62   H     H_    0.381068 0.273177 0.958899 0.229449
O60   O     O_3   0.673949 0.359567 0.426448 -0.571595
C72   C     C_3   0.697359 0.360223 0.513017 -0.173627
H63   H     H_    0.710528 0.307842 0.530878 0.212583
H64   H     H_    0.635428 0.351142 0.518432 0.111322
H65   H     H_    0.769808 0.426171 0.562560 0.216685
N12   N     N_R   0.332683 0.159026 0.280146 0.261024
O61   O     O_R   0.386126 0.158942 0.360907 -0.347095
O62   O     O_R   0.232270 0.107137 0.235560 -0.250152
N13   N     N_R   0.507902 0.891187 0.685942 0.270819
O63   O     O_R   0.497893 0.889946 0.610060 -0.311171
O64   O     O_R   0.532174 0.962034 0.734808 -0.366802
N14   N     N_R   0.310074 0.226490 0.166038 0.210842
O65   O     O_R   0.310406 0.293077 0.192229 -0.448219
O66   O     O_R   0.228559 0.165295 0.088469 -0.271426
N15   N     N_R   0.366131 0.061388 0.210150 0.266149
O67   O     O_R   0.281808 0.984225 0.150482 -0.240340
O68   O     O_R   0.423423 0.064052 0.291007 -0.257327
N16   N     N_R   0.619276 0.173455 0.331529 0.261967
O69   O     O_R   0.651875 0.145462 0.296690 -0.387575
O70   O     O_R   0.636808 0.164294 0.408262 -0.287956
N17   N     N_R   0.608674 0.669942 0.266483 0.230511
O71   O     O_R   0.532982 0.585088 0.229304 -0.442352
O72   O     O_R   0.690775 0.694936 0.269298 -0.329650
N18   N     N_R   0.700399 0.804356 0.383817 0.236954
O73   O     O_R   0.733450 0.776043 0.450251 -0.233660
O74   O     O_R   0.760689 0.888668 0.395752 -0.376611
N19   N     N_R   0.324165 0.684675 0.576748 0.223999
O75   O     O_R   0.238123 0.659331 0.566188 -0.430910
O76   O     O_R   0.331531 0.695827 0.509727 -0.385167
O77   O     O_3   0.421042 0.752451 0.340586 -0.587965
C73   C     C_3   0.430641 0.804142 0.407113 0.154333
H66   H     H_    0.352868 0.786486 0.382543 0.192093
H67   H     H_    0.481610 0.877484 0.422382 0.180120
H68   H     H_    0.459434 0.787397 0.469337 0.218147
N20   N     N_R   0.605601 0.833518 0.444876 0.165680
O78   O     O_R   0.668809 0.920733 0.477554 -0.313333
O79   O     O_R   0.612688 0.789975 0.501560 -0.409185
N21   N     N_R   0.473298 0.891915 0.279674 0.230421
O80   O     O_R   0.372736 0.844196 0.231940 -0.319512
O81   O     O_R   0.525679 0.977558 0.318500 -0.255445
N22   N     N_R   0.305999 0.594409 0.204136 0.263080
O82   O     O_R   0.245732 0.619680 0.187700 -0.333234
O83   O     O_R   0.273861 0.513222 0.205637 -0.388585
O84   O     O_3   0.086276 0.378065 0.399088 -0.619369
C74   C     C_3   0.136255 0.469998 0.439365 -0.083301
H69   H     H_    0.092219 0.495453 0.396310 0.142077
H70   H     H_    0.215751 0.509934 0.456238 0.200005
H71   H     H_    0.142467 0.479290 0.502888 0.236691
O85   O     O_3   0.893453 0.301053 0.285049 -0.613461
C75   C     C_3   0.852984 0.352496 0.267543 -0.126081
H72   H     H_    0.797076 0.335505 0.194824 0.191900
H73   H     H_    0.915358 0.425124 0.300656 0.122381
H74   H     H_    0.809315 0.336582 0.297778 0.177208

loop_
_geom_bond_atom_site_label_1
_geom_bond_atom_site_label_2
_geom_bond_distance
_ccdc_geom_bond_type
C8    C13   1.535510 S    
C23   C27   1.581856 S    
C33   C35   1.595414 S    
C47   C48   1.556033 S    
C31   C32   1.586112 S    
C25   N4    1.476162 S    
C37   N11   1.500310 S    
O24   C58   1.282898 A    
C31   O43   1.425591 S    
Zn5   O22   1.947302 S    
O17   C57   1.284389 A    
C52   C56   1.489879 S    
C65   H42   1.112507 S    
C70   H57   1.109420 S    
C46   N15   1.476895 S    
C61   H30   1.109169 S    
Zn8   O15   1.950067 S    
O49   C67   1.416793 S    
C25   C29   1.557554 S    
N7    O45   1.302579 A    
C26   C30   1.542882 S    
C72   H63   1.111587 S    
O6    C5    1.287650 A    
O21   C59   1.277604 A    
C70   H58   1.109062 S    
N21   O80   1.301809 A    
C15   C19   1.569324 S    
C39   C40   1.558897 S    
Zn1   O1    1.964607 S    
N14   O66   1.302848 A    
N9    O52   1.300562 A    
C10   C11   1.533754 S    
C65   H43   1.111682 S    
C50   O77   1.432168 S    
C7    H1    1.110251 S    
C11   C14   1.539874 S    
C36   C37   1.607523 S    
C64   H40   1.112962 S    
N6    O41   1.301166 A    
C12   C13   1.535545 S    
C42   C43   1.615037 S    
H26   C49   1.104306 S    
N8    O46   1.301301 A    
C50   C54   1.584577 S    
C1    C35   1.496033 S    
C47   N17   1.482984 S    
C54   H28   1.111101 S    
C74   H71   1.108622 S    
O8    C5    1.275007 A    
C28   C55   1.501182 S    
C47   N18   1.486667 S    
C68   H51   1.109153 S    
O9    C6    1.276214 A    
Zn6   O14   1.959938 S    
C30   H15   1.108177 S    
O77   C73   1.416005 S    
N22   O82   1.302247 A    
O7    C6    1.286128 A    
C7    C14   1.556974 S    
C36   C38   1.597071 S    
C16   C20   1.591214 S    
C66   H45   1.093489 S    
Zn8   O14   1.958784 S    
N5    O40   1.300585 A    
Zn3   O8    1.947901 S    
C15   C16   1.584187 S    
C26   C27   1.557248 S    
C29   N6    1.469016 S    
H21   C45   1.114106 S    
N14   O65   1.301294 A    
O25   C55   1.279268 A    
C71   H60   1.111936 S    
C74   H70   1.108434 S    
Zn5   O16   1.947937 S    
C62   H35   1.109022 S    
C73   H67   1.110046 S    
N18   O73   1.299908 A    
C11   N10   1.456307 S    
C33   O48   1.433939 S    
Zn6   O17   1.950968 S    
N4    O38   1.300642 A    
Zn2   O12   1.949947 S    
C17   H7    1.119205 S    
C49   N22   1.475933 S    
C42   C46   1.572303 S    
C69   H56   1.108195 S    
C23   C24   1.584094 S    
O55   C69   1.416512 S    
N11   O56   1.303005 A    
C49   C51   1.593070 S    
C18   H4    1.113753 S    
O15   C55   1.292250 A    
C9    C12   1.541794 S    
C62   H34   1.108084 S    
Zn5   O23   1.948528 S    
N18   O74   1.302355 A    
Zn1   O10   1.947744 S    
Zn7   O26   1.951989 S    
C20   C22   1.573221 S    
C20   C57   1.503514 S    
O16   C56   1.284795 A    
N13   O63   1.299612 A    
N3    O35   1.302024 A    
N16   O69   1.301645 A    
H27   C53   1.114572 S    
N3    O34   1.301131 A    
C28   C30   1.558596 S    
C26   H12   1.109378 S    
C40   H20   1.117543 S    
C25   C27   1.561139 S    
C74   H69   1.108942 S    
Zn5   O14   1.964755 S    
C41   O60   1.425835 S    
O2    C1    1.286119 A    
C70   H59   1.110224 S    
N20   O79   1.301418 A    
N21   O81   1.298824 A    
C73   H68   1.107948 S    
O58   C70   1.414251 S    
O20   C60   1.283996 A    
O59   C71   1.410748 S    
C24   C28   1.602984 S    
C5    C43   1.486889 S    
O10   C3    1.291168 A    
C15   O84   1.426387 S    
C65   H44   1.108481 S    
C46   H22   1.109794 S    
C18   H5    1.112621 S    
Zn4   O2    1.948698 S    
C39   H19   1.113743 S    
C64   H41   1.107270 S    
N19   O76   1.298806 A    
C42   N12   1.489430 S    
C75   H73   1.105469 S    
C9    C60   1.460313 S    
O30   C62   1.412261 S    
C38   O55   1.427638 S    
C69   H54   1.104747 S    
C45   N16   1.475494 S    
C17   O30   1.418995 S    
C34   O50   1.438065 S    
O48   C66   1.416392 S    
C33   H18   1.103057 S    
N10   O53   1.299943 A    
C52   C54   1.568477 S    
C30   H14   1.112042 S    
H10   C25   1.109519 S    
Zn8   O20   1.950400 S    
C17   C21   1.550440 S    
N1    O28   1.300184 A    
C34   C35   1.608693 S    
N10   O54   1.299438 A    
O50   C68   1.418244 S    
C18   C22   1.549927 S    
C11   C12   1.535950 S    
Zn3   O5    1.949442 S    
H11   C29   1.112721 S    
C47   C51   1.617288 S    
Zn8   O24   1.948800 S    
N22   O83   1.300831 A    
C13   C14   1.545966 S    
O22   C60   1.275240 A    
C36   C58   1.495390 S    
C52   C53   1.543383 S    
C75   H74   1.107950 S    
N17   O72   1.302041 A    
C15   H2    1.107084 S    
C23   N2    1.481771 S    
C26   H13   1.111998 S    
Zn7   O14   1.956361 S    
O4    C3    1.280219 A    
C7    C8    1.550767 S    
Zn4   O7    1.950447 S    
C16   O29   1.445410 S    
C50   N20   1.494301 S    
C66   H47   1.106105 S    
C2    C19   1.497155 S    
C22   O31   1.421356 S    
C24   N3    1.497028 S    
C71   H61   1.111117 S    
C23   H9    1.110190 S    
N12   O61   1.301465 A    
C3    C51   1.500097 S    
C48   H25   1.115359 S    
N15   O67   1.301966 A    
O3    C2    1.284107 A    
C62   H33   1.112402 S    
N16   O70   1.302173 A    
N2    O33   1.301765 A    
Zn6   O19   1.947608 S    
Zn2   O1    1.956362 S    
Zn1   O9    1.947552 S    
C20   C21   1.550746 S    
C39   C43   1.585445 S    
C40   C44   1.569274 S    
O29   C61   1.415349 S    
Zn2   O6    1.949553 S    
C61   H32   1.106522 S    
C49   C53   1.547057 S    
N7    O44   1.297655 A    
C53   H29   1.104540 S    
C34   N9    1.499253 S    
C4    C27   1.486767 S    
O43   C65   1.410580 S    
C72   H65   1.108266 S    
C24   O36   1.432124 S    
N20   O78   1.302734 A    
N5    O39   1.300245 A    
C73   H66   1.108969 S    
C31   C35   1.554938 S    
Zn1   O3    1.948675 S    
C12   N13   1.460195 S    
C16   O85   1.437488 S    
C13   N19   1.458019 S    
C37   O49   1.430117 S    
C22   H6    1.117900 S    
C7    C10   1.550597 S    
O85   C75   1.412524 S    
Zn3   O1    1.959940 S    
C63   H38   1.109238 S    
C61   H31   1.106008 S    
C54   N21   1.471151 S    
C33   C37   1.585857 S    
C40   O59   1.423973 S    
C63   H37   1.112862 S    
C67   H48   1.109085 S    
N12   O62   1.302353 A    
C39   O58   1.424902 S    
O31   C63   1.410989 S    
C32   N7    1.485038 S    
C44   C46   1.581106 S    
C68   H53   1.109334 S    
N13   O64   1.300018 A    
Zn7   O18   1.949990 S    
C6    C14   1.465305 S    
C67   H50   1.111088 S    
Zn4   O11   1.950115 S    
O26   C56   1.282803 A    
N6    O42   1.300941 A    
C28   C29   1.580498 S    
C72   H64   1.112562 S    
C38   H17   1.105480 S    
C17   C19   1.560531 S    
C64   H39   1.109272 S    
O19   C59   1.281661 A    
C42   N14   1.488076 S    
C41   C45   1.553259 S    
O5    C4    1.287822 A    
C18   C19   1.552260 S    
O11   C4    1.277135 A    
N8    O47   1.302413 A    
C71   H62   1.109116 S    
C32   C36   1.623812 S    
N19   O75   1.299803 A    
N17   O71   1.300730 A    
O13   C2    1.289435 A    
C66   H46   1.109044 S    
C68   H52   1.109450 S    
C48   C52   1.558183 S    
Zn3   O13   1.950821 S    
C34   C38   1.578167 S    
O36   C64   1.416163 S    
C41   H23   1.104375 S    
C41   C43   1.577844 S    
C50   C51   1.604013 S    
C8    N1    1.457656 S    
N11   O57   1.301896 A    
Zn6   O25   1.949588 S    
C63   H36   1.112397 S    
C31   H16   1.102145 S    
Zn4   O1    1.958782 S    
C48   H24   1.109297 S    
O12   C1    1.279763 A    
C44   C45   1.574624 S    
C32   N8    1.490671 S    
Zn2   O4    1.951943 S    
C9    C10   1.543360 S    
C10   N5    1.457216 S    
C75   H72   1.109513 S    
N2    O32   1.301417 A    
Zn7   O21   1.949452 S    
H3    C21   1.112692 S    
O18   C58   1.281850 A    
C67   H49   1.109516 S    
N4    O37   1.301516 A    
C21   H8    1.113006 S    
C44   C59   1.478654 S    
N9    O51   1.302716 A    
O23   C57   1.291377 A    
N15   O68   1.298449 A    
O84   C74   1.409158 S    
O60   C72   1.412499 S    
N1    O27   1.300289 A    
C69   H55   1.111395 S    
C8    C9    1.539376 S    
