data_mof_unit_38768.cif
_audit_creation_date              2013-03-05T16:00:38-0500
_audit_creation_method            fapswitch 2.2
_symmetry_space_group_name_H-M    P1
_symmetry_Int_Tables_number       1
_space_group_crystal_system       triclinic
_cell_length_a                    10.713017
_cell_length_b                    14.732055
_cell_length_c                    14.81972
_cell_angle_alpha                 64.500427
_cell_angle_beta                  104.601015
_cell_angle_gamma                 102.384967
_cell_volume                      2027.81621563

loop_
_atom_site_label
_atom_site_type_symbol
_atom_site_description
_atom_site_fract_x
_atom_site_fract_y
_atom_site_fract_z
_atom_type_partial_charge
O1    O     O_R   0.455060 0.022100 0.338110 -0.578811
O2    O     O_R   0.512640 0.160150 0.379180 -0.592162
C1    C     C_R   0.479438 0.119789 0.312345 0.779714
O3    O     O_R   0.288900 0.930980 0.479450 -0.585564
O4    O     O_R   0.346480 0.069030 0.520520 -0.584452
C2    C     C_R   0.260230 0.000029 0.500206 0.819991
Cu1   Cu    Cu3+1 0.465900 0.918260 0.475680 0.946438
Cu2   Cu    Cu3+1 0.534100 0.081740 0.524320 0.955786
O5    O     O_R   0.487360 0.839850 0.620820 -0.584238
O6    O     O_R   0.544940 0.977900 0.661890 -0.569801
O7    O     O_R   0.653520 0.930970 0.479480 -0.596376
O8    O     O_R   0.711100 0.069020 0.520550 -0.592463
C3    C     C_R   0.523474 0.880193 0.687739 0.842738
C4    C     C_R   0.739787 0.998710 0.501230 0.778210
C5    C     C_3   0.067030 0.095867 0.409572 -0.057830
H1    H     H_    0.120883 0.164248 0.421471 0.166617
C6    C     C_3   0.922228 0.093703 0.411282 -0.361331
H2    H     H_    0.910051 0.163214 0.418777 0.184627
H3    H     H_    0.858668 0.094649 0.338753 0.177435
H4    H     H_    0.045831 0.899234 0.416669 0.189121
H5    H     H_    0.835592 0.900438 0.416245 0.186030
C7    C     C_3   0.038305 0.903079 0.488347 -0.310635
C8    C     C_3   0.107610 0.003191 0.600843 0.174801
C9    C     C_3   0.121652 0.999811 0.499683 0.005778
H6    H     H_    0.156164 0.078059 0.601152 0.103549
C10   C     C_3   0.877363 0.998091 0.501123 0.053669
C11   C     C_3   0.895546 0.902567 0.488757 -0.370815
C12   C     C_3   0.962473 0.997866 0.602879 -0.438087
H7    H     H_    0.949031 0.064251 0.615294 0.157803
H8    H     H_    0.930526 0.929001 0.667230 0.201839
H9    H     H_    0.074487 0.833024 0.550015 0.223463
H10   H     H_    0.862979 0.832701 0.552046 0.180770
C13   C     C_R   0.477519 0.187719 0.205032 -0.060561
C14   C     C_R   0.546094 0.812382 0.795870 -0.033035
C15   C     C_R   0.465875 0.217178 0.029579 -0.188897
C16   C     C_R   0.459264 0.150291 0.129727 -0.183975
C17   C     C_R   0.502016 0.292136 0.179170 -0.240003
C18   C     C_R   0.516778 0.360590 0.080270 0.103662
C19   C     C_R   0.493939 0.321891 0.004255 0.159300
C20   C     C_R   0.550073 0.466480 0.054649 0.021304
C21   C     C_R   0.541750 0.533412 0.950960 0.067270
C22   C     C_R   0.521429 0.491980 0.877239 -0.188580
C23   C     C_R   0.499453 0.388050 0.903933 -0.213867
C24   C     C_R   0.594937 0.506881 0.129656 -0.191361
C25   C     C_R   0.620242 0.611122 0.104498 0.135864
C26   C     C_R   0.597898 0.678530 0.001447 0.144828
C27   C     C_R   0.556564 0.639540 0.924498 0.053522
C28   C     C_R   0.615758 0.784351 0.973158 -0.169098
C29   C     C_R   0.591232 0.850413 0.871427 -0.145361
C30   C     C_R   0.526844 0.707923 0.822975 -0.216210
H11   H     H_    0.484766 0.359439 0.845280 0.150140
H12   H     H_    0.485003 0.681251 0.763400 0.158654
H13   H     H_    0.607200 0.931251 0.852090 0.161983
H14   H     H_    0.449934 0.187043 0.971995 0.145885
H15   H     H_    0.440327 0.069636 0.148153 0.165226
H16   H     H_    0.506527 0.318699 0.237312 0.155091
H17   H     H_    0.526664 0.537861 0.798384 0.144693
H18   H     H_    0.616284 0.458322 0.209184 0.157035
H19   H     H_    0.648765 0.817274 0.028997 0.150528
N1    N     N_R   0.585360 0.204570 0.560800 -0.175044
N2    N     N_R   0.414550 0.795430 0.439160 -0.205556
C31   C     C_R   0.758770 0.302902 0.629464 -0.264309
C32   C     C_R   0.707279 0.214056 0.614452 0.049462
C33   C     C_R   0.505774 0.279999 0.527718 0.307229
C34   C     C_R   0.549296 0.366691 0.553489 -0.005676
C35   C     C_R   0.681708 0.380987 0.595779 0.106265
C36   C     C_R   0.469763 0.443548 0.531682 0.021201
C37   C     C_R   0.527681 0.541682 0.526791 0.085747
C38   C     C_R   0.662798 0.554873 0.562424 -0.205851
C39   C     C_R   0.736658 0.474237 0.601120 -0.130167
C40   C     C_R   0.334238 0.422743 0.524000 -0.316588
C41   C     C_R   0.254570 0.499792 0.482614 0.380773
C42   C     C_R   0.311858 0.601880 0.451903 -0.078530
C43   C     C_R   0.447306 0.622037 0.486468 -0.101113
C44   C     C_R   0.237499 0.684307 0.393775 0.273374
C45   C     C_R   0.291727 0.780485 0.390673 -0.010114
C46   C     C_R   0.494332 0.721144 0.482007 0.020195
H20   H     H_    0.839210 0.486501 0.631097 0.179417
H21   H     H_    0.591097 0.738789 0.518584 0.127484
H22   H     H_    0.233919 0.842962 0.353083 0.157753
H23   H     H_    0.859392 0.311141 0.665837 0.171467
H24   H     H_    0.768207 0.154530 0.641324 0.137040
H25   H     H_    0.713782 0.626239 0.562938 0.136274
H26   H     H_    0.289209 0.345534 0.554268 0.183512
C47   C     C_3   0.084937 0.110099 0.304017 -0.844535
H27   H     H_    0.026722 0.048894 0.281264 0.247092
H28   H     H_    0.052509 0.183360 0.246194 0.246969
H29   H     H_    0.188721 0.112475 0.302723 0.219328
C48   C     C_3   0.668981 0.648169 0.189289 -0.770028
H30   H     H_    0.598227 0.693799 0.188429 0.218928
H31   H     H_    0.681951 0.584744 0.265431 0.249745
H32   H     H_    0.764615 0.695088 0.179602 0.268037
N3    N     N_R   0.117553 0.471945 0.483433 0.157153
O9    O     O_R   0.057459 0.515325 0.517435 -0.355723
O10   O     O_R   0.057869 0.392347 0.466690 -0.368895
C49   C     C_3   0.380645 0.278816 0.452766 -0.785309
H33   H     H_    0.299507 0.238026 0.494220 0.208996
H34   H     H_    0.360063 0.356511 0.398818 0.213718
H35   H     H_    0.382528 0.243896 0.401783 0.259360
N4    N     N_R   0.110947 0.673009 0.334349 0.153099
O11   O     O_R   0.024237 0.730368 0.319077 -0.382145
O12   O     O_R   0.088923 0.616827 0.282805 -0.318627
N5    N     N_R   0.170814 0.924212 0.692090 0.124107
O13   O     O_R   0.122115 0.829358 0.720346 -0.372364
O14   O     O_R   0.272703 0.949897 0.749626 -0.363002

loop_
_geom_bond_atom_site_label_1
_geom_bond_atom_site_label_2
_geom_bond_distance
_ccdc_geom_bond_type
N3    O9    1.301586 A    
C39   H20   1.083932 S    
C42   C43   1.423914 A    
C15   C16   1.393770 A    
Cu1   Cu2   2.707064 S    
C47   H27   1.109135 S    
Cu1   O7    1.966928 S    
C10   C11   1.552276 S    
C17   C18   1.402155 A    
N1    C32   1.360688 A    
O4    C2    1.303101 A    
C6    C10   1.550882 S    
C12   H7    1.113451 S    
C18   C19   1.417082 A    
O7    C4    1.298102 A    
C29   H13   1.083107 S    
C1    C13   1.467360 S    
C37   C43   1.438272 A    
C5    H1    1.109555 S    
C49   H35   1.087532 S    
C13   C16   1.400465 A    
C5    C6    1.551132 S    
C21   C22   1.418031 A    
O5    C3    1.304542 A    
Cu1   N2    2.033737 S    
C17   H16   1.076614 S    
C8    N5    1.470538 S    
N2    C46   1.364075 A    
C37   C38   1.412172 A    
C34   C36   1.439573 A    
C43   C46   1.417062 A    
C49   H34   1.108782 S    
C30   H12   1.076299 S    
C8    C9    1.566458 S    
C48   H31   1.111080 S    
C25   C48   1.512281 S    
C5    C47   1.542541 S    
C47   H28   1.110986 S    
H5    C11   1.113864 S    
N3    O10   1.301692 A    
C15   H14   1.083851 S    
C42   C44   1.421099 A    
O3    Cu1   1.961805 S    
C22   H17   1.078122 S    
C27   C30   1.403910 A    
C46   H21   1.076320 S    
N2    C45   1.353297 A    
C26   C28   1.411566 A    
C14   C30   1.394808 A    
C7    H9    1.109736 S    
C31   C35   1.399725 A    
C32   H24   1.080485 S    
C36   C37   1.424079 A    
C33   C49   1.512284 S    
O3    C2    1.294124 A    
C24   H18   1.077717 S    
C19   C23   1.391318 A    
C25   C26   1.409832 A    
C13   C17   1.397131 A    
O1    C1    1.304265 A    
C15   C19   1.403715 A    
C44   C45   1.396960 A    
C31   C32   1.395022 A    
C38   H25   1.078069 S    
Cu2   O8    1.961806 S    
C2    C9    1.481983 S    
C49   H33   1.105171 S    
N4    O12   1.301505 A    
C6    H2    1.113794 S    
C21   C27   1.421433 A    
N5    O14   1.301168 A    
C8    C12   1.547236 S    
C4    C10   1.476238 S    
C48   H32   1.110398 S    
C41   N3    1.438562 S    
C5    C9    1.569200 S    
C31   H23   1.083765 S    
H4    C7    1.111326 S    
C7    C11   1.529308 S    
C7    C9    1.562358 S    
C22   C23   1.388174 A    
C24   C25   1.396501 A    
C28   H19   1.081459 S    
C40   H26   1.078026 S    
C47   H29   1.109627 S    
Cu1   O5    1.933659 S    
C26   C27   1.423625 A    
C20   C21   1.416165 A    
C14   C29   1.397322 A    
C11   H10   1.113809 S    
O1    Cu1   1.944657 S    
O2    Cu2   1.933659 S    
C45   H22   1.081720 S    
O8    C4    1.298299 A    
C41   C42   1.414652 A    
O6    C3    1.303548 A    
O4    Cu2   1.966928 S    
C10   C12   1.552155 S    
N1    C33   1.388778 A    
C33   C34   1.438451 A    
C12   H8    1.112849 S    
O2    C1    1.303774 A    
C3    C14   1.467763 S    
C16   H15   1.082929 S    
Cu2   N1    2.033381 S    
C18   C20   1.422862 A    
C23   H11   1.084440 S    
C35   C39   1.401171 A    
C28   C29   1.391321 A    
C44   N4    1.438340 S    
C6    H3    1.114155 S    
C36   C40   1.403804 A    
C8    H6    1.115413 S    
C38   C39   1.397858 A    
C20   C24   1.413663 A    
C40   C41   1.394735 A    
Cu2   O6    1.944657 S    
C34   C35   1.409483 A    
N5    O13   1.301478 A    
N4    O11   1.301631 A    
C48   H30   1.110367 S    
