data_mof_unit_42178.cif
_audit_creation_date              2012-12-11T15:06:49-0500
_audit_creation_method            fapswitch 2.2
_symmetry_space_group_name_H-M    P1
_symmetry_Int_Tables_number       1
_space_group_crystal_system       monoclinic
_cell_length_a                    19.705311
_cell_length_b                    11.268333
_cell_length_c                    18.721478
_cell_angle_alpha                 90.0
_cell_angle_beta                  90.677109
_cell_angle_gamma                 90.0
_cell_volume                      4156.73913847

loop_
_atom_site_label
_atom_site_type_symbol
_atom_type_description
_atom_site_fract_x
_atom_site_fract_y
_atom_site_fract_z
_atom_type_partial_charge
C1    C     C_R   0.761677 0.522983 0.638729 0.538204
C2    C     C_R   0.238323 0.522983 0.361271 0.538204
C3    C     C_R   0.261677 0.022983 0.638729 0.538204
C4    C     C_R   0.738323 0.022983 0.361271 0.538204
C5    C     C_3   0.806822 0.131554 0.452398 -0.270772
C6    C     C_3   0.193178 0.131554 0.547602 -0.270772
C7    C     C_3   0.306822 0.631554 0.452398 -0.270772
C8    C     C_3   0.693178 0.631554 0.547602 -0.270772
C9    C     C_3   0.744992 0.055195 0.437863 0.059045
C10   C     C_3   0.255008 0.055195 0.562137 0.059045
C11   C     C_3   0.244992 0.555195 0.437863 0.059045
C12   C     C_3   0.755008 0.555195 0.562137 0.059045
C13   C     C_3   0.756243 0.087099 0.575989 0.063108
C14   C     C_3   0.243757 0.087099 0.424011 0.063108
C15   C     C_3   0.256243 0.587099 0.575989 0.063108
C16   C     C_3   0.743757 0.587099 0.424011 0.063108
C17   C     C_3   0.749969 0.954392 0.562624 -0.266009
C18   C     C_3   0.250031 0.954393 0.437376 -0.266009
C19   C     C_3   0.249969 0.454392 0.562624 -0.266009
C20   C     C_3   0.750031 0.454392 0.437376 -0.266009
C21   C     C_3   0.818038 0.131694 0.533313 -0.218207
C22   C     C_3   0.181962 0.131694 0.466687 -0.218207
C23   C     C_3   0.318038 0.631694 0.533313 -0.218207
C24   C     C_3   0.681962 0.631694 0.466687 -0.218207
C25   C     C_3   0.012944 0.200635 0.461478 -0.116689
C26   C     C_3   0.987056 0.200635 0.538522 -0.116689
C27   C     C_3   0.512944 0.700636 0.461478 -0.116689
C28   C     C_3   0.487056 0.700636 0.538522 -0.116689
C29   C     C_3   0.063949 0.404703 0.475600 -0.242285
C30   C     C_3   0.936051 0.404703 0.524400 -0.242285
C31   C     C_3   0.563949 0.904703 0.475600 -0.242285
C32   C     C_3   0.436051 0.904703 0.524400 -0.242285
C33   C     C_3   0.941263 0.381369 0.443807 -0.273394
C34   C     C_3   0.058737 0.381368 0.556193 -0.273394
C35   C     C_3   0.441262 0.881368 0.443807 -0.273394
C36   C     C_3   0.558737 0.881368 0.556193 -0.273394
C37   C     C_3   0.011612 0.329412 0.431013 0.040812
C38   C     C_3   0.988388 0.329412 0.568987 0.040812
C39   C     C_3   0.511612 0.829412 0.431013 0.040812
C40   C     C_3   0.488388 0.829412 0.568987 0.040812
C41   C     C_3   0.814008 0.016465 0.045909 -0.224232
C42   C     C_3   0.185992 0.016465 0.954091 -0.224232
C43   C     C_3   0.314008 0.516464 0.045909 -0.224232
C44   C     C_3   0.685992 0.516464 0.954091 -0.224232
C45   C     C_R   0.772505 0.118130 0.650957 0.529945
C46   C     C_R   0.227495 0.118130 0.349043 0.529945
C47   C     C_R   0.272504 0.618130 0.650957 0.529945
C48   C     C_R   0.727495 0.618130 0.349043 0.529945
C49   C     C_3   0.819486 0.030792 0.966619 -0.228040
C50   C     C_3   0.180513 0.030792 0.033381 -0.228040
C51   C     C_3   0.319486 0.530792 0.966619 -0.228040
C52   C     C_3   0.680513 0.530792 0.033381 -0.228040
C53   C     C_3   0.683405 0.030496 0.030001 -0.216692
C54   C     C_3   0.316595 0.030496 0.969999 -0.216692
C55   C     C_3   0.183405 0.530496 0.030001 -0.216692
C56   C     C_3   0.816595 0.530496 0.969999 -0.216692
C57   C     C_3   0.753754 0.204327 0.061667 -0.261011
C58   C     C_3   0.246246 0.204327 0.938333 -0.261011
C59   C     C_3   0.253754 0.704327 0.061667 -0.261011
C60   C     C_3   0.746246 0.704327 0.938333 -0.261011
C61   C     C_3   0.747107 0.071001 0.074590 0.060996
C62   C     C_3   0.252893 0.071001 0.925410 0.060996
C63   C     C_3   0.247107 0.571001 0.074590 0.060996
C64   C     C_3   0.752893 0.571001 0.925410 0.060996
C65   C     C_3   0.759966 0.105453 0.935887 0.061144
C66   C     C_3   0.240034 0.105453 0.064113 0.061144
C67   C     C_3   0.259966 0.605453 0.935887 0.061144
C68   C     C_3   0.740034 0.605453 0.064113 0.061144
C69   C     C_3   0.696118 0.031040 0.948218 -0.259692
C70   C     C_3   0.303881 0.031040 0.051782 -0.259692
C71   C     C_3   0.196118 0.531040 0.948218 -0.259692
C72   C     C_3   0.803881 0.531040 0.051782 -0.259692
C73   C     C_3   0.749315 0.223134 0.979416 -0.217759
C74   C     C_3   0.250685 0.223134 0.020584 -0.217759
C75   C     C_3   0.249315 0.723134 0.979416 -0.217759
C76   C     C_3   0.750685 0.723134 0.020584 -0.217759
C77   C     C_3   0.004578 0.478705 0.040061 -0.227997
C78   C     C_3   0.995421 0.478705 0.959939 -0.227998
C79   C     C_3   0.504578 0.978705 0.040061 -0.227997
C80   C     C_3   0.495421 0.978705 0.959939 -0.227998
C81   C     C_3   0.063775 0.274585 0.027261 -0.213976
C82   C     C_3   0.936225 0.274585 0.972739 -0.213976
C83   C     C_3   0.563775 0.774585 0.027261 -0.213976
C84   C     C_3   0.436225 0.774585 0.972739 -0.213976
C85   C     C_3   0.941678 0.292357 0.054579 -0.263688
C86   C     C_3   0.058322 0.292357 0.945420 -0.263689
C87   C     C_3   0.441678 0.792357 0.054579 -0.263688
C88   C     C_3   0.558322 0.792357 0.945420 -0.263689
C89   C     C_R   0.968192 0.341642 0.644631 0.543361
C90   C     C_R   0.031808 0.341642 0.355369 0.543361
C91   C     C_R   0.468192 0.841642 0.644631 0.543361
C92   C     C_R   0.531807 0.841642 0.355369 0.543361
C93   C     C_3   0.010609 0.350202 0.069296 0.062556
C94   C     C_3   0.989391 0.350202 0.930704 0.062556
C95   C     C_3   0.510609 0.850202 0.069296 0.062556
C96   C     C_3   0.489391 0.850202 0.930704 0.062556
C97   C     C_R   0.760813 0.534105 0.848918 0.534078
C98   C     C_R   0.239186 0.534105 0.151082 0.534078
C99   C     C_R   0.260813 0.034105 0.848918 0.534078
C100  C     C_R   0.739186 0.034105 0.151082 0.534078
C101  C     C_R   0.774454 0.133204 0.858984 0.529876
C102  C     C_R   0.225546 0.133204 0.141016 0.529876
C103  C     C_R   0.274454 0.633204 0.858984 0.529876
C104  C     C_R   0.725546 0.633204 0.141016 0.529876
C105  C     C_R   0.968583 0.353001 0.854076 0.535557
C106  C     C_R   0.031417 0.353001 0.145924 0.535557
C107  C     C_R   0.468583 0.853001 0.854076 0.535557
C108  C     C_R   0.531417 0.853001 0.145924 0.535557
C109  C     C_3   0.684324 0.129249 0.465738 -0.229085
C110  C     C_3   0.315676 0.129249 0.534262 -0.229085
C111  C     C_3   0.184324 0.629249 0.465738 -0.229085
C112  C     C_3   0.815676 0.629249 0.534262 -0.229085
C113  C     C_3   0.689114 0.142909 0.547301 -0.226617
C114  C     C_3   0.310886 0.142909 0.452698 -0.226617
C115  C     C_3   0.189114 0.642909 0.547301 -0.226617
C116  C     C_3   0.810886 0.642909 0.452698 -0.226617
C117  C     C_3   0.755125 0.937041 0.481252 -0.220574
C118  C     C_3   0.244875 0.937041 0.518748 -0.220573
C119  C     C_3   0.255125 0.437041 0.481252 -0.220573
C120  C     C_3   0.744875 0.437041 0.518748 -0.220574
Cr1   Cr    Cr6+3 0.885690 0.492860 0.745310 1.000210
Cr2   Cr    Cr6+3 0.114310 0.492860 0.254690 1.000210
Cr3   Cr    Cr6+3 0.385690 0.992860 0.745310 1.000210
Cr4   Cr    Cr6+3 0.614310 0.992860 0.254690 1.000210
Cr5   Cr    Cr6+3 0.729880 0.332270 0.748190 1.011789
Cr6   Cr    Cr6+3 0.270120 0.332270 0.251810 1.011789
Cr7   Cr    Cr6+3 0.229880 0.832270 0.748190 1.011789
Cr8   Cr    Cr6+3 0.770120 0.832270 0.251810 1.011789
Cr9   Cr    Cr6+3 0.888120 0.178590 0.753010 1.021976
Cr10  Cr    Cr6+3 0.111880 0.178590 0.246990 1.021977
Cr11  Cr    Cr6+3 0.388120 0.678590 0.753010 1.021976
Cr12  Cr    Cr6+3 0.611880 0.678590 0.246990 1.021977
H1    H     H_    0.636034 0.091605 0.449449 0.136135
H2    H     H_    0.363966 0.091605 0.550551 0.136135
H3    H     H_    0.136034 0.591605 0.449449 0.136135
H4    H     H_    0.863966 0.591605 0.550551 0.136135
H5    H     H_    0.858519 0.065076 0.544561 0.144592
H6    H     H_    0.141480 0.065076 0.455439 0.144592
H7    H     H_    0.358519 0.565076 0.544561 0.144592
H8    H     H_    0.641480 0.565076 0.455439 0.144592
H9    H     H_    0.807850 0.907798 0.471689 0.135070
H10   H     H_    0.192149 0.907798 0.528311 0.135070
H11   H     H_    0.307851 0.407798 0.471689 0.135070
H12   H     H_    0.692149 0.407798 0.528311 0.135070
H13   H     H_    0.791172 0.905376 0.590887 0.124064
H14   H     H_    0.208828 0.905376 0.409113 0.124064
H15   H     H_    0.291172 0.405376 0.590887 0.124064
H16   H     H_    0.708828 0.405376 0.409113 0.124064
H17   H     H_    0.064328 0.177918 0.465773 0.112211
H18   H     H_    0.935672 0.177918 0.534226 0.112211
H19   H     H_    0.564328 0.677918 0.465774 0.112211
H20   H     H_    0.435672 0.677918 0.534226 0.112211
H21   H     H_    0.615945 0.891135 0.457489 0.112926
H22   H     H_    0.384055 0.891135 0.542510 0.112926
H23   H     H_    0.115945 0.391135 0.457489 0.112926
H24   H     H_    0.884055 0.391135 0.542511 0.112926
H25   H     H_    0.598286 0.818278 0.574555 0.113571
H26   H     H_    0.401714 0.818278 0.425445 0.113571
H27   H     H_    0.098286 0.318278 0.574555 0.113571
H28   H     H_    0.901714 0.318278 0.425445 0.113571
H29   H     H_    0.934370 0.465346 0.413731 0.128613
H30   H     H_    0.065630 0.465346 0.586269 0.128613
H31   H     H_    0.434370 0.965346 0.413731 0.128614
H32   H     H_    0.565630 0.965346 0.586269 0.128614
H33   H     H_    0.950061 0.498911 0.532795 0.140881
H34   H     H_    0.049939 0.498911 0.467205 0.140881
H35   H     H_    0.450061 0.998911 0.532795 0.140881
H36   H     H_    0.549939 0.998911 0.467205 0.140881
H37   H     H_    0.819339 0.922640 0.058903 0.137904
H38   H     H_    0.180660 0.922640 0.941097 0.137904
H39   H     H_    0.319339 0.422640 0.058903 0.137904
H40   H     H_    0.680661 0.422640 0.941097 0.137904
H41   H     H_    0.683769 0.218213 0.440587 0.111182
H42   H     H_    0.316231 0.218213 0.559413 0.111182
H43   H     H_    0.183769 0.718213 0.440587 0.111182
H44   H     H_    0.816231 0.718213 0.559413 0.111182
H45   H     H_    0.858495 0.058755 0.072626 0.118159
H46   H     H_    0.141505 0.058755 0.927373 0.118159
H47   H     H_    0.358495 0.558755 0.072626 0.118159
H48   H     H_    0.641505 0.558755 0.927373 0.118159
H49   H     H_    0.868805 0.069357 0.955059 0.133078
H50   H     H_    0.131195 0.069357 0.044941 0.133078
H51   H     H_    0.368805 0.569357 0.955059 0.133078
H52   H     H_    0.631195 0.569357 0.044941 0.133078
H53   H     H_    0.820551 0.942021 0.940839 0.117139
H54   H     H_    0.179449 0.942021 0.059161 0.117139
H55   H     H_    0.320551 0.442021 0.940839 0.117139
H56   H     H_    0.679449 0.442021 0.059161 0.117139
H57   H     H_    0.662015 0.947930 0.049051 0.110320
H58   H     H_    0.337985 0.947930 0.950949 0.110321
H59   H     H_    0.162015 0.447930 0.049051 0.110320
H60   H     H_    0.837985 0.447930 0.950949 0.110321
H61   H     H_    0.703179 0.939883 0.927880 0.109282
H62   H     H_    0.296821 0.939883 0.072120 0.109282
H63   H     H_    0.203179 0.439883 0.927880 0.109282
H64   H     H_    0.796821 0.439883 0.072120 0.109282
H65   H     H_    0.712393 0.252919 0.088917 0.110849
H66   H     H_    0.287607 0.252919 0.911083 0.110849
H67   H     H_    0.212393 0.752919 0.088917 0.110849
H68   H     H_    0.787607 0.752919 0.911083 0.110849
H69   H     H_    0.802491 0.237795 0.083712 0.108881
H70   H     H_    0.197509 0.237795 0.916288 0.108881
H71   H     H_    0.302491 0.737795 0.083712 0.108881
H72   H     H_    0.697509 0.737795 0.916288 0.108881
H73   H     H_    0.781002 0.295386 0.961762 0.108377
H74   H     H_    0.218997 0.295386 0.038238 0.108377
H75   H     H_    0.281002 0.795386 0.961762 0.108377
H76   H     H_    0.718997 0.795386 0.038238 0.108377
H77   H     H_    0.696604 0.250865 0.967967 0.118315
H78   H     H_    0.303396 0.250865 0.032033 0.118315
H79   H     H_    0.196604 0.750865 0.967967 0.118315
H80   H     H_    0.803396 0.750865 0.032033 0.118315
H81   H     H_    0.643927 0.098108 0.039716 0.118152
H82   H     H_    0.356072 0.098108 0.960284 0.118152
H83   H     H_    0.143927 0.598108 0.039716 0.118152
H84   H     H_    0.856073 0.598108 0.960284 0.118152
H85   H     H_    0.684590 0.236011 0.562432 0.144628
H86   H     H_    0.315410 0.236011 0.437568 0.144628
H87   H     H_    0.184590 0.736011 0.562432 0.144628
H88   H     H_    0.815410 0.736011 0.437568 0.144628
H89   H     H_    0.652032 0.070135 0.919141 0.111483
H90   H     H_    0.347968 0.070135 0.080859 0.111483
H91   H     H_    0.152032 0.570135 0.919141 0.111483
H92   H     H_    0.847968 0.570135 0.080859 0.111483
H93   H     H_    0.048524 0.532897 0.054294 0.133894
H94   H     H_    0.951476 0.532897 0.945706 0.133895
H95   H     H_    0.548524 0.032897 0.054294 0.133894
H96   H     H_    0.451476 0.032897 0.945706 0.133895
H97   H     H_    0.961038 0.524855 0.065023 0.116026
H98   H     H_    0.038962 0.524855 0.934977 0.116026
H99   H     H_    0.461038 0.024855 0.065023 0.116026
H100  H     H_    0.538962 0.024855 0.934977 0.116026
H101  H     H_    0.615118 0.784345 0.047868 0.111491
H102  H     H_    0.384882 0.784345 0.952132 0.111491
H103  H     H_    0.115118 0.284345 0.047868 0.111491
H104  H     H_    0.884882 0.284345 0.952132 0.111491
H105  H     H_    0.599884 0.849248 0.925939 0.109302
H106  H     H_    0.400116 0.849248 0.074061 0.109302
H107  H     H_    0.099883 0.349248 0.925939 0.109302
H108  H     H_    0.900116 0.349248 0.074061 0.109302
H109  H     H_    0.938129 0.205747 0.082594 0.111634
H110  H     H_    0.061870 0.205747 0.917406 0.111634
H111  H     H_    0.438130 0.705747 0.082594 0.111634
H112  H     H_    0.561870 0.705747 0.917406 0.111634
H113  H     H_    0.949722 0.180970 0.962321 0.122131
H114  H     H_    0.050277 0.180970 0.037679 0.122131
H115  H     H_    0.449722 0.680970 0.962321 0.122131
H116  H     H_    0.550277 0.680970 0.037679 0.122131
H117  H     H_    0.644953 0.100096 0.572514 0.109568
H118  H     H_    0.355047 0.100096 0.427486 0.109568
H119  H     H_    0.144953 0.600096 0.572514 0.109568
H120  H     H_    0.855047 0.600096 0.427486 0.109568
H121  H     H_    0.721879 0.867168 0.462484 0.108551
H122  H     H_    0.278121 0.867168 0.537516 0.108552
H123  H     H_    0.221879 0.367168 0.462484 0.108551
H124  H     H_    0.778121 0.367168 0.537516 0.108552
H125  H     H_    0.701056 0.920777 0.582945 0.106562
H126  H     H_    0.298944 0.920777 0.417055 0.106562
H127  H     H_    0.201056 0.420777 0.582945 0.106562
H128  H     H_    0.798944 0.420777 0.417055 0.106562
H129  H     H_    0.851337 0.094342 0.425755 0.165245
H130  H     H_    0.148663 0.094342 0.574245 0.165245
H131  H     H_    0.351337 0.594342 0.425755 0.165245
H132  H     H_    0.648663 0.594342 0.574245 0.165245
H133  H     H_    0.799489 0.222410 0.431589 0.103455
H134  H     H_    0.200511 0.222410 0.568411 0.103455
H135  H     H_    0.299489 0.722410 0.431589 0.103455
H136  H     H_    0.700511 0.722410 0.568411 0.103455
H137  H     H_    0.834920 0.218563 0.552588 0.105094
H138  H     H_    0.165079 0.218563 0.447412 0.105093
H139  H     H_    0.334920 0.718563 0.552588 0.105094
H140  H     H_    0.665080 0.718563 0.447412 0.105093
O1    O     O_R   0.957210 0.449410 0.665480 -0.532325
O2    O     O_R   0.042790 0.449410 0.334520 -0.532325
O3    O     O_R   0.457210 0.949410 0.665480 -0.532325
O4    O     O_R   0.542790 0.949410 0.334520 -0.532325
O5    O     O_R   0.736260 0.212010 0.826560 -0.511210
O6    O     O_R   0.263740 0.212010 0.173440 -0.511210
O7    O     O_R   0.236260 0.712010 0.826560 -0.511210
O8    O     O_R   0.763740 0.712010 0.173440 -0.511210
O9    O     O_R   0.832520 0.095300 0.836000 -0.533122
O10   O     O_R   0.167480 0.095300 0.164000 -0.533122
O11   O     O_R   0.332520 0.595300 0.836000 -0.533122
O12   O     O_R   0.667480 0.595300 0.164000 -0.533122
O13   O     O_R   0.946380 0.253940 0.826940 -0.509880
O14   O     O_R   0.053620 0.253940 0.173060 -0.509880
O15   O     O_R   0.446380 0.753940 0.826940 -0.509880
O16   O     O_R   0.553620 0.753940 0.173060 -0.509880
O17   O     O_3   0.834560 0.334570 0.748840 -0.281357
O18   O     O_3   0.165440 0.334570 0.251160 -0.281357
O19   O     O_3   0.334560 0.834570 0.748840 -0.281357
O20   O     O_3   0.665440 0.834570 0.251160 -0.281357
O21   O     O_R   0.820730 0.541240 0.668250 -0.516417
O22   O     O_R   0.179270 0.541240 0.331750 -0.516418
O23   O     O_R   0.320730 0.041240 0.668250 -0.516417
O24   O     O_R   0.679270 0.041240 0.331750 -0.516418
O25   O     O_R   0.714240 0.455060 0.663710 -0.511123
O26   O     O_R   0.285760 0.455060 0.336290 -0.511122
O27   O     O_R   0.214240 0.955060 0.663710 -0.511123
O28   O     O_R   0.785760 0.955060 0.336290 -0.511122
O29   O     O_R   0.736780 0.204870 0.675910 -0.514611
O30   O     O_R   0.263220 0.204870 0.324090 -0.514611
O31   O     O_R   0.236780 0.704870 0.675910 -0.514611
O32   O     O_R   0.763220 0.704870 0.324090 -0.514611
O33   O     O_R   0.833070 0.087590 0.673490 -0.521090
O34   O     O_R   0.166930 0.087590 0.326510 -0.521091
O35   O     O_R   0.333070 0.587590 0.673490 -0.521090
O36   O     O_R   0.666930 0.587590 0.326510 -0.521091
O37   O     O_R   0.946890 0.246800 0.676300 -0.492100
O38   O     O_R   0.053110 0.246800 0.323700 -0.492101
O39   O     O_R   0.446890 0.746800 0.676300 -0.492100
O40   O     O_R   0.553110 0.746800 0.323700 -0.492101
O41   O     O_R   0.956650 0.457120 0.827980 -0.531126
O42   O     O_R   0.043350 0.457120 0.172020 -0.531126
O43   O     O_R   0.456650 0.957120 0.827980 -0.531126
O44   O     O_R   0.543350 0.957120 0.172020 -0.531126
O45   O     O_R   0.820220 0.548390 0.818890 -0.509537
O46   O     O_R   0.179780 0.548390 0.181110 -0.509537
O47   O     O_R   0.320220 0.048390 0.818890 -0.509537
O48   O     O_R   0.679780 0.048390 0.181110 -0.509537
O49   O     O_R   0.713680 0.462770 0.826210 -0.527365
O50   O     O_R   0.286320 0.462770 0.173790 -0.527365
O51   O     O_R   0.213680 0.962770 0.826210 -0.527365
O52   O     O_R   0.786320 0.962770 0.173790 -0.527365
C121  C     C_1   0.982499 0.107320 0.415896 0.173166
N1    N     N_1   0.960968 0.033002 0.379450 -0.306604
C122  C     C_1   0.017501 0.107320 0.584104 0.173166
N2    N     N_1   0.039032 0.033002 0.620549 -0.306604
C123  C     C_1   0.482499 0.607320 0.415896 0.173166
N3    N     N_1   0.460968 0.533002 0.379450 -0.306604
C124  C     C_1   0.517501 0.607320 0.584104 0.173166
N4    N     N_1   0.539032 0.533002 0.620549 -0.306604

loop_
_geom_bond_atom_site_label_1
_geom_bond_atom_site_label_2
_ccdc_geom_bond_type
C78   H94   S    
C5    H133  S    
C82   C94   S    
C119  H11   S    
C120  H12   S    
C21   H5    S    
C53   C69   S    
C104  O8    A    
C56   H60   S    
C43   C63   S    
C44   C64   S    
Cr6   O6    S    
C102  O10   A    
C84   H115  S    
C112  H4    S    
C63   C98   S    
C51   H51   S    
Cr2   O2    S    
C19   H127  S    
C109  H41   S    
C28   C40   S    
C72   H92   S    
C30   C38   S    
C113  H85   S    
C42   H38   S    
C75   H75   S    
C56   C72   S    
C45   O33   A    
C8    H132  S    
C18   C118  S    
C81   C86   S    
C29   H23   S    
C30   H24   S    
C83   C88   S    
C87   H106  S    
C48   O32   A    
C5    H129  S    
C41   C49   S    
Cr8   O28   S    
Cr1   O45   S    
Cr2   O42   S    
Cr3   O47   S    
Cr4   O48   S    
C26   C38   S    
Cr10  O34   S    
C14   C114  S    
Cr11  O39   S    
C60   C76   S    
C35   H31   S    
Cr8   O52   S    
C55   H59   S    
C29   H34   S    
C33   H29   S    
C44   H40   S    
C88   H112  S    
C54   C70   S    
C48   O36   A    
C68   C72   S    
C23   H139  S    
C69   H61   S    
C13   C21   S    
C99   O47   A    
C79   H99   S    
C32   H22   S    
C64   C97   S    
C17   H13   S    
C15   C115  S    
C20   C120  S    
C1    O25   A    
C54   H82   S    
C43   H39   S    
C57   H65   S    
C59   C63   S    
C52   H52   S    
Cr4   O20   S    
C72   H64   S    
C57   C61   S    
C82   C85   S    
Cr6   O50   S    
C77   H97   S    
Cr11  O19   S    
C60   C64   S    
Cr9   O13   S    
C13   C45   S    
C102  O6    A    
C78   C94   S    
C69   H89   S    
C95   C108  S    
C60   H68   S    
C62   C99   S    
C107  O43   A    
C5    C21   S    
C58   H70   S    
C79   H95   S    
C31   C36   S    
C75   H79   S    
C47   O35   A    
C4    O28   A    
C97   O45   A    
Cr5   O17   S    
C90   O38   A    
Cr1   O21   S    
C107  O15   A    
Cr2   O18   S    
C65   C101  S    
Cr10  O14   S    
Cr3   O23   S    
Cr11  O11   S    
C67   C103  S    
C66   C70   S    
Cr5   O5    S    
C37   C90   S    
C24   H140  S    
C41   H45   S    
C42   H46   S    
C55   H83   S    
C115  H119  S    
C66   C74   S    
C113  H117  S    
C25   H17   S    
C57   C73   S    
C53   C61   S    
C60   H72   S    
C83   H101  S    
C55   C63   S    
C6    H134  S    
C56   C64   S    
C7    H131  S    
Cr7   O51   S    
C116  H88   S    
C42   C62   S    
C33   H28   S    
Cr5   O29   S    
C34   H27   S    
C76   H80   S    
C50   H50   S    
C1    C12   S    
Cr9   O33   S    
C80   H100  S    
C2    C11   S    
Cr3   O3    S    
C110  H42   S    
C6    H130  S    
Cr9   O37   S    
C25   C26   S    
C105  O13   A    
C84   H102  S    
C5    C9    S    
C108  O16   A    
C93   C106  S    
C71   H63   S    
C8    C12   S    
C90   O2    A    
C51   C67   S    
C7    H135  S    
C36   H25   S    
C42   C50   S    
C49   H49   S    
C112  H44   S    
Cr2   O46   S    
Cr3   O43   S    
C110  H2    S    
C61   C100  S    
C67   C75   S    
C17   H125  S    
C50   H54   S    
C112  C116  S    
C58   C74   S    
Cr10  O38   S    
Cr11  O35   S    
C53   H81   S    
C54   H58   S    
C81   H114  S    
C30   H33   S    
C34   H30   S    
C68   C76   S    
C1    O21   A    
C98   O46   A    
C85   H108  S    
C14   C22   S    
C3    O23   A    
C26   C122  S    
C7    C23   S    
C8    C24   S    
C40   C91   S    
C101  O9    A    
C56   H84   S    
Cr7   O27   S    
C99   O51   A    
Cr8   O20   S    
C114  H86   S    
C49   H53   S    
C57   H69   S    
C52   H56   S    
Cr7   O7    S    
C4    C9    S    
Cr4   O24   S    
C53   H57   S    
Cr8   O8    S    
C86   H110  S    
C58   C62   S    
C89   O1    A    
C88   C96   S    
C94   C105  S    
C77   H93   S    
C82   H104  S    
C12   C112  S    
C44   H48   S    
C21   H137  S    
C14   C46   S    
C77   C78   S    
C15   C19   S    
C43   H47   S    
C101  O5    A    
C92   O40   A    
C25   C121  S    
C6    C22   S    
C2    O22   A    
C73   H73   S    
Cr6   O18   S    
Cr2   O22   S    
C103  O7    A    
Cr3   O19   S    
C46   O34   A    
C82   H113  S    
C17   C117  S    
C19   C119  S    
C81   H103  S    
Cr12  O36   S    
C16   C116  S    
C76   H76   S    
C9    C109  S    
C27   C39   S    
C26   H18   S    
C105  O41   A    
C54   C62   S    
C18   H14   S    
C27   C123  S    
C28   C124  S    
C109  H1    S    
C29   C34   S    
C108  O44   A    
C19   H15   S    
C41   C61   S    
C117  H9    S    
C124  N4    T    
C79   C95   S    
Cr5   O25   S    
Cr6   O30   S    
C70   H62   S    
C85   H109  S    
C86   H107  S    
C80   H96   S    
Cr12  O12   S    
C96   C107  S    
C91   O39   A    
C100  O52   A    
C39   C92   S    
C33   C37   S    
C73   H77   S    
C27   H19   S    
C106  O14   A    
C14   C18   S    
C68   C104  S    
C119  H123  S    
C6    C10   S    
C13   C17   S    
C78   H98   S    
C22   H6    S    
Cr5   O49   S    
C91   O3    A    
C35   H26   S    
C122  N2    T    
C104  O12   A    
C43   C51   S    
C41   H37   S    
C65   C69   S    
C77   C93   S    
C70   H90   S    
C10   C110  S    
C67   C71   S    
C121  N1    T    
C111  H3    S    
Cr1   O1    S    
C18   H126  S    
C51   H55   S    
C3    O27   A    
C59   H71   S    
C31   H36   S    
C32   H35   S    
C29   C37   S    
C36   H32   S    
C11   C111  S    
C9    C117  S    
C123  N3    T    
C66   C102  S    
C35   C39   S    
C84   C87   S    
C15   C47   S    
C8    H136  S    
C11   C119  S    
C16   C48   S    
C7    C11   S    
C38   C89   S    
C49   C65   S    
C74   H78   S    
C111  H43   S    
C23   H7    S    
Cr7   O31   S    
Cr8   O32   S    
Cr1   O41   S    
C114  H118  S    
C65   C73   S    
C84   C96   S    
Cr4   O44   S    
C86   C94   S    
C25   C37   S    
C12   C120  S    
C59   H67   S    
C83   H116  S    
Cr12  O20   S    
C55   C71   S    
C80   C96   S    
C118  H122  S    
C52   C68   S    
C16   C20   S    
C22   H138  S    
C15   C23   S    
Cr9   O17   S    
C16   C24   S    
C115  H87   S    
C85   C93   S    
C2    O26   A    
C103  O11   A    
C31   H21   S    
C71   H91   S    
C117  H121  S    
C120  H124  S    
C32   C35   S    
C36   C40   S    
C97   O49   A    
Cr7   O19   S    
C116  H120  S    
C87   C95   S    
C46   O30   A    
C10   C118  S    
C81   C93   S    
C87   H111  S    
C83   C95   S    
Cr10  O18   S    
C20   H16   S    
Cr12  O40   S    
Cr9   O9    S    
C50   C66   S    
C100  O48   A    
C20   H128  S    
C28   H20   S    
C45   O29   A    
C92   O4    A    
C24   H8    S    
C59   C75   S    
C106  O42   A    
C74   H74   S    
C110  C114  S    
C58   H66   S    
C30   C33   S    
C34   C38   S    
C47   O31   A    
C4    O24   A    
C118  H10   S    
C89   O37   A    
Cr6   O26   S    
C109  C113  S    
Cr1   O17   S    
Cr10  O10   S    
C3    C10   S    
Cr11  O15   S    
Cr4   O4    S    
C44   C52   S    
Cr12  O16   S    
C88   H105  S    
C31   C39   S    
C32   C40   S    
C79   C80   S    
C98   O50   A    
C27   C28   S    
C111  C115  S    
C13   C113  S    
