data_mof_unit_17016.cif
_audit_creation_date              2012-10-26T18:40:17-0400
_audit_creation_method            fapswitch 2.2
_symmetry_space_group_name_H-M    P1
_symmetry_Int_Tables_number       1
_space_group_crystal_system       triclinic
_cell_length_a                    8.71071
_cell_length_b                    15.108978
_cell_length_c                    13.891009
_cell_angle_alpha                 89.976307
_cell_angle_beta                  98.238836
_cell_angle_gamma                 90.513303
_cell_volume                      1809.25315665

loop_
_atom_site_label
_atom_site_type_symbol
_atom_type_description
_atom_site_fract_x
_atom_site_fract_y
_atom_site_fract_z
_atom_type_partial_charge
C1    C     C_R   0.498854 0.329935 0.499821 0.534094
C2    C     C_R   0.587310 0.561689 0.900233 -0.128446
C3    C     C_R   0.502659 0.498306 0.054735 -0.011969
C4    C     C_R   0.501929 0.498394 0.945342 -0.013474
C5    C     C_R   0.203642 0.499662 0.474979 0.539989
C6    C     C_R   0.796362 0.499825 0.525002 0.544587
C7    C     C_2   0.037541 0.499254 0.461242 -0.159096
C8    C     C_2   0.962473 0.499412 0.538650 -0.166966
C9    C     C_R   0.409070 0.096049 0.566044 0.263505
C10   C     C_R   0.426695 0.902597 0.409919 0.246944
C11   C     C_R   0.423109 0.188024 0.569373 -0.110615
C12   C     C_R   0.499404 0.670131 0.499874 0.547989
C13   C     C_R   0.438371 0.810609 0.411878 -0.117199
C14   C     C_R   0.491952 0.233510 0.498606 -0.039086
C15   C     C_R   0.493604 0.766655 0.498591 -0.035172
C16   C     C_R   0.550730 0.186581 0.425296 -0.178687
C17   C     C_R   0.541498 0.815355 0.583461 -0.161448
C18   C     C_R   0.544056 0.094749 0.424023 -0.147935
C19   C     C_R   0.535690 0.907244 0.581312 -0.147267
C20   C     C_R   0.474701 0.048685 0.494421 0.040483
C21   C     C_R   0.478152 0.951532 0.494998 0.039795
C22   C     C_3   0.188532 0.025388 0.599733 0.012590
C23   C     C_R   0.625236 0.536481 0.119412 -0.162128
C24   C     C_3   0.072178 0.100775 0.601720 -0.278406
C25   C     C_3   0.905940 0.068304 0.571195 -0.478888
C26   C     C_3   0.208207 0.944847 0.311196 0.001687
C27   C     C_3   0.146749 0.961685 0.204237 -0.253391
C28   C     C_3   0.970033 0.967326 0.187557 -0.488015
C29   C     C_3   0.252898 0.331012 0.225844 0.011598
C30   C     C_3   0.144813 0.292573 0.293181 -0.239964
C31   C     C_3   0.131561 0.192175 0.284374 -0.497818
C32   C     C_3   0.836524 0.616514 0.791882 0.003967
C33   C     C_3   0.894611 0.706090 0.834343 -0.280516
C34   C     C_R   0.415702 0.435632 0.883970 -0.165961
C35   C     C_3   0.068620 0.704520 0.870328 -0.477263
C36   C     C_R   0.620519 0.537766 0.220285 -0.003280
C37   C     C_R   0.414534 0.438434 0.782625 -0.005422
C38   C     C_R   0.381964 0.459214 0.198315 0.411888
C39   C     C_R   0.590570 0.559543 0.798681 0.423312
C40   C     C_R   0.379496 0.460578 0.096439 -0.130472
Cu1   Cu    Cu3+1 0.500000 0.499990 0.596430 0.979009
Cu2   Cu    Cu3+1 0.500000 0.500010 0.403570 0.976052
H1    H     H_    0.976935 0.499031 0.387148 0.132094
H2    H     H_    0.350084 0.383661 0.913333 0.095881
H3    H     H_    0.714744 0.568854 0.267847 0.129314
H4    H     H_    0.346036 0.390351 0.736961 0.121868
H5    H     H_    0.278931 0.433655 0.050894 0.090293
H6    H     H_    0.650870 0.613545 0.942631 0.092752
H7    H     H_    0.156264 0.970966 0.646983 0.156536
H8    H     H_    0.180165 0.997039 0.525249 0.112112
H9    H     H_    0.082935 0.128679 0.676430 0.172469
H10   H     H_    0.097600 0.154218 0.551195 0.148963
H11   H     H_    0.891529 0.042394 0.495560 0.142267
H12   H     H_    0.023205 0.499365 0.612700 0.116148
H13   H     H_    0.824890 0.124159 0.574435 0.164234
H14   H     H_    0.875963 0.015299 0.620909 0.147221
H15   H     H_    0.169271 0.999069 0.355783 0.130732
H16   H     H_    0.157729 0.880779 0.332547 0.120618
H17   H     H_    0.196863 0.024504 0.180448 0.170227
H18   H     H_    0.183302 0.906962 0.159348 0.169420
H19   H     H_    0.917748 0.903900 0.207859 0.151719
H20   H     H_    0.929261 0.980615 0.109504 0.147557
H21   H     H_    0.930544 0.021764 0.231538 0.145034
H22   H     H_    0.370129 0.301421 0.245665 0.136013
H23   H     H_    0.376247 0.223919 0.625941 0.128648
H24   H     H_    0.206719 0.313140 0.149405 0.108209
H25   H     H_    0.189630 0.310167 0.369782 0.178257
H26   H     H_    0.027515 0.321677 0.274654 0.164618
H27   H     H_    0.080549 0.173326 0.209239 0.144953
H28   H     H_    0.055224 0.166519 0.335778 0.136391
H29   H     H_    0.247462 0.161521 0.302317 0.172529
H30   H     H_    0.899584 0.601345 0.729944 0.160695
H31   H     H_    0.867371 0.563365 0.847052 0.102161
H32   H     H_    0.870513 0.758021 0.777588 0.166241
H33   H     H_    0.832111 0.723343 0.895978 0.155565
H34   H     H_    0.400902 0.773713 0.345665 0.141328
H35   H     H_    0.095132 0.654170 0.928516 0.152719
H36   H     H_    0.107272 0.770405 0.900409 0.149201
H37   H     H_    0.133876 0.688937 0.809427 0.156700
H38   H     H_    0.605086 0.220825 0.370339 0.128478
H39   H     H_    0.585939 0.782544 0.650931 0.167328
H40   H     H_    0.596525 0.059539 0.369334 0.154908
H41   H     H_    0.577694 0.943935 0.646933 0.152418
H42   H     H_    0.725724 0.564919 0.093159 0.100269
N1    N     N_R   0.500000 0.500020 0.258690 -0.213099
N2    N     N_R   0.500000 0.499980 0.741310 -0.211635
O1    O     O_R   0.500010 0.371450 0.581430 -0.517137
O2    O     O_3   0.372021 0.944138 0.323221 -0.585608
O3    O     O_3   0.257297 0.423926 0.236795 -0.542407
O4    O     O_3   0.676214 0.621736 0.755342 -0.546886
O5    O     O_R   0.499990 0.628550 0.418570 -0.514223
O6    O     O_R   0.500010 0.371460 0.418560 -0.495950
O7    O     O_R   0.499990 0.628540 0.581440 -0.448874
O8    O     O_R   0.274840 0.499990 0.562640 -0.517262
O9    O     O_R   0.725160 0.500010 0.437360 -0.517212
O10   O     O_R   0.274840 0.500000 0.399770 -0.439225
O11   O     O_R   0.725160 0.500000 0.600230 -0.479284
O12   O     O_3   0.340728 0.053507 0.637616 -0.584893

loop_
_geom_bond_atom_site_label_1
_geom_bond_atom_site_label_2
_ccdc_geom_bond_type
C24   H10   S    
C40   H5    S    
C1    O1    A    
C9    O12   S    
C22   O12   S    
C34   C37   A    
Cu1   Cu2   S    
C12   O5    A    
C3    C23   A    
C25   H14   S    
C29   O3    S    
C5    O8    A    
C7    C8    D    
C32   H30   S    
Cu1   N2    S    
C38   O3    S    
C10   O2    S    
C26   C27   S    
Cu2   O10   S    
C22   C24   S    
C19   C21   A    
C25   H11   S    
C27   H18   S    
C30   C31   S    
C33   C35   S    
C11   C14   A    
Cu2   O5    S    
C18   H40   S    
C2    C39   A    
C33   H33   S    
C31   H28   S    
C32   O4    S    
C12   C15   S    
C7    H1    S    
C17   H39   S    
C39   O4    S    
C18   C20   A    
C30   H25   S    
C22   H8    S    
C28   H19   S    
C24   H9    S    
C31   H29   S    
C29   H22   S    
C19   H41   S    
C10   C21   A    
Cu1   O1    S    
C4    C34   A    
C23   H42   S    
C38   N1    A    
Cu2   O9    S    
C6    O11   A    
C37   N2    A    
C34   H2    S    
C24   C25   S    
C8    H12   S    
C32   H31   S    
C5    C7    S    
C6    C8    S    
C2    H6    S    
C35   H35   S    
C16   H38   S    
C2    C4    A    
C29   C30   S    
C26   H16   S    
C9    C20   A    
Cu1   O8    S    
C13   H34   S    
C36   H3    S    
Cu2   N1    S    
C9    C11   A    
C22   H7    S    
C26   O2    S    
C3    C40   A    
C23   C36   A    
C1    O6    A    
C13   C15   A    
C14   C16   A    
C12   O7    A    
C3    C4    S    
C5    O10   A    
C15   C17   A    
Cu2   O6    S    
C25   H13   S    
C10   C13   A    
C36   N1    A    
C35   H36   S    
Cu1   O7    S    
C32   C33   S    
C27   H17   S    
C38   C40   A    
C35   H37   S    
C17   C19   A    
Cu1   O11   S    
C26   H15   S    
C29   H24   S    
C28   H21   S    
C33   H32   S    
C31   H27   S    
C20   C21   S    
C16   C18   A    
C6    O9    A    
C27   C28   S    
C1    C14   S    
C39   N2    A    
C37   H4    S    
C30   H26   S    
C11   H23   S    
C28   H20   S    
