data_mof_unit_25796.cif
_audit_creation_date              2012-12-10T16:51:12-0500
_audit_creation_method            fapswitch 2.2
_symmetry_space_group_name_H-M    P1
_symmetry_Int_Tables_number       1
_space_group_crystal_system       triclinic
_cell_length_a                    27.773577
_cell_length_b                    8.655093
_cell_length_c                    7.461327
_cell_angle_alpha                 103.152317
_cell_angle_beta                  94.237792
_cell_angle_gamma                 92.458877
_cell_volume                      1738.45600173

loop_
_atom_site_label
_atom_site_type_symbol
_atom_type_description
_atom_site_fract_x
_atom_site_fract_y
_atom_site_fract_z
_atom_type_partial_charge
C1    C     C_R   0.498521 0.199675 0.453080 0.888401
C2    C     C_R   0.501455 0.800323 0.546922 0.888959
C3    C     C_R   0.102060 0.498525 0.487656 -0.055498
C4    C     C_R   0.897376 0.513320 0.454893 -0.056883
C5    C     C_R   0.124441 0.355868 0.416190 -0.062669
C6    C     C_R   0.875006 0.658164 0.514640 -0.071234
C7    C     C_R   0.094879 0.217800 0.330443 -0.022069
C8    C     C_R   0.904499 0.800741 0.574251 -0.023755
C9    C     C_R   0.131089 0.637851 0.571049 -0.007954
C10   C     C_R   0.868400 0.370391 0.392789 -0.006925
C11   C     C_R   0.354880 0.499645 0.507772 -0.050215
C12   C     C_R   0.645330 0.502479 0.489986 -0.055813
C13   C     C_R   0.970362 0.363893 0.395982 0.051734
C14   C     C_R   0.029043 0.648090 0.544502 0.050558
C15   C     C_R   0.977795 0.653038 0.527371 0.033243
C16   C     C_R   0.021591 0.361753 0.397155 0.031630
C17   C     C_R   0.948674 0.510275 0.458905 0.070154
C18   C     C_R   0.050730 0.502703 0.476204 0.068143
C19   C     C_R   0.939851 0.223497 0.336424 -0.215236
C20   C     C_R   0.059567 0.783630 0.631374 -0.209530
C21   C     C_R   0.890033 0.227309 0.333385 -0.121410
C22   C     C_R   0.109436 0.778462 0.643230 -0.125911
C23   C     C_R   0.407604 0.499772 0.502383 0.800007
C24   C     C_R   0.592482 0.500570 0.497469 0.804514
C25   C     C_R   0.044716 0.222578 0.320939 -0.255250
C26   C     C_R   0.954628 0.796883 0.577106 -0.258723
C27   C     C_2   0.497810 0.031494 0.426836 -0.366769
C28   C     C_2   0.502132 0.968499 0.573170 -0.367209
C29   C     C_R   0.175628 0.358525 0.431559 0.514637
C30   C     C_R   0.823913 0.653567 0.512334 0.504176
C31   C     C_R   0.181500 0.633960 0.581110 0.537093
C32   C     C_R   0.818146 0.372402 0.396087 0.532698
C33   C     C_R   0.276273 0.540338 0.369557 -0.166019
C34   C     C_R   0.714927 0.489216 0.311039 -0.139703
C35   C     C_R   0.326200 0.539882 0.364616 -0.230379
C36   C     C_R   0.665127 0.486502 0.319508 -0.224723
C37   C     C_R   0.332879 0.458536 0.655296 -0.241677
C38   C     C_R   0.676391 0.520704 0.651892 -0.234831
C39   C     C_R   0.282441 0.455286 0.659607 0.145737
C40   C     C_R   0.726754 0.524122 0.644107 0.136270
C41   C     C_R   0.254145 0.497583 0.515054 0.354346
C42   C     C_R   0.745927 0.509007 0.471511 0.356887
Cu1   Cu    Cu3+1 0.505380 0.517380 0.684380 0.950933
Cu2   Cu    Cu3+1 0.494620 0.482620 0.315620 0.951127
H1    H     H_    0.354876 0.426895 0.766155 0.150437
H2    H     H_    0.661627 0.531857 0.784369 0.155693
H3    H     H_    0.462069 0.377753 0.948661 0.222434
H4    H     H_    0.537929 0.622250 0.051339 0.223961
H5    H     H_    0.642200 0.471707 0.192146 0.162741
H6    H     H_    0.342414 0.572772 0.249898 0.162227
H7    H     H_    0.729672 0.475540 0.179392 0.140430
H8    H     H_    0.254421 0.573063 0.259322 0.147219
H9    H     H_    0.868477 0.115974 0.286949 0.183252
H10   H     H_    0.131050 0.886094 0.710584 0.187697
H11   H     H_    0.953080 0.106714 0.295686 0.138023
H12   H     H_    0.046278 0.895855 0.696433 0.140182
H13   H     H_    0.024591 0.114523 0.248364 0.138387
H14   H     H_    0.974712 0.910427 0.617581 0.138045
H15   H     H_    0.493747 0.959291 0.286132 0.179883
H16   H     H_    0.506190 0.040702 0.713874 0.179695
N1    N     N_R   0.202497 0.496019 0.511855 -0.466674
N2    N     N_R   0.797182 0.512008 0.457594 -0.473465
N3    N     N_2   0.486510 0.456430 0.038510 -0.218195
N4    N     N_2   0.513490 0.543570 0.961490 -0.218461
O1    O     O_R   0.503500 0.286120 0.619780 -0.583126
O2    O     O_R   0.496500 0.713880 0.380220 -0.582944
O3    O     O_R   0.494410 0.256780 0.308360 -0.583426
O4    O     O_R   0.505590 0.743220 0.691640 -0.583137
O5    O     O_R   0.434810 0.514700 0.655690 -0.590140
O6    O     O_R   0.565190 0.485300 0.344310 -0.591278
O7    O     O_R   0.425720 0.485350 0.344280 -0.583590
O8    O     O_R   0.574280 0.514650 0.655720 -0.585189
O9    O     O_2   0.198718 0.226006 0.366939 -0.558521
O10   O     O_2   0.800721 0.788278 0.563116 -0.532739
O11   O     O_2   0.790335 0.235449 0.341009 -0.532752
O12   O     O_2   0.209506 0.767132 0.659048 -0.552279
C43   C     C_3   0.260074 0.407608 0.819172 -0.429849
C44   C     C_3   0.261595 0.228006 0.802855 -0.361236
C45   C     C_3   0.239425 0.179288 0.964263 -0.706542
H17   H     H_    0.260595 0.237811 0.096099 0.267121
H18   H     H_    0.201302 0.212800 0.970179 0.254722
H19   H     H_    0.240036 0.048545 0.946704 0.276417
H20   H     H_    0.241168 0.162559 0.672094 0.278647
H21   H     H_    0.299632 0.193009 0.800807 0.220426
H22   H     H_    0.280359 0.473100 0.950181 0.192289
H23   H     H_    0.222013 0.441354 0.826208 0.209716
C46   C     C_3   0.759301 0.540656 0.819525 -0.412725
C47   C     C_3   0.757710 0.706538 0.947480 -0.332236
C48   C     C_3   0.802985 0.747852 0.081872 -0.759714
H24   H     H_    0.809670 0.649203 0.150741 0.245019
H25   H     H_    0.834879 0.767719 0.006532 0.246599
H26   H     H_    0.798356 0.857946 0.187915 0.281694
H27   H     H_    0.755103 0.798887 0.865827 0.271923
H28   H     H_    0.725224 0.710101 0.026493 0.210631
H29   H     H_    0.747710 0.447335 0.889852 0.185619
H30   H     H_    0.797180 0.517341 0.789230 0.218052
C49   C     C_1   0.114015 0.067430 0.248092 0.320706
N5    N     N_1   0.129072 0.946890 0.182022 -0.260548
C50   C     C_1   0.885360 0.954661 0.638877 0.318181
N6    N     N_1   0.870255 0.077911 0.691434 -0.250163

loop_
_geom_bond_atom_site_label_1
_geom_bond_atom_site_label_2
_ccdc_geom_bond_type
C21   H9    S    
C46   C47   S    
Cu1   O8    S    
C8    C26   A    
C23   O5    A    
Cu2   O2    S    
C34   C42   A    
C41   N1    S    
C20   H12   S    
C32   O11   S    
C49   N5    T    
C24   O6    A    
C39   C41   A    
C43   C44   S    
C33   H8    S    
C34   H7    S    
Cu2   O7    S    
C39   C43   S    
C40   C46   S    
C19   C21   A    
C8    C50   S    
C2    O4    A    
H3    N3    S    
C30   O10   S    
C9    C22   A    
H4    N4    S    
C29   O9    S    
C3    C18   A    
C11   C37   A    
C31   N1    A    
C33   C35   A    
C44   H20   S    
Cu1   O4    S    
C46   H29   S    
C1    O1    A    
Cu2   O6    S    
C12   C36   A    
C42   N2    S    
C40   C42   A    
C43   H22   S    
Cu2   N3    S    
C22   H10   S    
C25   H13   S    
Cu1   N4    S    
C5    C29   A    
C28   H16   S    
C10   C21   A    
C29   N1    A    
C13   C19   A    
C23   O7    A    
C4    C6    A    
C5    C7    A    
C44   C45   S    
C15   C26   A    
C6    C8    A    
C3    C5    A    
C44   H21   S    
N3    N4    D    
Cu1   Cu2   S    
C3    C9    A    
C14   C20   A    
C50   N6    T    
Cu1   O1    S    
C46   H30   S    
C35   H6    S    
C48   H26   S    
C26   H14   S    
C4    C17   A    
C6    C30   A    
C20   C22   A    
C43   H23   S    
C30   N2    A    
C48   H25   S    
C4    C10   A    
C24   O8    A    
C45   H18   S    
C19   H11   S    
C16   C25   A    
C15   C17   A    
C47   H27   S    
C7    C49   S    
C14   C18   A    
C2    O2    A    
C45   H19   S    
C12   C24   S    
C7    C25   A    
C13   C17   A    
C33   C41   A    
C11   C35   A    
C32   N2    A    
C37   C39   A    
C27   H15   S    
C38   C40   A    
C31   O12   S    
C11   C23   S    
C1    O3    A    
C34   C36   A    
C12   C38   A    
C38   H2    S    
C9    C31   A    
C45   H17   S    
C10   C32   A    
C47   C48   S    
C16   C18   A    
C13   C16   A    
C27   C28   D    
C1    C27   S    
C47   H28   S    
C14   C15   A    
Cu2   O3    S    
C2    C28   S    
C48   H24   S    
Cu1   O5    S    
C37   H1    S    
C36   H5    S    
