data_mof_unit_9954.cif
_audit_creation_date              2012-12-10T22:11:09-0500
_audit_creation_method            fapswitch 2.2
_symmetry_space_group_name_H-M    P1
_symmetry_Int_Tables_number       1
_space_group_crystal_system       triclinic
_cell_length_a                    12.129437
_cell_length_b                    12.29552
_cell_length_c                    22.978187
_cell_angle_alpha                 91.330462
_cell_angle_beta                  90.480221
_cell_angle_gamma                 91.010476
_cell_volume                      3425.32563651

loop_
_atom_site_label
_atom_site_type_symbol
_atom_type_description
_atom_site_fract_x
_atom_site_fract_y
_atom_site_fract_z
_atom_type_partial_charge
C1    C     C_R   0.656123 0.998969 0.580059 0.932000
C2    C     C_R   0.343881 0.001032 0.419940 0.932025
C3    C     C_R   0.893049 0.776694 0.146367 -0.188026
C4    C     C_R   0.106965 0.223263 0.853656 -0.188028
C5    C     C_R   0.086756 0.895484 0.170837 -0.152458
C6    C     C_R   0.913227 0.104551 0.829142 -0.152473
C7    C     C_R   0.086857 0.813371 0.128850 -0.180880
C8    C     C_R   0.913125 0.186664 0.871128 -0.180877
C9    C     C_R   0.898678 0.131780 0.176188 -0.202891
C10   C     C_R   0.101334 0.868194 0.823798 -0.202895
C11   C     C_R   0.899520 0.213044 0.135818 -0.192495
C12   C     C_R   0.100491 0.786929 0.864167 -0.192496
C13   C     C_R   0.149194 0.913574 0.298994 -0.314709
C14   C     C_R   0.850862 0.086447 0.700979 -0.314672
C15   C     C_R   0.233788 0.909148 0.339465 0.402061
C16   C     C_R   0.766272 0.090879 0.660507 0.402077
C17   C     C_R   0.835222 0.101678 0.302546 -0.100672
C18   C     C_R   0.164742 0.898304 0.697436 -0.100737
C19   C     C_R   0.755788 0.098734 0.345127 -0.202713
C20   C     C_R   0.244175 0.901248 0.654855 -0.202739
C21   C     C_3   0.993496 0.011104 0.247462 -0.070229
C22   C     C_3   0.006507 0.988895 0.752539 -0.070251
C23   C     C_R   0.654114 0.001608 0.420422 0.865117
C24   C     C_R   0.345886 0.998392 0.579578 0.865100
C25   C     C_R   0.092453 0.010664 0.289429 -0.053681
C26   C     C_R   0.907553 0.989336 0.710570 -0.053673
C27   C     C_R   0.258607 0.001301 0.374915 -0.190795
C28   C     C_R   0.741403 0.998703 0.625082 -0.190814
C29   C     C_R   0.895426 0.007918 0.288361 0.127164
C30   C     C_R   0.104576 0.992079 0.711641 0.127120
C31   C     C_R   0.735810 0.002811 0.375026 -0.022347
C32   C     C_R   0.264188 0.997187 0.624974 -0.022363
C33   C     C_R   0.994801 0.108550 0.207980 0.200439
C34   C     C_R   0.005198 0.891454 0.792022 0.200501
C35   C     C_R   0.997654 0.269696 0.124551 -0.025344
C36   C     C_R   0.002345 0.730308 0.875451 -0.025347
C37   C     C_R   0.991429 0.915907 0.203637 0.096435
C38   C     C_R   0.008572 0.084091 0.796364 0.096444
C39   C     C_R   0.990489 0.752491 0.117128 -0.029905
C40   C     C_R   0.009509 0.247507 0.882872 -0.029914
C41   C     C_R   0.992754 0.663146 0.074955 0.867766
C42   C     C_R   0.007246 0.336853 0.925045 0.867772
C43   C     C_R   0.998784 0.352471 0.080859 0.871816
C44   C     C_R   0.001216 0.647531 0.919141 0.871820
C45   C     C_R   0.118042 0.103856 0.325004 0.573724
C46   C     C_R   0.881928 0.896128 0.675014 0.573702
C47   C     C_R   0.199432 0.096742 0.368043 -0.362217
C48   C     C_R   0.800536 0.903240 0.631976 -0.362212
C49   C     C_R   0.875111 0.912167 0.319424 -0.175493
C50   C     C_R   0.124922 0.087846 0.680595 -0.175455
C51   C     C_R   0.794937 0.909179 0.361767 -0.183388
C52   C     C_R   0.205095 0.090833 0.638252 -0.183397
C53   C     C_R   0.094166 0.162851 0.194237 -0.121762
C54   C     C_R   0.905822 0.837191 0.805786 -0.121727
C55   C     C_R   0.095078 0.244039 0.153653 -0.217098
C56   C     C_R   0.904909 0.756001 0.846368 -0.217098
C57   C     C_R   0.893018 0.858604 0.188749 -0.179544
C58   C     C_R   0.106997 0.141353 0.811274 -0.179525
H1    H     H_    0.214730 0.165490 0.397414 0.188730
H2    H     H_    0.785205 0.834472 0.602622 0.188741
H3    H     H_    0.922775 0.839839 0.311270 0.154580
H4    H     H_    0.077286 0.160187 0.688763 0.154566
H5    H     H_    0.172077 0.141383 0.213647 0.117355
H6    H     H_    0.827907 0.858688 0.786390 0.117325
H7    H     H_    0.815243 0.877525 0.208904 0.144320
H8    H     H_    0.184779 0.122399 0.791136 0.144295
H9    H     H_    0.162011 0.942490 0.178473 0.140616
H10   H     H_    0.837958 0.057572 0.821491 0.140602
H11   H     H_    0.822745 0.086070 0.182445 0.134811
H12   H     H_    0.177278 0.913880 0.817528 0.134795
H13   H     H_    0.126864 0.838628 0.276041 0.201972
H14   H     H_    0.873233 0.161403 0.723915 0.201952
H15   H     H_    0.851581 0.179161 0.282851 0.176328
H16   H     H_    0.148357 0.820813 0.717118 0.176379
H17   H     H_    0.781260 0.834591 0.385037 0.165791
H18   H     H_    0.218799 0.165434 0.614996 0.165797
H19   H     H_    0.172373 0.285368 0.144469 0.159742
H20   H     H_    0.827604 0.714701 0.855568 0.159739
H21   H     H_    0.817024 0.732049 0.136781 0.159479
H22   H     H_    0.183003 0.267876 0.863260 0.159477
H23   H     H_    0.162386 0.797925 0.105477 0.159087
H24   H     H_    0.837582 0.202139 0.894484 0.159094
H25   H     H_    0.823858 0.229563 0.112528 0.161632
H26   H     H_    0.176164 0.770384 0.887442 0.161634
H27   H     H_    0.711061 0.172241 0.355130 0.163421
H28   H     H_    0.288873 0.827729 0.644837 0.163438
O1    O     O_R   0.621380 0.090460 0.561410 -0.555252
O2    O     O_R   0.378620 0.909540 0.438590 -0.555268
O3    O     O_R   0.617150 0.909540 0.438590 -0.620131
O4    O     O_R   0.382850 0.090460 0.561410 -0.620152
O5    O     O_R   0.619720 0.093230 0.440890 -0.628850
O6    O     O_R   0.380280 0.906770 0.559110 -0.628866
O7    O     O_R   0.618800 0.906770 0.559110 -0.644618
O8    O     O_R   0.381200 0.093230 0.440890 -0.644616
O9    O     O_R   0.087590 0.627480 0.058790 -0.626577
O10   O     O_R   0.912410 0.372520 0.941210 -0.626586
O11   O     O_R   0.905660 0.383870 0.059980 -0.630846
O12   O     O_R   0.094340 0.616130 0.940020 -0.630849
O13   O     O_R   0.092570 0.390420 0.063230 -0.625597
O14   O     O_R   0.907430 0.609580 0.936770 -0.625602
O15   O     O_R   0.900680 0.620930 0.055550 -0.625996
O16   O     O_R   0.099320 0.379070 0.944450 -0.625997
Zn1   Zn    Zn3+2 0.501730 0.123520 0.501540 1.014438
Zn2   Zn    Zn3+2 0.498270 0.876480 0.498460 1.014425
Zn3   Zn    Zn3+2 0.125690 0.504390 0.002180 0.949893
Zn4   Zn    Zn3+2 0.874310 0.495610 0.997820 0.949888
Cl1   Cl    Cl    0.305007 0.785401 0.342762 -0.611348
Cl2   Cl    Cl    0.695134 0.214671 0.657175 -0.611340
O17   O     O_3   0.054243 0.196367 0.320705 -0.620458
C59   C     C_3   0.119356 0.292865 0.321939 -0.309056
H29   H     H_    0.198949 0.283498 0.298622 0.151558
H30   H     H_    0.133998 0.321722 0.367536 0.182099
H31   H     H_    0.072902 0.356904 0.299602 0.203061
O18   O     O_3   0.945694 0.803596 0.679329 -0.620477
C60   C     C_3   0.880545 0.707118 0.678117 -0.309036
H32   H     H_    0.865898 0.678230 0.632525 0.182111
H33   H     H_    0.800953 0.716534 0.701431 0.151543
H34   H     H_    0.926974 0.643078 0.700470 0.203063

loop_
_geom_bond_atom_site_label_1
_geom_bond_atom_site_label_2
_ccdc_geom_bond_type
C16   C28   A    
C9    C33   A    
C1    O1    A    
C5    C37   A    
C53   H5    S    
C17   C29   A    
C5    H9    S    
C3    H21   S    
C49   C51   A    
O18   C60   S    
C39   C41   S    
C29   C49   A    
O12   Zn3   S    
C42   O10   A    
C43   O13   A    
C4    H22   S    
C55   H19   S    
C45   O17   S    
C21   C33   S    
C60   H32   S    
C22   C38   S    
C42   O16   A    
C56   H20   S    
C12   H26   S    
O16   Zn3   S    
C45   C47   A    
C15   Cl1   S    
C59   H29   S    
C32   C52   A    
C21   C25   S    
O9    Zn3   S    
C38   C58   A    
C44   O12   A    
C58   H8    S    
C4    C40   A    
C60   H33   S    
C20   H28   S    
C1    C28   S    
C50   C52   A    
C6    C38   A    
C2    O2    A    
C2    C27   S    
C18   C30   A    
C12   C36   A    
C35   C43   S    
C18   C20   A    
C6    H10   S    
C30   C50   A    
C19   C31   A    
C18   H16   S    
C17   H15   S    
C13   C25   A    
O13   Zn3   S    
C24   O6    A    
O7    Zn2   S    
O2    Zn2   S    
C48   H2    S    
C46   C48   A    
C53   C55   A    
C33   C53   A    
C22   C34   S    
C54   C56   A    
C49   H3    S    
C46   O18   S    
C35   C55   A    
C2    O8    A    
O5    Zn1   S    
C5    C7    A    
C16   Cl2   S    
C6    C8    A    
C13   H13   S    
C11   H25   S    
C21   C29   S    
C19   H27   S    
C23   C31   S    
C24   C32   S    
C36   C56   A    
C31   C51   A    
C15   C27   A    
C60   H34   S    
C23   O3    A    
C10   C34   A    
C14   C26   A    
C9    C11   A    
C59   H31   S    
C10   C12   A    
O1    Zn1   S    
O11   Zn4   S    
C10   H12   S    
C7    H23   S    
O8    Zn1   S    
C34   C54   A    
C13   C15   A    
O3    Zn2   S    
C9    H11   S    
C14   C16   A    
C36   C44   S    
C25   C45   A    
C51   H17   S    
C20   C32   A    
C27   C47   A    
O15   Zn4   S    
O10   Zn4   S    
C28   C48   A    
C22   C30   S    
C14   H14   S    
C43   O11   A    
C57   H7    S    
C52   H18   S    
C24   O4    A    
O14   Zn4   S    
C11   C35   A    
O17   C59   S    
C44   O14   A    
C41   O9    A    
C54   H6    S    
C50   H4    S    
C40   C42   S    
C17   C19   A    
C41   O15   A    
C3    C57   A    
C23   O5    A    
C59   H30   S    
O4    Zn1   S    
O6    Zn2   S    
C47   H1    S    
C8    H24   S    
C21   C37   S    
C1    O7    A    
C22   C26   S    
C4    C58   A    
C7    C39   A    
C8    C40   A    
C26   C46   A    
C37   C57   A    
C3    C39   A    
