data_mof_unit_8369.cif
_audit_creation_date              2012-12-10T16:46:44-0500
_audit_creation_method            fapswitch 2.2
_symmetry_space_group_name_H-M    P1
_symmetry_Int_Tables_number       1
_space_group_crystal_system       triclinic
_cell_length_a                    15.875826
_cell_length_b                    8.70847
_cell_length_c                    7.437711
_cell_angle_alpha                 103.029258
_cell_angle_beta                  93.967047
_cell_angle_gamma                 92.247296
_cell_volume                      997.83026941

loop_
_atom_site_label
_atom_site_type_symbol
_atom_type_description
_atom_site_fract_x
_atom_site_fract_y
_atom_site_fract_z
_atom_type_partial_charge
C1    C     C_R   0.498446 0.199876 0.453787 0.896531
C2    C     C_3   0.948910 0.344835 0.520742 -0.191915
C3    C     C_3   0.916403 0.506410 0.491756 0.140771
C4    C     C_3   0.957419 0.639943 0.653739 -0.506357
C5    C     C_3   0.055204 0.638282 0.661546 -0.191376
C6    C     C_1   0.824147 0.503028 0.490439 0.000678
C7    C     C_1   0.175823 0.506515 0.504741 0.103254
C8    C     C_1   0.251236 0.503267 0.507567 -0.055013
C9    C     C_2   0.497775 0.032380 0.430381 -0.457130
C10   C     C_2   0.515267 0.967604 0.574609 0.303244
C11   C     C_R   0.340407 0.500098 0.502710 0.826162
C12   C     C_R   0.505555 0.799924 0.546684 0.781057
C13   C     C_R   0.659571 0.500022 0.497243 0.787788
C14   C     C_3   0.047140 0.348974 0.524241 -0.537804
C15   C     C_3   0.045669 0.534334 0.298543 -0.093987
C16   C     C_3   0.945487 0.525829 0.298904 0.218787
C17   C     C_1   0.748764 0.501005 0.491833 -0.148815
C18   C     C_3   0.083294 0.510404 0.494711 0.112316
Cu1   Cu    Cu3+1 0.509300 0.517380 0.684380 1.003985
Cu2   Cu    Cu3+1 0.490700 0.482620 0.315620 1.001418
H1    H     H_    0.923380 0.249287 0.400559 0.150161
H2    H     H_    0.075434 0.329110 0.657956 0.220274
H3    H     H_    0.935062 0.757296 0.647693 0.174638
H4    H     H_    0.481338 0.960533 0.291665 0.169077
H5    H     H_    0.435057 0.376843 0.948464 0.253664
H6    H     H_    0.565001 0.623066 0.051504 0.224290
H7    H     H_    0.066660 0.248522 0.417352 0.181156
H8    H     H_    0.922763 0.410845 0.205552 0.098486
H9    H     H_    0.075995 0.600932 0.790873 0.203792
H10   H     H_    0.936140 0.622813 0.787536 0.192500
N1    N     N_2   0.476670 0.456430 0.038530 -0.188256
N2    N     N_2   0.523330 0.543570 0.961470 -0.209343
O1    O     O_R   0.506050 0.286130 0.619770 -0.532757
O2    O     O_R   0.490330 0.256780 0.308370 -0.575919
O3    O     O_R   0.387300 0.514690 0.655770 -0.579925
O4    O     O_R   0.371580 0.485340 0.344370 -0.548175
O5    O     O_R   0.509670 0.743220 0.691630 -0.553490
O6    O     O_R   0.493950 0.713870 0.380230 -0.614880
O7    O     O_R   0.628420 0.514660 0.655630 -0.581266
O8    O     O_R   0.612700 0.485310 0.344230 -0.588773
C19   C     C_2   0.919315 0.300489 0.692627 0.393212
H11   H     H_    0.941275 0.369769 0.829209 0.090944
O9    O     O_2   0.871210 0.184884 0.679276 -0.589800
O10   O     O_3   0.536766 0.056813 0.752834 -0.543496
C20   C     C_3   0.625546 0.064170 0.786698 -0.220180
H12   H     H_    0.657277 0.119401 0.686079 0.162871
H13   H     H_    0.649442 0.945258 0.783738 0.138579
H14   H     H_    0.642886 0.139164 0.927063 0.192196
C21   C     C_2   0.078861 0.687162 0.252403 0.429156
H15   H     H_    0.042912 0.737941 0.153047 0.110387
O11   O     O_2   0.149676 0.745681 0.308272 -0.527588
C22   C     C_2   0.071694 0.399465 0.144658 0.278616
H16   H     H_    0.039215 0.283610 0.118547 0.071970
O12   O     O_2   0.130190 0.416762 0.051048 -0.518051
O13   O     O_3   0.902479 0.631488 0.207005 -0.604435
C23   C     C_3   0.892737 0.783693 0.316169 -0.274204
H17   H     H_    0.952326 0.839499 0.392800 0.133809
H18   H     H_    0.841175 0.782645 0.409027 0.184869
H19   H     H_    0.873104 0.860317 0.221981 0.182846
C24   C     C_2   0.095453 0.802335 0.683436 0.440229
H20   H     H_    0.073240 0.878820 0.596061 0.086124
O14   O     O_2   0.152498 0.852351 0.803670 -0.506899

loop_
_geom_bond_atom_site_label_1
_geom_bond_atom_site_label_2
_ccdc_geom_bond_type
C16   H8    S    
C15   C18   S    
O13   C23   S    
C9    H4    S    
H6    N2    S    
C14   H7    S    
Cu2   O6    S    
C9    C10   D    
C14   C18   S    
Cu1   Cu2   S    
C23   H19   S    
C13   C17   S    
C22   H16   S    
C7    C18   S    
Cu2   O2    S    
C14   H2    S    
C2    H1    S    
C11   O3    A    
C2    C3    S    
C16   O13   S    
C1    O1    A    
C7    C8    T    
Cu1   O3    S    
C20   H12   S    
C23   H17   S    
C15   C21   S    
C19   O9    D    
C10   C12   S    
C8    C11   S    
C2    C14   S    
Cu1   N2    S    
Cu1   O7    S    
C11   O4    A    
C22   O12   D    
C1    O2    A    
C5    H9    S    
C20   H13   S    
C12   O6    A    
Cu2   O8    S    
C13   O7    A    
Cu1   O5    S    
C15   C16   S    
C2    C19   S    
C10   O10   S    
C3    C4    S    
Cu2   O4    S    
C1    C9    S    
O10   C20   S    
C24   O14   D    
C21   H15   S    
C19   H11   S    
C3    C6    S    
C12   O5    A    
C4    H3    S    
C6    C17   T    
C4    C5    S    
C13   O8    A    
C5    C18   S    
C20   H14   S    
C5    C24   S    
C15   C22   S    
C23   H18   S    
H5    N1    S    
C4    H10   S    
C3    C16   S    
N1    N2    D    
Cu1   O1    S    
C24   H20   S    
C21   O11   D    
Cu2   N1    S    
