data_mof_unit_17171.cif
_audit_creation_date              2013-03-05T15:57:36-0500
_audit_creation_method            fapswitch 2.2
_symmetry_space_group_name_H-M    P1
_symmetry_Int_Tables_number       1
_space_group_crystal_system       triclinic
_cell_length_a                    15.135102
_cell_length_b                    15.152132
_cell_length_c                    14.941286
_cell_angle_alpha                 108.528521
_cell_angle_beta                  110.189974
_cell_angle_gamma                 110.165787
_cell_volume                      2621.72701178

loop_
_atom_site_label
_atom_site_type_symbol
_atom_site_description
_atom_site_fract_x
_atom_site_fract_y
_atom_site_fract_z
_atom_type_partial_charge
C1    C     C_R   0.910579 0.975264 0.722544 -0.059068
H1    H     H_    0.826500 0.942874 0.701323 0.093534
N1    N     N_R   0.941940 0.944580 0.650780 -0.046282
C2    C     C_R   0.090736 0.313945 0.557822 -0.146092
H2    H     H_    0.174252 0.379737 0.600325 0.146105
N2    N     N_R   0.056800 0.208900 0.502740 -0.046988
C3    C     C_R   0.303635 0.206714 0.797775 -0.148880
H3    H     H_    0.334097 0.175075 0.849030 0.109306
N3    N     N_R   0.204460 0.150250 0.707090 -0.044862
C4    C     C_R   0.700048 0.000685 0.409647 -0.092039
H4    H     H_    0.670474 0.026366 0.351578 0.116390
N4    N     N_R   0.794270 0.003240 0.446420 -0.042725
C5    C     C_R   0.302048 0.298038 0.707065 -0.106548
H5    H     H_    0.329257 0.348093 0.673395 0.113663
N5    N     N_R   0.204920 0.207570 0.650770 -0.045636
C6    C     C_R   0.702602 0.915327 0.507045 -0.122180
H6    H     H_    0.675294 0.862422 0.538062 0.108982
N6    N     N_R   0.793810 0.945920 0.502740 -0.046680
C7    C     C_R   0.908457 0.218393 0.477467 -0.088395
H7    H     H_    0.824086 0.195124 0.448486 0.155842
N7    N     N_R   0.943620 0.152590 0.446420 -0.056797
C8    C     C_R   0.093313 0.063826 0.812699 -0.131756
H8    H     H_    0.179000 0.111819 0.872766 0.130118
N8    N     N_R   0.055110 0.000900 0.707100 -0.045984
C9    C     C_R   0.004437 0.053772 0.825701 0.048950
C10   C     C_R   0.997263 0.320926 0.539722 0.097863
C11   C     C_R   0.366349 0.298374 0.798678 0.125937
C12   C     C_R   0.645183 0.951982 0.452026 0.103419
C13   C     C_R   0.733375 0.686886 0.277837 -0.080594
H9    H     H_    0.713096 0.623065 0.298021 0.141033
N9    N     N_R   0.795080 0.792430 0.349230 -0.055252
C14   C     C_R   0.245059 0.027961 0.433116 -0.121745
H10   H     H_    0.251215 0.057753 0.377800 0.110306
N10   N     N_R   0.206190 0.054080 0.497260 -0.047093
C15   C     C_R   0.093065 0.785241 0.576317 -0.114398
H11   H     H_    0.177656 0.810771 0.627024 0.101780
N11   N     N_R   0.056380 0.847410 0.553580 -0.046890
C16   C     C_R   0.907140 0.996247 0.196866 -0.140124
H12   H     H_    0.823036 0.971074 0.146618 0.103620
N12   N     N_R   0.944890 0.999100 0.292900 -0.036864
C17   C     C_R   0.088896 0.088586 0.286550 -0.133113
H13   H     H_    0.172289 0.147142 0.316795 0.093151
N13   N     N_R   0.058060 0.055420 0.349220 -0.037316
C18   C     C_R   0.909437 0.694170 0.488689 0.050441
H14   H     H_    0.826273 0.635825 0.459991 0.117880
N14   N     N_R   0.943200 0.791100 0.497260 -0.056954
C19   C     C_R   0.736796 0.778831 0.185550 -0.140773
H15   H     H_    0.719377 0.798731 0.120567 0.113262
N15   N     N_R   0.795540 0.849750 0.292910 -0.048987
C20   C     C_R   0.258025 0.944788 0.533180 -0.110065
H16   H     H_    0.282555 0.902967 0.574111 0.100168
N16   N     N_R   0.205730 0.996760 0.553580 -0.045879
Ni1   Ni    Ni4+2 0.869690 0.869690 0.500000 0.238468
Ni2   Ni    Ni4+2 0.130310 0.130310 0.500000 0.221486
Ni3   Ni    Ni4+2 0.129250 0.998840 0.629170 0.223545
Ni4   Ni    Ni4+2 0.870750 0.001160 0.370830 0.216678
C21   C     C_R   0.699153 0.676643 0.175089 0.131864
C22   C     C_R   0.284152 0.965222 0.458554 0.089134
C23   C     C_R   0.002095 0.688626 0.534250 0.140521
C24   C     C_R   0.995244 0.051450 0.188845 0.058319
H17   H     H_    0.456441 0.480864 0.312087 0.123469
C25   C     C_R   0.476130 0.610489 0.275381 -0.108359
H18   H     H_    0.495255 0.579577 0.213249 0.107939
C26   C     C_R   0.473990 0.706482 0.300186 -0.136438
H19   H     H_    0.490694 0.748219 0.255892 0.116419
C27   C     C_R   0.452622 0.749378 0.383272 0.125876
C28   C     C_R   0.430126 0.692685 0.438534 -0.142680
H20   H     H_    0.414013 0.724466 0.503225 0.130963
C29   C     C_R   0.431144 0.595979 0.412504 -0.092186
H21   H     H_    0.414788 0.553268 0.456054 0.129956
C30   C     C_R   0.454636 0.555160 0.331345 -0.088961
C31   C     C_R   0.368915 0.861371 0.417428 -0.219199
H22   H     H_    0.298289 0.790260 0.397755 0.156054
C32   C     C_R   0.370385 0.958877 0.443581 0.014996
C33   C     C_R   0.461009 0.053211 0.469495 -0.092812
C34   C     C_R   0.554023 0.050721 0.480494 0.282549
C35   C     C_R   0.549794 0.951001 0.447794 -0.057318
C36   C     C_R   0.457232 0.855004 0.415213 -0.010087
C37   C     C_R   0.442824 0.177710 0.397822 -0.149802
H23   H     H_    0.421783 0.118527 0.318689 0.103840
C38   C     C_R   0.449748 0.276149 0.412458 -0.146630
H24   H     H_    0.434070 0.292847 0.345172 0.119777
C39   C     C_R   0.478374 0.353711 0.514529 -0.061548
H25   H     H_    0.485038 0.430503 0.526304 0.119345
C40   C     C_R   0.499760 0.332699 0.601854 -0.091355
H26   H     H_    0.524658 0.393964 0.681075 0.119868
C41   C     C_R   0.491100 0.233646 0.587376 -0.071218
H27   H     H_    0.508456 0.218550 0.655864 0.125555
C42   C     C_R   0.462507 0.155498 0.485001 0.170334
H28   H     H_    0.565410 0.024610 0.109356 0.111517
C43   C     C_R   0.738738 0.128918 0.183472 -0.148083
H29   H     H_    0.745752 0.072370 0.125560 0.120390
C44   C     C_R   0.831950 0.228050 0.268229 -0.038397
H30   H     H_    0.910713 0.246826 0.275276 0.130258
C45   C     C_R   0.823431 0.301248 0.345464 0.154137
C46   C     C_R   0.720567 0.274748 0.335516 -0.115977
H31   H     H_    0.712883 0.330334 0.394894 0.157820
C47   C     C_R   0.627804 0.175160 0.250585 -0.142646
H32   H     H_    0.549184 0.154059 0.244362 0.114430
C48   C     C_R   0.636935 0.102158 0.174596 -0.118972
C49   C     C_R   0.939182 0.498526 0.436288 0.465135
C50   C     C_R   0.002467 0.596120 0.536474 -0.142572
C51   C     C_R   0.060969 0.603169 0.637722 0.048465
C52   C     C_R   0.058902 0.511144 0.636994 -0.155192
H33   H     H_    0.109129 0.515570 0.712413 0.151645
C53   C     C_R   0.988610 0.412322 0.539947 0.026846
C54   C     C_R   0.921342 0.404378 0.440416 -0.165291
C55   C     C_R   0.241938 0.759442 0.795950 -0.206513
H34   H     H_    0.281104 0.724470 0.760289 0.180026
C56   C     C_R   0.306529 0.859856 0.892166 -0.096865
H35   H     H_    0.394728 0.901051 0.930707 0.113848
C57   C     C_R   0.257371 0.907587 0.937820 -0.156923
H36   H     H_    0.307635 0.985610 0.012142 0.118923
C58   C     C_R   0.143410 0.854481 0.887852 -0.165266
H37   H     H_    0.106030 0.891805 0.924228 0.148463
C59   C     C_R   0.077854 0.753629 0.791448 0.350097
C60   C     C_R   0.127257 0.706012 0.743927 0.035145
C61   C     C_2   0.534438 0.466724 0.879120 -0.136091
C62   C     C_2   0.482884 0.372606 0.875041 -0.211558
H38   H     H_    0.497728 0.482265 0.814146 0.161637
H39   H     H_    0.522491 0.357796 0.940001 0.152237
C63   C     C_2   0.627028 0.561223 0.982640 -0.047566
C64   C     C_2   0.625973 0.575229 0.074849 -0.145603
H40   H     H_    0.686186 0.626164 0.982070 0.125344
H41   H     H_    0.565161 0.513193 0.076470 0.112004
H42   H     H_    0.506878 0.377401 0.109244 0.119618
C65   C     C_R   0.398323 0.255504 0.123610 -0.121393
H43   H     H_    0.459206 0.236614 0.160715 0.114443
C66   C     C_R   0.293005 0.199783 0.104699 -0.204287
H44   H     H_    0.273158 0.136928 0.126638 0.112302
C67   C     C_R   0.213196 0.223622 0.055916 0.112154
C68   C     C_R   0.240823 0.304795 0.027357 -0.119219
H45   H     H_    0.180435 0.324117 0.989614 0.129636
C69   C     C_R   0.346402 0.359802 0.045771 -0.125630
H46   H     H_    0.367017 0.421144 0.022137 0.124191
C70   C     C_R   0.425044 0.335277 0.094218 -0.127101
C71   C     C_R   0.091332 0.155371 0.121291 -0.216923
H47   H     H_    0.164971 0.201678 0.200926 0.123717
C72   C     C_R   0.991747 0.080808 0.103081 0.050211
C73   C     C_R   0.894837 0.034697 0.001579 0.036726
C74   C     C_R   0.904189 0.060515 0.922844 -0.177727
H48   H     H_    0.829795 0.026899 0.847068 0.129979
C75   C     C_R   0.005467 0.102060 0.929285 0.046099
C76   C     C_R   0.101240 0.161931 0.034133 0.031955
C77   C     C_R   0.773218 0.838966 0.931458 -0.168409
H49   H     H_    0.843753 0.828886 0.951476 0.156363
C78   C     C_R   0.668267 0.747445 0.870859 -0.190031
H50   H     H_    0.658543 0.667810 0.844413 0.147232
C79   C     C_R   0.575954 0.758355 0.840597 0.393700
C80   C     C_R   0.588506 0.860874 0.868650 -0.175141
H51   H     H_    0.517246 0.869564 0.843221 0.137747
C81   C     C_R   0.693081 0.952061 0.925624 -0.243327
H52   H     H_    0.701279 0.030123 0.941026 0.151175
C82   C     C_R   0.786580 0.942339 0.959962 0.091485
Br1   Br    Br    0.690016 0.188082 0.554328 -0.583789
S1    S     S_3+6 0.885232 0.492610 0.305413 -0.049771
O1    O     O_2   0.949537 0.598571 0.313416 -0.259686
O2    O     O_2   0.890010 0.407581 0.224539 -0.298274
O3    O     O_3   0.754147 0.461411 0.258293 -0.585562
H53   H     H_    0.709228 0.383608 0.202063 0.357500
Br2   Br    Br    0.922128 0.683140 0.729305 -0.593955
Br3   Br    Br    0.432751 0.632924 0.756114 -0.704016

loop_
_geom_bond_atom_site_label_1
_geom_bond_atom_site_label_2
_geom_bond_distance
_ccdc_geom_bond_type
C49   C54   1.383311 A    
C41   H27   1.083094 S    
C6    C12   1.367224 A    
C44   H30   1.083317 S    
C17   H13   1.078811 S    
C45   C46   1.406578 A    
C14   C22   1.363980 A    
C10   C53   1.434351 S    
C52   C53   1.390453 A    
C77   H49   1.083298 S    
C3    H3    1.082058 S    
C19   N15   1.334022 A    
C51   C60   1.484748 S    
C35   C36   1.410518 A    
C55   H34   1.082237 S    
N8    Ni3   1.875851 S    
C71   C72   1.403461 A    
C49   C50   1.404204 A    
S1    O1    1.503183 D    
C15   N11   1.320927 A    
N9    N15   1.388113 A    
C29   H21   1.082530 S    
C74   C75   1.396245 A    
O3    H53   0.990695 S    
C16   H12   1.073801 S    
C64   H41   1.079194 S    
C43   C44   1.395349 A    
C53   C54   1.420991 A    
C18   C23   1.376870 A    
C75   C76   1.414542 A    
C3    C11   1.378535 A    
C59   C60   1.413006 A    
C15   C23   1.364550 A    
C1    H1    1.073661 S    
C61   C63   1.455744 S    
C29   C30   1.397131 A    
C7    C10   1.365390 A    
C56   H35   1.081502 S    
C57   H36   1.082552 S    
C25   C26   1.397184 A    
N6    Ni1   1.889907 S    
C38   C39   1.395881 A    
C61   C62   1.338279 D    
N12   N13   1.382413 A    
C78   H50   1.080829 S    
C6    H6    1.080779 S    
N12   Ni4   1.875851 S    
C8    C9    1.388624 A    
C46   C47   1.396771 A    
C19   H15   1.080423 S    
C20   N16   1.335365 A    
N3    Ni3   1.871252 S    
C43   C48   1.396448 A    
N16   Ni3   1.876537 S    
H17   C30   1.082400 S    
C40   C41   1.398229 A    
C27   C28   1.406694 A    
H42   C70   1.078776 S    
C44   C45   1.402249 A    
C5    H5    1.080765 S    
C1    C9    1.402472 A    
C17   N13   1.336464 A    
N1    N8    1.382412 A    
C9    C75   1.478742 S    
N2    Ni2   1.889829 S    
C4    N4    1.320827 A    
H28   C48   1.081383 S    
C52   H33   1.085229 S    
C77   C78   1.398748 A    
C18   N14   1.323790 A    
C38   H24   1.081379 S    
C56   C57   1.396319 A    
C62   H39   1.086875 S    
C73   C74   1.387892 A    
C27   C36   1.486165 S    
C78   C79   1.398043 A    
C32   C33   1.415710 A    
C28   H20   1.083270 S    
C20   C22   1.390975 A    
N5    Ni2   1.837618 S    
C59   Br2   1.918721 S    
C65   C70   1.392984 A    
C2    N2    1.336609 A    
C43   H29   1.071934 S    
C37   C38   1.397381 A    
C2    H2    1.081473 S    
C69   C70   1.399985 A    
C49   S1    1.798480 S    
C14   N10   1.315241 A    
C40   H26   1.075818 S    
N2    N7    1.382536 A    
N9    Ni1   1.837621 S    
C1    N1    1.333337 A    
C15   H11   1.079579 S    
C26   C27   1.406200 A    
C33   C34   1.375174 A    
C65   C66   1.393938 A    
C13   H9    1.079298 S    
C21   C64   1.431766 S    
N13   Ni2   1.837928 S    
C2    C10   1.393924 A    
C39   H25   1.082468 S    
C46   H31   1.083450 S    
C25   H18   1.080553 S    
N4    N6    1.388113 A    
C20   H16   1.079446 S    
C6    N6    1.328040 A    
C34   C35   1.403000 A    
C12   C35   1.417791 S    
N4    Ni4   1.876537 S    
C45   C54   1.481148 S    
C16   C24   1.377359 A    
C77   C82   1.404924 A    
C31   C32   1.392975 A    
C39   C40   1.397155 A    
C71   C76   1.391050 A    
C13   C21   1.376028 A    
N10   Ni2   1.889908 S    
C47   C48   1.395430 A    
C41   C42   1.402762 A    
C8    N8    1.329247 A    
C63   H40   1.083114 S    
C67   C68   1.404219 A    
C51   C52   1.380373 A    
C18   H14   1.081217 S    
C22   C32   1.427277 S    
C66   H44   1.083453 S    
C4    C12   1.368380 A    
C3    N3    1.339734 A    
C7    N7    1.317136 A    
C80   H51   1.082489 S    
C23   C50   1.414459 S    
C55   C60   1.404355 A    
S1    O3    1.683155 S    
C17   C24   1.398774 A    
C81   C82   1.406441 A    
C31   H22   1.085230 S    
N7    Ni4   1.872179 S    
C58   C59   1.401276 A    
C72   C73   1.422681 A    
C58   H37   1.082950 S    
C69   H46   1.081971 S    
C11   C62   1.450958 S    
N15   Ni4   1.871252 S    
C71   H47   1.079390 S    
C34   Br1   1.950654 S    
N10   N16   1.388113 A    
C14   H10   1.075558 S    
C7    H7    1.073929 S    
C5    N5    1.331126 A    
N3    N5    1.388114 A    
C57   C58   1.397225 A    
C13   N9    1.328891 A    
C79   C80   1.397321 A    
C26   H19   1.083096 S    
C16   N12   1.328461 A    
N1    Ni1   1.837927 S    
N14   Ni1   1.889828 S    
S1    O2    1.503456 D    
C55   C56   1.396974 A    
C25   C30   1.397541 A    
C68   H45   1.082928 S    
C80   C81   1.397657 A    
C50   C51   1.411174 A    
C61   H38   1.081565 S    
C37   C42   1.406626 A    
C4    H4    1.082190 S    
C33   C42   1.483316 S    
C24   C72   1.474600 S    
C37   H23   1.082994 S    
N11   Ni3   1.872179 S    
C81   H52   1.083284 S    
C68   C69   1.398682 A    
C47   H32   1.081293 S    
C31   C36   1.383671 A    
C19   C21   1.386703 A    
C63   C64   1.332332 D    
C8    H8    1.071325 S    
C5    C11   1.376017 A    
C79   Br3   1.910423 S    
C28   C29   1.398600 A    
N11   N14   1.382538 A    
C74   H48   1.080374 S    
C67   C76   1.478101 S    
C65   H43   1.080948 S    
C73   C82   1.480693 S    
C66   C67   1.407567 A    
