data_mof_unit_15721.cif
_audit_creation_date              2012-12-11T16:49:07-0500
_audit_creation_method            fapswitch 2.2
_symmetry_space_group_name_H-M    P1
_symmetry_Int_Tables_number       1
_space_group_crystal_system       triclinic
_cell_length_a                    6.922051
_cell_length_b                    25.949558
_cell_length_c                    28.940184
_cell_angle_alpha                 89.873782
_cell_angle_beta                  90.001678
_cell_angle_gamma                 89.918454
_cell_volume                      5198.33847309

loop_
_atom_site_label
_atom_site_type_symbol
_atom_type_description
_atom_site_fract_x
_atom_site_fract_y
_atom_site_fract_z
_atom_type_partial_charge
O1    O     O_R   0.601010 0.796750 0.202520 -0.539114
O2    O     O_R   0.398990 0.203250 0.797480 -0.539145
O3    O     O_R   0.271260 0.802890 0.297300 -0.542042
O4    O     O_R   0.728740 0.197110 0.702700 -0.542031
O5    O     O_R   0.100940 0.703200 0.297630 -0.537916
O6    O     O_R   0.899060 0.296800 0.702370 -0.537991
C1    C     C_R   0.440200 0.815475 0.313287 0.693491
C2    C     C_R   0.559800 0.184525 0.686712 0.693522
O7    O     O_R   0.271300 0.802890 0.202860 -0.542218
O8    O     O_R   0.728700 0.197110 0.797140 -0.542104
O9    O     O_R   0.100980 0.703210 0.202520 -0.538571
O10   O     O_R   0.899020 0.296790 0.797480 -0.538721
C3    C     C_R   0.440214 0.815480 0.186871 0.693033
C4    C     C_R   0.559787 0.184528 0.813135 0.693181
O11   O     O_R   0.600970 0.796740 0.297640 -0.538873
O12   O     O_R   0.399030 0.203260 0.702360 -0.538858
O13   O     O_3   0.434500 0.717270 0.250080 -0.367287
O14   O     O_3   0.565500 0.282730 0.749920 -0.367402
V1    V     V_3+5 0.159650 0.756040 0.250080 1.397376
V2    V     V_3+5 0.840350 0.243960 0.749920 1.397305
O15   O     O_R   0.771260 0.697060 0.202850 -0.541846
O16   O     O_R   0.228740 0.302940 0.797150 -0.541648
C5    C     C_R   0.940408 0.684412 0.186828 0.692337
C6    C     C_R   0.059570 0.315606 0.813148 0.691612
O17   O     O_R   0.771230 0.697050 0.297300 -0.541000
O18   O     O_R   0.228770 0.302950 0.702700 -0.540982
C7    C     C_R   0.940344 0.684308 0.313430 0.691307
C8    C     C_R   0.059656 0.315692 0.686570 0.691114
V3    V     V_3+5 0.659640 0.743910 0.250080 1.397797
V4    V     V_3+5 0.340360 0.256090 0.749920 1.397685
O19   O     O_3   0.934660 0.782680 0.250080 -0.367263
O20   O     O_3   0.065340 0.217320 0.749920 -0.367204
C9    C     C_R   0.131583 0.630452 0.370127 -0.156853
C10   C     C_R   0.868416 0.369550 0.629875 -0.157000
H1    H     H_    0.264408 0.646486 0.356593 0.120116
H2    H     H_    0.735591 0.353517 0.643410 0.120106
C11   C     C_R   0.143170 0.594621 0.406407 -0.133961
C12   C     C_R   0.856828 0.405382 0.593596 -0.134009
C13   C     C_R   0.975235 0.572664 0.425515 0.018436
C14   C     C_R   0.024764 0.427338 0.574487 0.018449
C15   C     C_R   0.795209 0.587588 0.407060 -0.130599
C16   C     C_R   0.204790 0.412413 0.592941 -0.130670
H3    H     H_    0.662576 0.571611 0.420739 0.137368
H4    H     H_    0.337423 0.428390 0.579261 0.137355
C17   C     C_R   0.783577 0.623465 0.370724 -0.159306
C18   C     C_R   0.216422 0.376536 0.629276 -0.159381
H5    H     H_    0.642420 0.634011 0.357624 0.118096
H6    H     H_    0.357580 0.365989 0.642375 0.118069
C19   C     C_R   0.951655 0.645510 0.351722 -0.053568
C20   C     C_R   0.048344 0.354490 0.648279 -0.053562
N1    N     N_R   0.826181 0.513519 0.483128 -0.276569
N2    N     N_R   0.173817 0.486483 0.516874 -0.276583
N3    N     N_R   0.837831 0.479693 0.517854 -0.281528
N4    N     N_R   0.162167 0.520309 0.482148 -0.281523
C21   C     C_R   0.011912 0.465348 0.535585 0.511687
C22   C     C_R   0.988086 0.534654 0.464417 0.511721
C23   C     C_R   0.783474 0.625993 0.128102 -0.160610
C24   C     C_R   0.867414 0.373225 0.865995 -0.159812
H7    H     H_    0.642030 0.637771 0.140087 0.118414
H8    H     H_    0.735227 0.360969 0.849337 0.121731
C25   C     C_R   0.795626 0.590770 0.091520 -0.145836
C26   C     C_R   0.854939 0.408594 0.902359 -0.144565
H9    H     H_    0.663985 0.576044 0.076358 0.101496
H10   H     H_    0.714528 0.423148 0.912507 0.097845
C27   C     C_R   0.976032 0.574997 0.074338 0.096023
C28   C     C_R   0.021994 0.425159 0.925388 0.116232
C29   C     C_R   0.144189 0.593833 0.095477 -0.137287
C30   C     C_R   0.202654 0.407131 0.910243 -0.155240
H11   H     H_    0.284834 0.581145 0.083795 0.113365
H12   H     H_    0.333618 0.419903 0.927176 0.107098
C31   C     C_R   0.132449 0.629107 0.131943 -0.166489
C32   C     C_R   0.215570 0.371895 0.873675 -0.165880
H13   H     H_    0.265355 0.643138 0.147062 0.122465
H14   H     H_    0.356856 0.358227 0.863286 0.118786
C33   C     C_R   0.951884 0.645951 0.148646 -0.055718
C34   C     C_R   0.047846 0.354144 0.851243 -0.053799
C35   C     C_R   0.906121 0.488596 0.041305 -0.217963
C36   C     C_R   0.090199 0.511667 0.958124 -0.207946
H15   H     H_    0.837043 0.479469 0.073927 0.127044
H16   H     H_    0.158287 0.520945 0.925414 0.132614
C37   C     C_R   0.916562 0.450724 0.006607 0.155874
C38   C     C_R   0.081271 0.549409 0.992935 0.160363
C39   C     C_R   0.009052 0.462611 0.964198 0.018245
C40   C     C_R   0.988230 0.537631 0.035350 0.008906
C41   C     C_R   0.369925 0.133813 0.628408 -0.157586
C42   C     C_R   0.630075 0.866187 0.371592 -0.157584
H17   H     H_    0.238050 0.152125 0.640081 0.121287
H18   H     H_    0.761950 0.847875 0.359919 0.121274
C43   C     C_R   0.358597 0.098165 0.592331 -0.142220
C44   C     C_R   0.641403 0.901835 0.407669 -0.142238
H19   H     H_    0.218846 0.090525 0.577024 0.100987
H20   H     H_    0.781154 0.909475 0.422976 0.100971
C45   C     C_R   0.525656 0.073568 0.575604 0.095047
C46   C     C_R   0.474343 0.926432 0.424396 0.095047
C47   C     C_R   0.704591 0.085655 0.595994 -0.139862
C48   C     C_R   0.295409 0.914345 0.404006 -0.139842
H21   H     H_    0.835883 0.066947 0.584473 0.099539
H22   H     H_    0.164117 0.933054 0.415527 0.099552
C49   C     C_R   0.716069 0.121476 0.632042 -0.160857
C50   C     C_R   0.283931 0.878524 0.367958 -0.160860
H23   H     H_    0.856167 0.129766 0.646899 0.119864
H24   H     H_    0.143833 0.870235 0.353101 0.119869
C51   C     C_R   0.548784 0.146038 0.648737 -0.055565
C52   C     C_R   0.451216 0.853962 0.351263 -0.055555
C53   C     C_R   0.656964 0.033670 0.502699 -0.149511
C54   C     C_R   0.343036 0.966331 0.497300 -0.149539
H25   H     H_    0.778244 0.059951 0.503559 0.111172
H26   H     H_    0.221756 0.940049 0.496441 0.111138
C55   C     C_R   0.644155 0.998456 0.466256 -0.150669
C56   C     C_R   0.355845 0.001545 0.533744 -0.150697
H27   H     H_    0.756133 0.998603 0.440137 0.109170
H28   H     H_    0.243867 0.001397 0.559863 0.109136
C57   C     C_R   0.487042 0.964277 0.463052 0.081694
C58   C     C_R   0.512958 0.035723 0.536948 0.081694
C59   C     C_R   0.369945 0.133907 0.871536 -0.159874
C60   C     C_R   0.630056 0.866145 0.128499 -0.159839
H29   H     H_    0.238107 0.152296 0.859861 0.121060
H30   H     H_    0.761899 0.847754 0.140169 0.120979
C61   C     C_R   0.358632 0.098237 0.907681 -0.144768
C62   C     C_R   0.641362 0.901839 0.092374 -0.144917
H31   H     H_    0.218958 0.090605 0.923065 0.100786
H32   H     H_    0.781036 0.909486 0.076995 0.100725
C63   C     C_R   0.525714 0.073586 0.924369 0.095475
C64   C     C_R   0.474272 0.926494 0.075693 0.095510
C65   C     C_R   0.704654 0.085585 0.903942 -0.141834
C66   C     C_R   0.295334 0.914477 0.096113 -0.141845
H33   H     H_    0.835856 0.066798 0.915502 0.099894
H34   H     H_    0.164125 0.933267 0.084561 0.099920
C67   C     C_R   0.716132 0.121428 0.867822 -0.162687
C68   C     C_R   0.283862 0.878610 0.132214 -0.162935
H35   H     H_    0.856190 0.129689 0.852898 0.120050
H36   H     H_    0.143804 0.870336 0.147132 0.120048
C69   C     C_R   0.548811 0.146046 0.851151 -0.055108
C70   C     C_R   0.451188 0.853984 0.148873 -0.055033
C71   C     C_R   0.656294 0.033965 0.997464 -0.152082
C72   C     C_R   0.343668 0.966128 0.002608 -0.152141
H37   H     H_    0.776980 0.060450 0.996657 0.110190
H38   H     H_    0.222985 0.939642 0.003413 0.110124
C73   C     C_R   0.643408 0.998733 0.033978 -0.151790
C74   C     C_R   0.356554 0.001360 0.966094 -0.151816
H39   H     H_    0.754729 0.999008 0.060260 0.109224
H40   H     H_    0.245236 0.001083 0.939812 0.109171
C75   C     C_R   0.486960 0.964335 0.037022 0.082206
C76   C     C_R   0.513006 0.035756 0.963049 0.082220
C77   C     C_3   0.834149 0.397820 0.016730 -0.360444
C78   C     C_3   0.994085 0.358438 0.025572 -0.732150
H41   H     H_    0.084296 0.352908 0.994301 0.231709
H42   H     H_    0.087364 0.371330 0.054556 0.225114
H43   H     H_    0.928773 0.320781 0.034936 0.215224
H44   H     H_    0.740436 0.399050 0.047916 0.174538
H45   H     H_    0.740328 0.384671 0.988074 0.176073
C79   C     C_3   0.163360 0.602214 0.982295 -0.366394
C80   C     C_3   0.383481 0.600619 0.978570 -0.753833
H46   H     H_    0.429089 0.576698 0.948723 0.224425
H47   H     H_    0.439760 0.640268 0.973455 0.219915
H48   H     H_    0.447735 0.584394 0.010542 0.219875
H49   H     H_    0.102297 0.616217 0.949028 0.178446
H50   H     H_    0.122065 0.631139 0.008648 0.188784
H51   H     H_    0.284430 0.584244 0.419541 0.131877
H52   H     H_    0.715568 0.415760 0.580462 0.131881

loop_
_geom_bond_atom_site_label_1
_geom_bond_atom_site_label_2
_ccdc_geom_bond_type
C24   C26   A    
C28   C30   A    
O11   V3    S    
O13   V3    S    
C3    C70   S    
C49   C51   A    
O4    C2    A    
C42   C52   A    
C61   C63   A    
C77   C78   S    
C24   C34   A    
C13   C15   A    
C71   C73   A    
C53   H25   S    
O9    V1    S    
C12   C14   A    
C74   H40   S    
C72   C75   A    
O3    C1    A    
C55   H27   S    
V2    O20   S    
C42   H18   S    
C63   C65   A    
C60   C70   A    
C66   C68   A    
C47   C49   A    
C24   H8    S    
C50   C52   A    
N1    C22   A    
C16   C18   A    
C17   H5    S    
C25   H9    S    
O7    C3    A    
C38   C40   A    
C26   H10   S    
O13   V1    S    
C28   C39   S    
O5    C7    A    
C8    C20   S    
C36   C39   A    
O7    V1    S    
O6    C8    A    
C62   H32   S    
C59   H29   S    
C48   H22   S    
C63   C76   S    
C64   C75   S    
O3    V1    S    
O14   V4    S    
C17   C19   A    
C80   H47   S    
C56   C58   A    
O14   V2    S    
C77   H44   S    
C41   C51   A    
N2    C21   A    
C72   C74   A    
N3    C21   A    
V1    O19   S    
C2    O12   A    
C15   H3    S    
C68   C70   A    
C16   H4    S    
O1    V3    S    
C37   C39   A    
C46   C57   S    
N2    N4    A    
C18   C20   A    
C44   C46   A    
C78   H42   S    
C41   H17   S    
O17   V3    S    
C11   C13   A    
C79   H50   S    
C10   C20   A    
C26   C28   A    
C54   C57   A    
V4    O20   S    
C53   C58   A    
C32   H14   S    
C42   C44   A    
O8    V2    S    
C31   H13   S    
C41   C43   A    
C6    C34   S    
C27   C40   S    
C1    O11   A    
C59   C69   A    
C35   C40   A    
C27   C29   A    
O15   V3    S    
C9    C11   A    
C60   C62   A    
C62   C64   A    
C29   H11   S    
C68   H36   S    
C25   C27   A    
C78   H43   S    
C36   C38   A    
C44   H20   S    
C13   C22   S    
C35   C37   A    
C30   C32   A    
C14   C21   S    
O10   V2    S    
C50   H24   S    
C35   H15   S    
C73   C75   A    
C80   H48   S    
C46   C48   A    
C36   H16   S    
C77   H45   S    
C61   H31   S    
C67   C69   A    
C72   H38   S    
C71   C76   A    
C49   H23   S    
O18   V4    S    
C59   C61   A    
C1    C52   S    
O15   C5    A    
O8    C4    A    
O16   C6    A    
C43   H19   S    
O12   V4    S    
C64   C66   A    
C78   H41   S    
C54   C56   A    
C71   H37   S    
C53   C55   A    
C79   H49   S    
C66   H34   S    
O16   V4    S    
C10   C12   A    
O18   C8    A    
C74   C76   A    
C5    C33   S    
C14   C16   A    
C47   H21   S    
N4    C22   A    
C23   C25   A    
O5    V1    S    
C4    C69   S    
C55   C57   A    
O17   C7    A    
O6    V2    S    
O10   C6    A    
C37   C77   S    
O2    V4    S    
C11   H51   S    
C12   H52   S    
V3    O19   S    
C31   C33   A    
C73   H39   S    
C23   C33   A    
C45   C47   A    
C54   H26   S    
C32   C34   A    
C48   C50   A    
O9    C5    A    
C9    H1    S    
C10   H2    S    
C60   H30   S    
C29   C31   A    
C45   C58   S    
C43   C45   A    
O2    C4    A    
C2    C51   S    
C56   H28   S    
C23   H7    S    
O4    V2    S    
C18   H6    S    
C65   C67   A    
O1    C3    A    
C79   C80   S    
C30   H12   S    
C65   H33   S    
C15   C17   A    
N1    N3    A    
C80   H46   S    
C9    C19   A    
C38   C79   S    
C7    C19   S    
C67   H35   S    
