data_mof_unit_34915.cif
_audit_creation_date              2012-10-26T19:28:23-0400
_audit_creation_method            fapswitch 2.2
_symmetry_space_group_name_H-M    P1
_symmetry_Int_Tables_number       1
_space_group_crystal_system       triclinic
_cell_length_a                    14.718101
_cell_length_b                    14.62504
_cell_length_c                    14.344229
_cell_angle_alpha                 78.062785
_cell_angle_beta                  102.358938
_cell_angle_gamma                 114.414522
_cell_volume                      2721.95309452

loop_
_atom_site_label
_atom_site_type_symbol
_atom_type_description
_atom_site_fract_x
_atom_site_fract_y
_atom_site_fract_z
_atom_type_partial_charge
C1    C     C_R   0.880460 0.312274 0.514642 0.548683
C2    C     C_R   0.490228 0.126694 0.477842 -0.124698
C3    C     C_R   0.611530 0.903930 0.502220 -0.100122
C4    C     C_R   0.386812 0.099785 0.466319 -0.103948
C5    C     C_R   0.726584 0.682110 0.357514 0.224998
C6    C     C_R   0.271859 0.315680 0.639121 0.224939
C7    C     C_R   0.803637 0.645877 0.379185 0.072565
C8    C     C_R   0.195915 0.353311 0.619682 0.072513
C9    C     C_R   0.711773 0.506203 0.484727 0.021614
C10   C     C_R   0.287705 0.493302 0.514382 0.021861
C11   C     C_R   0.628621 0.536028 0.464642 -0.029208
C12   C     C_R   0.119571 0.687780 0.485201 0.548811
C13   C     C_R   0.369589 0.461770 0.531824 -0.029475
C14   C     C_R   0.637926 0.627004 0.400862 0.020683
C15   C     C_R   0.359869 0.370132 0.594658 0.020660
C16   C     C_R   0.999990 0.500025 0.668845 0.549941
C17   C     C_R   0.000009 0.499973 0.331155 0.549637
C18   C     C_R   0.538177 0.479854 0.507143 0.035555
C19   C     C_R   0.459294 0.517060 0.487932 0.036289
C20   C     C_R   0.472749 0.608435 0.425564 -0.150333
C21   C     C_R   0.523729 0.387190 0.567536 -0.150195
C22   C     C_R   0.559199 0.661286 0.382791 -0.094783
C23   C     C_R   0.639055 0.079476 0.503654 0.035696
C24   C     C_R   0.437376 0.334363 0.610450 -0.090612
C25   C     C_1   0.999908 0.500015 0.771175 -0.019388
C26   C     C_1   0.000092 0.499981 0.228827 -0.019746
C27   C     C_1   0.999911 0.500005 0.856601 -0.016835
C28   C     C_1   0.000089 0.499990 0.143402 -0.017123
C29   C     C_1   0.999969 0.499999 0.957282 0.024494
C30   C     C_1   0.000032 0.499996 0.042722 0.024400
C31   C     C_R   0.812733 0.204854 0.518452 -0.002173
C32   C     C_R   0.187269 0.795442 0.476861 -0.003194
C33   C     C_R   0.781728 0.029152 0.518878 -0.093561
C34   C     C_R   0.360223 0.922256 0.480331 0.035949
C35   C     C_R   0.217042 0.973212 0.457939 -0.092492
C36   C     C_R   0.849032 0.129222 0.523068 -0.115619
C37   C     C_R   0.150279 0.872208 0.461645 -0.113200
C38   C     C_R   0.708992 0.179102 0.511865 -0.121914
C39   C     C_R   0.291264 0.820898 0.486183 -0.124311
C40   C     C_R   0.677408 0.003895 0.508533 0.059295
C41   C     C_R   0.321383 0.998679 0.468054 0.059873
C42   C     C_R   0.532651 0.053011 0.490648 0.039116
C43   C     C_R   0.466355 0.949476 0.488346 0.038860
C44   C     C_R   0.508270 0.876937 0.492496 -0.124245
Cu1   Cu    Cu3+1 0.081740 0.475690 0.523180 0.950660
Cu2   Cu    Cu3+1 0.918260 0.524310 0.476820 0.951286
H1    H     H_    0.640029 0.845778 0.504723 0.138039
H2    H     H_    0.187129 0.031562 0.447796 0.140091
H3    H     H_    0.463552 0.798317 0.486149 0.098664
H4    H     H_    0.534369 0.206784 0.474047 0.103547
H5    H     H_    0.563183 0.730347 0.335662 0.200584
H6    H     H_    0.432608 0.264294 0.656065 0.202090
H7    H     H_    0.286275 0.558767 0.464710 0.130479
H8    H     H_    0.713737 0.441833 0.535924 0.130469
H9    H     H_    0.127593 0.312641 0.651769 0.185848
H10   H     H_    0.872239 0.686763 0.347579 0.185071
H11   H     H_    0.863615 0.906493 0.198700 0.383198
H12   H     H_    0.357871 0.158868 0.456581 0.130713
H13   H     H_    0.134488 0.090437 0.796891 0.383224
H14   H     H_    0.417619 0.642138 0.407607 0.092784
H15   H     H_    0.577607 0.352002 0.582963 0.093267
H16   H     H_    0.316667 0.759632 0.500377 0.121175
H17   H     H_    0.684982 0.238750 0.513597 0.115837
H18   H     H_    0.070135 0.854203 0.454244 0.153490
H19   H     H_    0.929036 0.147544 0.528424 0.152657
H20   H     H_    0.811160 0.971572 0.522220 0.146574
N1    N     N_R   0.795420 0.560790 0.441960 -0.269730
N2    N     N_R   0.204580 0.439210 0.558040 -0.269954
O1    O     O_R   0.977910 0.338120 0.530560 -0.503893
O2    O     O_2   0.741131 0.874109 0.329984 -0.313074
O3    O     O_3   0.858788 0.842025 0.240387 -0.538195
O4    O     O_2   0.253647 0.122803 0.662433 -0.304813
O5    O     O_2   0.334397 0.216125 0.801363 -0.262936
O6    O     O_3   0.139878 0.155620 0.756344 -0.536913
O7    O     O_R   0.022090 0.661880 0.469440 -0.503749
O8    O     O_R   0.839850 0.379180 0.491410 -0.505777
O9    O     O_R   0.160150 0.620820 0.508590 -0.506579
O10   O     O_R   0.069040 0.479460 0.643530 -0.473257
O11   O     O_R   0.930960 0.520540 0.356470 -0.473452
O12   O     O_R   0.930990 0.520530 0.604380 -0.479337
O13   O     O_R   0.069010 0.479470 0.395620 -0.479890
O14   O     O_2   0.664360 0.778111 0.192526 -0.261381
S1    S     S_3+6 0.745730 0.796927 0.278264 -0.019143
S2    S     S_3+6 0.251876 0.199653 0.716566 -0.016936

loop_
_geom_bond_atom_site_label_1
_geom_bond_atom_site_label_2
_ccdc_geom_bond_type
C44   H3    S    
C24   H6    S    
C11   C18   A    
C27   C29   S    
C18   C21   A    
C19   C20   A    
C1    C31   S    
Cu2   O8    S    
Cu1   Cu2   S    
C23   C42   A    
C17   C26   S    
C35   C37   A    
Cu2   O11   S    
C5    S1    S    
C11   C14   A    
C4    C41   A    
C23   C40   A    
C17   O11   A    
C33   C36   A    
C18   C19   A    
C32   C39   A    
C10   H7    S    
C2    H4    S    
C6    C15   A    
Cu1   O10   S    
C20   H14   S    
C17   O13   A    
O5    S2    D    
C21   H15   S    
C12   C32   S    
C34   C41   A    
C7    H10   S    
C35   H2    S    
C8    H9    S    
Cu2   O7    S    
C33   H20   S    
O3    S1    S    
C3    C44   A    
C33   C40   A    
C6    S2    S    
C13   C19   A    
Cu1   O1    S    
C34   C39   A    
C5    C7    A    
C36   H19   S    
C6    C8    A    
C1    O1    A    
C16   O12   A    
C2    C4    A    
C43   C44   A    
C9    N1    A    
C29   C30   T    
C12   O9    A    
Cu1   N2    S    
C32   C37   A    
H11   O3    S    
O2    S1    D    
C9    C11   A    
H13   O6    S    
C5    C14   A    
O4    S2    D    
C15   C24   A    
C20   C22   A    
C3    C40   A    
C8    N2    A    
C13   C15   A    
C12   O7    A    
C42   C43   A    
C37   H18   S    
C38   H17   S    
C16   C25   S    
C39   H16   S    
C1    O8    A    
Cu1   O13   S    
C34   C43   A    
O6    S2    S    
C10   C13   A    
C10   N2    A    
C25   C27   T    
C23   C38   A    
C26   C28   T    
C31   C38   A    
C14   C22   A    
C28   C30   S    
Cu2   N1    S    
Cu2   O12   S    
C2    C42   A    
C3    H1    S    
C16   O10   A    
C35   C41   A    
C7    N1    A    
O14   S1    D    
C21   C24   A    
C4    H12   S    
C31   C36   A    
Cu1   O9    S    
C9    H8    S    
C22   H5    S    
