data_mof_unit_50151.cif
_audit_creation_date              2012-12-11T17:15:56-0500
_audit_creation_method            fapswitch 2.2
_symmetry_space_group_name_H-M    P1
_symmetry_Int_Tables_number       1
_space_group_crystal_system       triclinic
_cell_length_a                    14.738832
_cell_length_b                    7.291442
_cell_length_c                    13.445237
_cell_angle_alpha                 89.999732
_cell_angle_beta                  99.888082
_cell_angle_gamma                 90.000216
_cell_volume                      1423.45959219

loop_
_atom_site_label
_atom_site_type_symbol
_atom_type_description
_atom_site_fract_x
_atom_site_fract_y
_atom_site_fract_z
_atom_type_partial_charge
O1    O     O_R   0.398210 0.494340 0.401550 -0.533150
O2    O     O_R   0.601790 0.994340 0.598450 -0.533152
O3    O     O_R   0.586310 0.821730 0.403360 -0.540520
O4    O     O_R   0.413690 0.321730 0.596640 -0.540514
C1    C     C_R   0.615178 0.654716 0.382404 0.665165
C2    C     C_R   0.384822 0.154714 0.617595 0.665166
O5    O     O_R   0.397970 0.823900 0.389580 -0.532815
O6    O     O_R   0.602030 0.323900 0.610420 -0.532815
O7    O     O_R   0.412100 0.996500 0.584560 -0.539270
O8    O     O_R   0.587900 0.496500 0.415440 -0.539272
C3    C     C_R   0.365232 0.655321 0.363133 0.748731
C4    C     C_R   0.634768 0.155322 0.636866 0.748730
O9    O     O_3   0.504860 0.661550 0.563990 -0.379515
O10   O     O_3   0.495140 0.161550 0.436010 -0.379520
V1    V     V_3+5 0.499100 0.935510 0.488130 1.474996
V2    V     V_3+5 0.500900 0.435510 0.511870 1.475004
C5    C     C_1   0.715990 0.144780 0.716828 -0.133304
C6    C     C_1   0.284010 0.644780 0.283172 -0.133312
C7    C     C_1   0.783991 0.134077 0.783224 -0.133165
C8    C     C_1   0.216009 0.634077 0.216776 -0.133164
C9    C     C_3   0.259408 0.275070 0.843171 -0.363224
C10   C     C_3   0.740590 0.775062 0.156825 -0.363214
C11   C     C_3   0.337174 0.275541 0.778379 -0.185058
C12   C     C_3   0.662820 0.775527 0.221613 -0.185068
C13   C     C_3   0.139168 0.161043 0.694046 -0.112489
C14   C     C_3   0.860832 0.661055 0.305955 -0.112494
C15   C     C_3   0.242951 0.934859 0.812638 -0.108777
C16   C     C_3   0.757054 0.434854 0.187370 -0.108783
C17   C     C_3   0.185775 0.122837 0.808813 -0.043995
C18   C     C_3   0.814227 0.622835 0.191188 -0.043995
C19   C     C_3   0.313201 0.140727 0.687416 -0.013993
C20   C     C_3   0.686800 0.640732 0.312584 -0.013994
C21   C     C_3   0.216444 0.198034 0.629309 -0.369179
C22   C     C_3   0.783555 0.698072 0.370686 -0.369169
C23   C     C_3   0.306789 0.939291 0.729437 -0.213656
C24   C     C_3   0.693220 0.439288 0.270576 -0.213658
H1    H     H_    0.377545 0.894521 0.763660 0.114120
H2    H     H_    0.622466 0.394497 0.236360 0.114119
H3    H     H_    0.201835 0.125521 0.555323 0.152245
H4    H     H_    0.798165 0.625601 0.444686 0.152244
O11   O     O_R   0.912140 0.786650 0.084610 -0.529422
O12   O     O_R   0.087860 0.286650 0.915390 -0.529424
O13   O     O_R   0.102040 0.454810 0.110430 -0.536096
O14   O     O_R   0.897960 0.954810 0.889570 -0.536095
C25   C     C_R   0.134794 0.623489 0.136815 0.716412
C26   C     C_R   0.865205 0.123489 0.863185 0.716410
O15   O     O_R   0.913690 0.457060 0.096650 -0.538091
O16   O     O_R   0.086310 0.957060 0.903350 -0.538089
O17   O     O_R   0.898200 0.284560 0.901540 -0.529580
O18   O     O_R   0.101800 0.784560 0.098460 -0.529578
C27   C     C_R   0.885531 0.623702 0.118758 0.638933
C28   C     C_R   0.114469 0.123702 0.881243 0.638931
O19   O     O_3   0.995160 0.617270 0.936040 -0.362777
O20   O     O_3   0.004840 0.117270 0.063960 -0.362777
V3    V     V_3+5 0.000900 0.343280 0.011870 1.524483
V4    V     V_3+5 0.999100 0.843280 0.988130 1.524487
H5    H     H_    0.226717 0.409487 0.836897 0.180991
H6    H     H_    0.773278 0.909485 0.163099 0.180988
C29   C     C_1   0.277139 0.806917 0.645502 0.335509
N1    N     N_1   0.254211 0.704790 0.580123 -0.362143
C30   C     C_1   0.722883 0.306938 0.354521 0.335516
N2    N     N_1   0.745819 0.204830 0.419908 -0.362135
C31   C     C_1   0.081555 0.006374 0.648627 0.311123
N3    N     N_1   0.035739 0.887158 0.611867 -0.285056
C32   C     C_1   0.918437 0.506380 0.351385 0.311128
N4    N     N_1   0.964245 0.387161 0.388156 -0.285054
H7    H     H_    0.287794 0.262007 0.925124 0.154562
H8    H     H_    0.712207 0.761994 0.074872 0.154559
C33   C     C_1   0.427093 0.231564 0.840645 0.316566
N5    N     N_1   0.497420 0.195459 0.889180 -0.303965
C34   C     C_1   0.572904 0.731523 0.159347 0.316580
N6    N     N_1   0.502580 0.695398 0.110811 -0.303971
H9    H     H_    0.342952 0.417421 0.749514 0.132044
H10   H     H_    0.657032 0.917410 0.250469 0.132027
C35   C     C_1   0.072713 0.313654 0.682268 0.336675
N7    N     N_1   0.017264 0.427657 0.669626 -0.275498
C36   C     C_1   0.927297 0.813651 0.317726 0.336676
N8    N     N_1   0.982756 0.927639 0.330359 -0.275516
H11   H     H_    0.218641 0.346067 0.609755 0.181348
H12   H     H_    0.781352 0.846119 0.390214 0.181350
C37   C     C_1   0.181672 0.774335 0.799992 0.289811
N9    N     N_1   0.129433 0.655605 0.791348 -0.307000
C38   C     C_1   0.818333 0.274331 0.200017 0.289806
N10   N     N_1   0.870570 0.155598 0.208661 -0.307006
C39   C     C_1   0.299640 0.907736 0.913665 0.268464
N11   N     N_1   0.343400 0.887194 0.992916 -0.310433
C40   C     C_1   0.700362 0.407722 0.086347 0.268464
N12   N     N_1   0.656601 0.387173 0.007097 -0.310423

loop_
_geom_bond_atom_site_label_1
_geom_bond_atom_site_label_2
_ccdc_geom_bond_type
C40   N12   T    
C3    C6    S    
C15   C17   S    
C11   C33   S    
O1    C3    A    
C18   C27   S    
O2    C4    A    
C2    O7    A    
C37   N9    T    
C7    C26   S    
C36   N8    T    
O5    C3    A    
C26   O17   A    
C21   H3    S    
C22   H4    S    
C20   C24   S    
C23   H1    S    
C39   N11   T    
C23   C29   S    
C13   C31   S    
C15   C39   S    
C22   H12   S    
C14   C22   S    
C4    C5    S    
C19   C21   S    
C6    C8    T    
C8    C25   S    
C1    C20   S    
O5    V1    S    
C2    C19   S    
C29   N1    T    
O6    V2    S    
C9    H7    S    
C16   C38   S    
C30   N2    T    
C11   H9    S    
C1    O8    A    
O12   C28   A    
O14   C26   A    
C13   C17   S    
C14   C36   S    
C15   C37   S    
O4    C2    A    
C21   H11   S    
O15   C27   A    
C15   C23   S    
O17   V3    S    
C9    C17   S    
O18   V4    S    
C13   C35   S    
C20   C22   S    
O4    V2    S    
C35   N7    T    
C12   C20   S    
O11   V4    S    
C9    H5    S    
O12   V3    S    
O14   V4    S    
C38   N10   T    
O6    C4    A    
C16   C40   S    
O1    V2    S    
O2    V1    S    
O13   C25   A    
C10   H8    S    
O13   V3    S    
C14   C18   S    
C9    C11   S    
C19   C23   S    
C24   C30   S    
O3    V1    S    
O15   V3    S    
O19   V4    S    
O16   V4    S    
O20   V3    S    
C10   C18   S    
C14   C32   S    
O3    C1    A    
C10   H6    S    
C24   H2    S    
O7    V1    S    
C34   N6    T    
O8    V2    S    
C12   H10   S    
C25   O18   A    
C16   C18   S    
C5    C7    T    
C10   C12   S    
C33   N5    T    
C31   N3    T    
O16   C28   A    
C16   C24   S    
C32   N4    T    
O9    V2    S    
C13   C21   S    
O10   V1    S    
O11   C27   A    
C12   C34   S    
C11   C19   S    
C17   C28   S    
