data_mof_unit_27778.cif
_audit_creation_date              2013-03-05T16:05:40-0500
_audit_creation_method            fapswitch 2.2
_symmetry_space_group_name_H-M    P1
_symmetry_Int_Tables_number       1
_space_group_crystal_system       triclinic
_cell_length_a                    10.668362
_cell_length_b                    14.945754
_cell_length_c                    15.389006
_cell_angle_alpha                 82.085376
_cell_angle_beta                  89.698656
_cell_angle_gamma                 104.788067
_cell_volume                      2347.75897058

loop_
_atom_site_label
_atom_site_type_symbol
_atom_site_description
_atom_site_fract_x
_atom_site_fract_y
_atom_site_fract_z
_atom_type_partial_charge
O1    O     O_R   0.462770 0.383110 0.605620 -0.616878
O2    O     O_R   0.510160 0.531900 0.639510 -0.617580
C1    C     C_R   0.485364 0.441673 0.662498 0.847690
O3    O     O_R   0.661510 0.425600 0.483070 -0.637838
O4    O     O_R   0.708900 0.574390 0.516960 -0.622393
C2    C     C_R   0.742022 0.501049 0.499469 0.924900
Zn1   Zn    Zn3+2 0.468350 0.400660 0.477370 0.948690
Zn2   Zn    Zn3+2 0.531650 0.599340 0.522630 0.948573
O5    O     O_R   0.489840 0.468100 0.360490 -0.620638
O6    O     O_R   0.537230 0.616890 0.394380 -0.603066
O7    O     O_R   0.291100 0.425610 0.483040 -0.617983
O8    O     O_R   0.338490 0.574400 0.516930 -0.629246
C3    C     C_R   0.525644 0.558972 0.337407 0.915441
C4    C     C_R   0.257690 0.499379 0.499376 0.851485
C5    C     C_3   0.898964 0.429881 0.575843 -0.515826
H1    H     H_    0.832577 0.359770 0.572935 0.177616
H2    H     H_    0.872155 0.450749 0.638762 0.179344
C6    C     C_3   0.042739 0.426521 0.576312 -0.160673
H3    H     H_    0.080963 0.453711 0.637548 0.134550
H4    H     H_    0.861733 0.395913 0.412325 0.090760
H5    H     H_    0.068010 0.401513 0.404788 0.124981
C7    C     C_3   0.916070 0.470504 0.409686 0.157184
C8    C     C_3   0.964621 0.599773 0.509000 -0.388599
C9    C     C_3   0.878302 0.501847 0.497459 0.031264
H6    H     H_    0.953846 0.654244 0.454949 0.209482
H7    H     H_    0.935439 0.621233 0.570989 0.196047
C10   C     C_3   0.120485 0.498656 0.497759 0.040631
C11   C     C_3   0.063217 0.474329 0.407427 -0.244496
C12   C     C_3   0.105676 0.596760 0.513552 -0.430431
H8    H     H_    0.139534 0.611152 0.579859 0.197059
H9    H     H_    0.167821 0.654723 0.467352 0.171543
C13   C     C_R   0.499527 0.407371 0.754717 -0.068081
C14   C     C_R   0.569099 0.595446 0.245183 -0.059150
C15   C     C_R   0.505261 0.284094 0.873382 -0.191718
C16   C     C_R   0.483563 0.312261 0.785636 -0.205903
C17   C     C_R   0.541698 0.473536 0.810945 -0.261087
C18   C     C_R   0.570701 0.447468 0.897429 0.092878
C19   C     C_R   0.546090 0.351063 0.930020 0.174617
C20   C     C_R   0.613596 0.515225 0.953783 0.051853
C21   C     C_R   0.605220 0.485781 0.045296 0.073549
C22   C     C_R   0.585874 0.389318 0.076407 -0.205790
C23   C     C_R   0.559728 0.323211 0.018952 -0.240621
C24   C     C_R   0.661714 0.611483 0.921760 -0.209766
C25   C     C_R   0.682598 0.677796 0.978518 -0.193000
C26   C     C_R   0.651578 0.650126 0.067839 0.136978
C27   C     C_R   0.612693 0.553969 0.101962 0.104656
C28   C     C_R   0.655595 0.717749 0.122795 -0.237397
C29   C     C_R   0.615382 0.691949 0.211442 0.013516
C30   C     C_R   0.570907 0.528654 0.190003 -0.212899
H10   H     H_    0.544219 0.249850 0.044861 0.149577
H11   H     H_    0.531869 0.455914 0.215465 0.154817
H12   H     H_    0.716753 0.751185 0.951758 0.180564
H13   H     H_    0.488945 0.210181 0.897143 0.142299
H14   H     H_    0.454241 0.260012 0.742380 0.154524
H15   H     H_    0.547663 0.545830 0.787047 0.164559
H16   H     H_    0.593059 0.363371 0.144727 0.165451
H17   H     H_    0.685501 0.637063 0.852987 0.166561
H18   H     H_    0.688211 0.791357 0.096169 0.149485
N1    N     N_R   0.573860 0.731700 0.552730 -0.121067
N2    N     N_R   0.426060 0.268290 0.447230 -0.097980
C31   C     C_R   0.711626 0.845696 0.627759 0.210414
C32   C     C_R   0.674448 0.755821 0.605373 -0.089405
C33   C     C_R   0.502945 0.790930 0.521506 -0.048165
C34   C     C_R   0.534557 0.883378 0.540680 -0.033980
C35   C     C_R   0.644155 0.911498 0.592362 0.030775
C36   C     C_R   0.465947 0.949494 0.505763 0.108845
C37   C     C_R   0.514291 0.045191 0.516918 0.074362
C38   C     C_R   0.626389 0.071015 0.565555 -0.266215
C39   C     C_R   0.688480 0.005454 0.603282 -0.153619
C40   C     C_R   0.351915 0.923207 0.458730 -0.225470
C41   C     C_R   0.291992 0.989194 0.418813 -0.228286
C42   C     C_R   0.340599 0.083198 0.426587 0.172558
C43   C     C_R   0.450346 0.112235 0.477354 -0.007469
C44   C     C_R   0.278302 0.148453 0.385602 -0.320651
C45   C     C_R   0.323172 0.241521 0.396881 0.034299
C46   C     C_R   0.489701 0.207681 0.487109 -0.065385
H19   H     H_    0.775421 0.030448 0.638048 0.200519
H20   H     H_    0.566712 0.235814 0.528266 0.126277
H21   H     H_    0.273145 0.292132 0.368358 0.121250
H22   H     H_    0.206043 0.966222 0.382096 0.144110
H23   H     H_    0.725187 0.704156 0.630379 0.167047
H24   H     H_    0.426981 0.764829 0.478778 0.138329
H25   H     H_    0.670695 0.142032 0.575013 0.141402
H26   H     H_    0.305504 0.851756 0.451726 0.135548
H27   H     H_    0.194073 0.127362 0.346874 0.142420
N3    N     N_R   0.875374 0.518789 0.329008 0.206560
O9    O     O_R   0.867446 0.480626 0.257461 -0.392681
O10   O     O_R   0.840578 0.596108 0.328020 -0.481513
C47   C     C_R   0.140776 0.531973 0.324709 0.163894
C48   C     C_R   0.199729 0.486404 0.268221 -0.128512
C49   C     C_R   0.262687 0.534480 0.189177 -0.137381
C50   C     C_R   0.270658 0.629303 0.165841 -0.109073
C51   C     C_R   0.212698 0.675642 0.220538 -0.152300
C52   C     C_R   0.147297 0.627472 0.298823 -0.060224
H28   H     H_    0.194875 0.412804 0.284165 0.111937
H29   H     H_    0.305412 0.498019 0.145927 0.137408
H30   H     H_    0.320557 0.666596 0.104947 0.138236
H31   H     H_    0.216166 0.748723 0.201447 0.128484
H32   H     H_    0.097118 0.664592 0.336025 0.140010
C53   C     C_R   0.623864 0.769059 0.263873 0.138976
C54   C     C_R   0.540596 0.828108 0.247507 -0.187309
C55   C     C_R   0.560217 0.909431 0.286538 -0.139942
C56   C     C_R   0.663893 0.932937 0.341369 -0.102211
C57   C     C_R   0.746228 0.874050 0.358948 -0.173919
C58   C     C_R   0.726985 0.792746 0.319930 -0.073111
H33   H     H_    0.463235 0.812720 0.202336 0.128840
H34   H     H_    0.496417 0.955098 0.273075 0.142574
H35   H     H_    0.680181 0.996607 0.370540 0.137447
H36   H     H_    0.826117 0.892141 0.401803 0.133593
H37   H     H_    0.794618 0.750066 0.331559 0.176973
N4    N     N_R   0.816612 0.868284 0.685786 0.187667
O11   O     O_R   0.916374 0.833971 0.680066 -0.421010
O12   O     O_R   0.802284 0.908164 0.753878 -0.412223
C59   C     C_R   0.059874 0.326721 0.584038 0.153258
C60   C     C_R   0.993805 0.260529 0.531639 -0.164738
C61   C     C_R   0.015309 0.171400 0.539214 -0.164230
C62   C     C_R   0.101709 0.146285 0.599628 -0.077529
C63   C     C_R   0.165935 0.210004 0.653217 -0.098642
C64   C     C_R   0.144935 0.299301 0.645904 -0.104971
H38   H     H_    0.924727 0.276448 0.485132 0.112945
H39   H     H_    0.964499 0.121592 0.498250 0.136167
H40   H     H_    0.118392 0.077290 0.605201 0.159157
H41   H     H_    0.232142 0.190154 0.700518 0.125510
H42   H     H_    0.196775 0.347583 0.687885 0.099357

loop_
_geom_bond_atom_site_label_1
_geom_bond_atom_site_label_2
_geom_bond_distance
_ccdc_geom_bond_type
C5    C6    1.547452 S    
C58   H37   1.079081 S    
C51   C52   1.397266 A    
C10   C12   1.565217 S    
C22   C23   1.392207 A    
C39   H19   1.081413 S    
N4    O11   1.301374 A    
C24   C25   1.386551 A    
C6    C59   1.537192 S    
C59   C60   1.412597 A    
C48   H28   1.081364 S    
C36   C40   1.414831 A    
C64   H42   1.082765 S    
Zn1   O7    2.022279 S    
C27   C30   1.394236 A    
C53   C58   1.405372 A    
C54   C55   1.397988 A    
C8    C12   1.518633 S    
C17   C18   1.393520 A    
C18   C19   1.415280 A    
C46   H20   1.074908 S    
C15   C16   1.396665 A    
Zn2   N1    2.032359 S    
O4    C2    1.294912 A    
O7    C4    1.296848 A    
N3    O10   1.299086 A    
C14   C30   1.400387 A    
C5    H1    1.111756 S    
C61   C62   1.394422 A    
C5    H2    1.114637 S    
C6    H3    1.115516 S    
C8    H7    1.114428 S    
C47   C52   1.411797 A    
O5    C3    1.310558 A    
C63   C64   1.398417 A    
C57   C58   1.397920 A    
C49   H29   1.082222 S    
C38   C39   1.383715 A    
C30   H11   1.076437 S    
C8    C9    1.551421 S    
C40   C41   1.384844 A    
C37   C43   1.423182 A    
C4    C10   1.461401 S    
C40   H26   1.076801 S    
C59   C64   1.410430 A    
C25   H12   1.084185 S    
C7    N3    1.472966 S    
C36   C37   1.425877 A    
C7    C11   1.556235 S    
C16   H14   1.082318 S    
C55   C56   1.397086 A    
O3    Zn1   2.002976 S    
C41   H22   1.084465 S    
C50   H30   1.082429 S    
C26   C28   1.397215 A    
C29   C53   1.480216 S    
C61   H39   1.082683 S    
C33   H24   1.075243 S    
C37   C38   1.411635 A    
C13   C16   1.401904 A    
C42   C44   1.398772 A    
C44   C45   1.386191 A    
C20   C21   1.411685 A    
N3    O9    1.301559 A    
C15   C19   1.404597 A    
C20   C24   1.414622 A    
C26   C27   1.413769 A    
N2    C46   1.350332 A    
O1    C1    1.302237 A    
C34   C36   1.424104 A    
C21   C27   1.417543 A    
C62   H40   1.082533 S    
C22   H16   1.079536 S    
C3    C14   1.475567 S    
C12   H8    1.114725 S    
C28   C29   1.399392 A    
Zn2   O8    2.002976 S    
C2    C9    1.451028 S    
C55   H34   1.082456 S    
N4    O12   1.301335 A    
C11   C47   1.539559 S    
C23   H10   1.083906 S    
O3    C2    1.288113 A    
C21   C22   1.416794 A    
H5    C11   1.108686 S    
O8    C4    1.290613 A    
C43   C46   1.409836 A    
C7    C9    1.571993 S    
C31   N4    1.437483 S    
C13   C17   1.393429 A    
Zn1   N2    2.032704 S    
C49   C50   1.393796 A    
C25   C26   1.392397 A    
C54   H33   1.081859 S    
Zn1   O5    1.918888 S    
C5    C9    1.557885 S    
N1    C32   1.352741 A    
O1    Zn1   1.953415 S    
C38   H25   1.076259 S    
C32   H23   1.082169 S    
Zn2   O6    1.953415 S    
O2    Zn2   1.918888 S    
C6    C10   1.576584 S    
H4    C7    1.112605 S    
C42   C43   1.418836 A    
O6    C3    1.299543 A    
O4    Zn2   2.022278 S    
C19   C23   1.394107 A    
N2    C45   1.354761 A    
N1    C33   1.347398 A    
C34   C35   1.423821 A    
C31   C32   1.391835 A    
O2    C1    1.303516 A    
C41   C42   1.390033 A    
C12   H9    1.108029 S    
C17   H15   1.077953 S    
C62   C63   1.394861 A    
C28   H18   1.085439 S    
C48   C49   1.396926 A    
C57   H36   1.082504 S    
C52   H32   1.076090 S    
C35   C39   1.396639 A    
C50   C51   1.394346 A    
C63   H41   1.081521 S    
C8    H6    1.109116 S    
C44   H27   1.083878 S    
C1    C13   1.463259 S    
C24   H17   1.080228 S    
C33   C34   1.409030 A    
C31   C35   1.414216 A    
C15   H13   1.083638 S    
C18   C20   1.412971 A    
C60   H38   1.077079 S    
C56   C57   1.396745 A    
C14   C29   1.421680 A    
C56   H35   1.082280 S    
C53   C54   1.404554 A    
C47   C48   1.411037 A    
C45   H21   1.080183 S    
C51   H31   1.082399 S    
C60   C61   1.397937 A    
C10   C11   1.572468 S    
