data_mof_unit_10356.cif
_audit_creation_date              2012-12-10T18:32:56-0500
_audit_creation_method            fapswitch 2.2
_symmetry_space_group_name_H-M    P1
_symmetry_Int_Tables_number       1
_space_group_crystal_system       triclinic
_cell_length_a                    14.965663
_cell_length_b                    15.364257
_cell_length_c                    15.751351
_cell_angle_alpha                 89.987846
_cell_angle_beta                  104.854199
_cell_angle_gamma                 81.242672
_cell_volume                      3457.03890394

loop_
_atom_site_label
_atom_site_type_symbol
_atom_type_description
_atom_site_fract_x
_atom_site_fract_y
_atom_site_fract_z
_atom_type_partial_charge
C1    C     C_R   0.440990 0.662456 0.487594 0.941662
C2    C     C_R   0.598150 0.242636 0.522135 -0.154644
C3    C     C_R   0.309045 0.866846 0.551955 -0.186783
C4    C     C_R   0.501207 0.500310 0.661673 0.895041
C5    C     C_R   0.327871 0.780825 0.525859 -0.224649
C6    C     C_R   0.458292 0.818623 0.475812 -0.097378
C7    C     C_R   0.453241 0.897339 0.521541 0.007367
C8    C     C_R   0.372777 0.924884 0.552173 0.173308
C9    C     C_R   0.525396 0.949456 0.537627 0.003566
C10   C     C_R   0.505658 0.038101 0.558499 0.092266
C11   C     C_R   0.421987 0.066595 0.583738 -0.213733
C12   C     C_3   0.414155 0.563849 0.027474 -0.379197
C13   C     C_R   0.358276 0.009315 0.583720 -0.211439
C14   C     C_R   0.618309 0.913205 0.540323 -0.233312
C15   C     C_R   0.687121 0.966601 0.545574 -0.023800
C16   C     C_R   0.559281 0.337158 0.511271 0.832711
C17   C     C_R   0.660257 0.059160 0.542598 0.018202
C18   C     C_R   0.569718 0.094835 0.551266 0.095563
C19   C     C_R   0.718847 0.116698 0.525325 -0.189688
C20   C     C_R   0.687840 0.207649 0.512017 0.020321
C21   C     C_R   0.541855 0.186151 0.543473 -0.240460
C22   C     C_R   0.845630 0.627848 0.639842 -0.227361
C23   C     C_3   0.499514 0.500243 0.082815 0.185660
C24   C     C_R   0.753896 0.612757 0.610779 0.056391
C25   C     C_R   0.795394 0.507918 0.511378 -0.027055
C26   C     C_R   0.890151 0.519441 0.538607 0.001144
C27   C     C_R   0.914526 0.580057 0.605137 0.110564
C28   C     C_R   0.498792 0.499725 0.338334 0.920426
C29   C     C_R   0.960705 0.473115 0.502685 0.078513
C30   C     C_R   0.054742 0.490007 0.532902 -0.028246
C31   C     C_R   0.078882 0.539650 0.609798 -0.023464
C32   C     C_R   0.007864 0.588473 0.640659 -0.164338
C33   C     C_R   0.940619 0.409724 0.438232 -0.174360
C34   C     C_3   0.494927 0.406251 0.047858 -0.583613
C35   C     C_R   0.009001 0.367413 0.401110 -0.188849
C36   C     C_R   0.097649 0.391343 0.421817 0.180946
C37   C     C_R   0.120311 0.455686 0.484945 -0.012273
C38   C     C_R   0.163287 0.353292 0.378019 -0.314392
C39   C     C_R   0.249707 0.381326 0.395094 0.028334
C40   C     C_3   0.416817 0.565841 0.930378 -0.427362
C41   C     C_R   0.205741 0.486841 0.492849 -0.073227
C42   C     C_3   0.593668 0.534943 0.975674 -0.304908
C43   C     C_3   0.592048 0.530923 0.074873 0.336341
C44   C     C_1   0.496364 0.499107 0.248870 -0.163103
C45   C     C_3   0.506152 0.405692 0.952886 0.428727
C46   C     C_3   0.503847 0.502315 0.918103 0.066628
C47   C     C_2   0.747099 0.262294 0.479889 0.389447
C48   C     C_2   0.785093 0.923987 0.552319 0.394636
C49   C     C_2   0.507056 0.808558 0.403501 0.401312
C50   C     C_2   0.175713 0.530469 0.667713 0.335327
C51   C     C_2   0.606505 0.624754 0.944853 0.516467
C52   C     C_3   0.691138 0.617241 0.163475 -0.255371
C53   C     C_3   0.354523 0.382590 0.870032 -0.241387
C54   C     C_1   0.496556 0.499219 0.173614 -0.005773
C55   C     C_1   0.504561 0.502023 0.826658 0.004258
C56   C     C_1   0.503735 0.501384 0.751161 -0.137714
C57   C     C_R   0.404534 0.755703 0.490468 -0.064088
H1    H     H_    0.414090 0.631540 0.052659 0.223153
H2    H     H_    0.406716 0.131169 0.608460 0.149720
H3    H     H_    0.637774 0.842355 0.540146 0.189286
H4    H     H_    0.785931 0.090902 0.514030 0.164204
H5    H     H_    0.025748 0.629169 0.696908 0.187482
H6    H     H_    0.223634 0.543099 0.530609 0.137716
H7    H     H_    0.302161 0.351067 0.363460 0.135768
H8    H     H_    0.990983 0.318464 0.352718 0.148962
H9    H     H_    0.863035 0.674420 0.690835 0.158557
H10   H     H_    0.700544 0.646858 0.639297 0.140079
H11   H     H_    0.769847 0.463072 0.462089 0.113530
H12   H     H_    0.350173 0.550891 0.888031 0.213081
H13   H     H_    0.656043 0.488100 0.969179 0.128525
H14   H     H_    0.872788 0.390141 0.415330 0.151020
H15   H     H_    0.147850 0.302609 0.331041 0.148089
H16   H     H_    0.650498 0.478449 0.109763 0.045051
H17   H     H_    0.578970 0.371724 0.959272 0.096785
H18   H     H_    0.428438 0.384715 0.051522 0.211631
H19   H     H_    0.715820 0.321559 0.439359 0.054869
H20   H     H_    0.843099 0.960094 0.574147 0.067443
H21   H     H_    0.541152 0.861034 0.386718 0.087949
H22   H     H_    0.226509 0.472912 0.664597 0.071640
H23   H     H_    0.347949 0.542330 0.032709 0.172200
H24   H     H_    0.558877 0.683514 0.951464 0.097667
H25   H     H_    0.742381 0.601388 0.123349 0.163119
H26   H     H_    0.709641 0.571655 0.222399 0.162374
H27   H     H_    0.695394 0.685020 0.186647 0.207900
H28   H     H_    0.338682 0.427901 0.811502 0.178418
H29   H     H_    0.326290 0.413747 0.923175 0.149369
H30   H     H_    0.316895 0.326163 0.849305 0.181360
H31   H     H_    0.552155 0.358171 0.090423 0.154049
H32   H     H_    0.296776 0.031679 0.606912 0.150332
H33   H     H_    0.472873 0.214542 0.547974 0.163550
H34   H     H_    0.248506 0.886026 0.577452 0.152063
H35   H     H_    0.284606 0.733361 0.536042 0.173060
H36   H     H_    0.418852 0.634317 0.909288 0.179169
N1    N     N_R   0.731690 0.552720 0.548990 -0.107084
N2    N     N_R   0.268300 0.447240 0.450950 -0.100007
O1    O     O_R   0.383120 0.605620 0.475300 -0.624303
O2    O     O_2   0.802622 0.846702 0.535258 -0.569381
O3    O     O_2   0.504869 0.744223 0.357931 -0.554327
O4    O     O_2   0.199464 0.586167 0.720536 -0.594403
O5    O     O_2   0.671534 0.632039 0.913178 -0.586010
O6    O     O_3   0.598900 0.614288 0.113418 -0.598407
O7    O     O_3   0.451213 0.350211 0.896340 -0.592364
O8    O     O_R   0.531890 0.639510 0.506740 -0.587314
O9    O     O_R   0.425580 0.483050 0.607130 -0.615069
O10   O     O_R   0.574360 0.516930 0.638570 -0.609185
O11   O     O_R   0.468110 0.360490 0.493260 -0.613752
O12   O     O_R   0.616880 0.394380 0.524700 -0.625937
O13   O     O_R   0.425640 0.483070 0.361430 -0.618831
O14   O     O_R   0.574420 0.516950 0.392870 -0.599016
O15   O     O_2   0.831887 0.240308 0.496600 -0.584265
Zn1   Zn    Zn3+2 0.400660 0.477370 0.479010 0.948947
Zn2   Zn    Zn3+2 0.599340 0.522630 0.520990 0.978379

loop_
_geom_bond_atom_site_label_1
_geom_bond_atom_site_label_2
_ccdc_geom_bond_type
C43   H16   S    
C55   C56   T    
C8    C13   A    
C18   C21   A    
O12   Zn2   S    
C19   C20   A    
C40   H36   S    
C50   H22   S    
C7    C8    A    
C45   C46   S    
C40   C46   S    
C39   H7    S    
C12   C23   S    
C50   O4    D    
C36   C37   A    
C10   C18   A    
C47   H19   S    
C1    C57   S    
C30   C31   A    
C35   H8    S    
C29   C33   A    
C42   H13   S    
C23   C43   S    
C49   H21   S    
C3    H34   S    
C42   C46   S    
C52   H27   S    
C22   H9    S    
C24   H10   S    
C17   C19   A    
C49   O3    D    
C35   C36   A    
C46   C55   S    
C53   H29   S    
C2    C16   S    
C9    C10   A    
C1    O8    A    
C16   O12   A    
C16   O11   A    
C34   H18   S    
O11   Zn1   S    
C12   H1    S    
C25   N1    A    
C4    C56   S    
C6    C57   A    
C25   H11   S    
C15   C48   S    
C11   H2    S    
C21   H33   S    
C38   C39   A    
O1    Zn1   S    
C38   H15   S    
C52   O6    S    
C40   H12   S    
C2    C20   A    
C5    H35   S    
C3    C8    A    
C45   O7    S    
O14   Zn2   S    
C25   C26   A    
C28   C44   S    
C30   C37   A    
C45   H17   S    
C48   H20   S    
C12   C40   S    
C52   H26   S    
C9    C14   A    
C43   O6    S    
C29   C30   A    
C48   O2    D    
C24   N1    A    
C31   C32   A    
C53   O7    S    
C23   C34   S    
C2    C21   A    
C17   C18   A    
C26   C27   A    
C53   H30   S    
C34   C45   S    
C34   H31   S    
C52   H25   S    
C39   N2    A    
O10   Zn2   S    
C22   C27   A    
C22   C24   A    
C42   C43   S    
C41   H6    S    
C31   C50   S    
C23   C54   S    
C51   O5    D    
C7    C9    A    
C51   H24   S    
C13   H32   S    
C27   C32   A    
C3    C5    A    
O9    Zn1   S    
C15   C17   A    
C6    C7    A    
C28   O14   A    
C47   O15   D    
C14   H3    S    
C4    O10   A    
C42   C51   S    
O13   Zn1   S    
C5    C57   A    
C36   C38   A    
C32   H5    S    
N2    Zn1   S    
C11   C13   A    
C41   N2    A    
C19   H4    S    
C1    O1    A    
C12   H23   S    
N1    Zn2   S    
C33   C35   A    
C4    O9    A    
C6    C49   S    
C37   C41   A    
C28   O13   A    
C20   C47   S    
C10   C11   A    
C33   H14   S    
C44   C54   T    
C26   C29   A    
C14   C15   A    
O8    Zn2   S    
C53   H28   S    
