data_mof_unit_60293.cif
_audit_creation_date              2012-12-10T19:41:47-0500
_audit_creation_method            fapswitch 2.2
_symmetry_space_group_name_H-M    P1
_symmetry_Int_Tables_number       1
_space_group_crystal_system       triclinic
_cell_length_a                    18.2568
_cell_length_b                    30.539907
_cell_length_c                    30.706781
_cell_angle_alpha                 89.999986
_cell_angle_beta                  90.427573
_cell_angle_gamma                 90.00003
_cell_volume                      17120.4259992

loop_
_atom_site_label
_atom_site_type_symbol
_atom_type_description
_atom_site_fract_x
_atom_site_fract_y
_atom_site_fract_z
_atom_type_partial_charge
C1    C     C_R   0.500694 0.689822 0.309907 0.869624
C2    C     C_R   0.556561 0.623294 0.595771 0.145364
C3    C     C_R   0.141020 0.749886 0.250042 0.922761
C4    C     C_R   0.358980 0.249886 0.749958 0.922757
C5    C     C_R   0.358980 0.250125 0.250010 0.919714
C6    C     C_R   0.641020 0.250060 0.750057 0.942554
C7    C     C_R   0.641018 0.249830 0.249985 0.946709
C8    C     C_3   0.628483 0.882920 0.170545 -0.487373
C9    C     C_3   0.626429 0.884311 0.829288 -0.486369
C10   C     C_3   0.873570 0.384311 0.170712 -0.486368
C11   C     C_3   0.871518 0.382920 0.829455 -0.487375
C12   C     C_3   0.128485 0.882918 0.670543 -0.487378
C13   C     C_R   0.943437 0.123292 0.404227 0.145365
C14   C     C_3   0.126435 0.884307 0.329292 -0.486377
C15   C     C_3   0.373567 0.384309 0.670710 -0.486371
C16   C     C_3   0.371518 0.382920 0.329454 -0.487375
C17   C     C_R   0.499714 0.939721 0.939959 0.906147
C18   C     C_R   0.500028 0.939644 0.059975 0.905133
C19   C     C_R   0.999972 0.439644 0.940025 0.905136
C20   C     C_R   0.000286 0.439721 0.060041 0.906145
C21   C     C_R   0.999714 0.939721 0.439958 0.906146
C22   C     C_R   0.000028 0.939644 0.559975 0.905136
C23   C     C_R   0.499972 0.439644 0.440025 0.905136
C24   C     C_R   0.056454 0.123369 0.595685 0.145471
C25   C     C_R   0.500286 0.439721 0.560041 0.906145
C26   C     C_R   0.499721 0.560228 0.439845 0.879268
C27   C     C_R   0.500278 0.560228 0.560156 0.879387
C28   C     C_R   0.999722 0.060228 0.439843 0.879387
C29   C     C_R   0.000279 0.060228 0.560155 0.879268
C30   C     C_R   0.999721 0.560228 0.939845 0.879268
C31   C     C_R   0.000278 0.560228 0.060157 0.879387
C32   C     C_R   0.499722 0.060228 0.939843 0.879383
C33   C     C_R   0.500279 0.060228 0.060154 0.879270
C34   C     C_R   0.499440 0.809914 0.190172 0.916824
C35   C     C_R   0.943546 0.623369 0.904315 0.145472
C36   C     C_R   0.499189 0.809923 0.809822 0.915993
C37   C     C_R   0.000811 0.309923 0.190178 0.915992
C38   C     C_R   0.000560 0.309914 0.809827 0.916826
C39   C     C_R   0.999440 0.809914 0.690172 0.916824
C40   C     C_R   0.999189 0.809923 0.309822 0.915995
C41   C     C_R   0.500811 0.309923 0.690178 0.915993
C42   C     C_R   0.500560 0.309914 0.309827 0.916825
C43   C     C_1   0.282423 0.749631 0.249991 -0.166167
C44   C     C_1   0.282421 0.750304 0.749939 -0.164683
C45   C     C_1   0.717578 0.750334 0.250007 -0.174738
C46   C     C_R   0.056563 0.623293 0.095772 0.145365
C47   C     C_1   0.717579 0.749656 0.750049 -0.177013
C48   C     C_1   0.782421 0.249656 0.249951 -0.177012
C49   C     C_1   0.782422 0.250334 0.749993 -0.174738
C50   C     C_1   0.217579 0.250304 0.250061 -0.164682
C51   C     C_1   0.217577 0.249631 0.750009 -0.166170
C52   C     C_1   0.782423 0.749631 0.749991 -0.166166
C53   C     C_1   0.782421 0.750304 0.249939 -0.164681
C54   C     C_1   0.217578 0.750334 0.750007 -0.174739
C55   C     C_1   0.217579 0.749656 0.250049 -0.177014
C56   C     C_1   0.282421 0.249656 0.749951 -0.177016
C57   C     C_R   0.443413 0.123276 0.904209 0.145381
C58   C     C_1   0.282422 0.250334 0.249993 -0.174737
C59   C     C_1   0.717579 0.250304 0.750061 -0.164682
C60   C     C_1   0.717577 0.249631 0.250009 -0.166166
C61   C     C_R   0.444743 0.655706 0.373223 0.103838
C62   C     C_R   0.555372 0.655627 0.626863 0.106755
C63   C     C_R   0.944626 0.155626 0.373136 0.106751
C64   C     C_R   0.055256 0.155706 0.626776 0.103839
C65   C     C_R   0.944744 0.655706 0.873224 0.103839
C66   C     C_R   0.055374 0.655626 0.126864 0.106751
C67   C     C_R   0.444602 0.155610 0.873118 0.106710
C68   C     C_R   0.556427 0.123388 0.095664 0.145451
C69   C     C_R   0.555228 0.155725 0.126756 0.103868
C70   C     C_R   0.499494 0.656109 0.341976 -0.078161
C71   C     C_R   0.500499 0.656103 0.658032 -0.080885
C72   C     C_R   0.999501 0.156103 0.341968 -0.080881
C73   C     C_R   0.000506 0.156109 0.658024 -0.078163
C74   C     C_R   0.999494 0.656109 0.841976 -0.078163
C75   C     C_R   0.000499 0.656103 0.158032 -0.080882
C76   C     C_R   0.499503 0.156103 0.841967 -0.080842
C77   C     C_R   0.500509 0.156108 0.158023 -0.078201
C78   C     C_R   0.548194 0.620748 0.338874 -0.204948
C79   C     C_3   0.420758 0.654520 0.439182 -0.497301
C80   C     C_R   0.451694 0.620786 0.661088 -0.210272
C81   C     C_R   0.048309 0.120787 0.338913 -0.210272
C82   C     C_R   0.951807 0.120747 0.661126 -0.204948
C83   C     C_R   0.048193 0.620747 0.838874 -0.204947
C84   C     C_R   0.951691 0.620787 0.161087 -0.210273
C85   C     C_R   0.548341 0.120802 0.838925 -0.210286
C86   C     C_R   0.451845 0.120731 0.161141 -0.204937
C87   C     C_R   0.548350 0.588667 0.371079 -0.212351
C88   C     C_R   0.451549 0.588698 0.628888 -0.214251
C89   C     C_R   0.048454 0.088699 0.371113 -0.214250
C90   C     C_3   0.579649 0.654416 0.560946 -0.496167
C91   C     C_R   0.951652 0.088666 0.628922 -0.212351
C92   C     C_R   0.048348 0.588666 0.871078 -0.212352
C93   C     C_R   0.951546 0.588699 0.128887 -0.214250
C94   C     C_R   0.548485 0.088712 0.871125 -0.214242
C95   C     C_R   0.451688 0.088651 0.128935 -0.212373
C96   C     C_R   0.498167 0.591518 0.405289 -0.098146
C97   C     C_R   0.501831 0.591508 0.594723 -0.095731
C98   C     C_R   0.998169 0.091508 0.405276 -0.095733
C99   C     C_R   0.001833 0.091518 0.594711 -0.098145
C100  C     C_R   0.998167 0.591518 0.905289 -0.098144
C101  C     C_3   0.920344 0.154414 0.439051 -0.496161
C102  C     C_R   0.001831 0.591508 0.094724 -0.095733
C103  C     C_R   0.498170 0.091506 0.905274 -0.095764
C104  C     C_R   0.501834 0.091519 0.094708 -0.098102
C105  C     C_R   0.499303 0.689821 0.690094 0.868553
C106  C     C_3   0.079239 0.154521 0.560817 -0.497304
C107  C     C_3   0.920761 0.654521 0.939183 -0.497304
C108  C     C_3   0.079656 0.654415 0.060948 -0.496159
C109  C     C_3   0.420264 0.154390 0.939026 -0.496097
C110  C     C_3   0.579148 0.154549 0.060788 -0.497376
C111  C     C_3   0.422350 0.690262 0.404827 -0.465907
C112  C     C_3   0.578080 0.690155 0.595309 -0.453726
C113  C     C_3   0.921913 0.190153 0.404689 -0.453729
C114  C     C_3   0.077647 0.190263 0.595172 -0.465905
C115  C     C_3   0.922354 0.690263 0.904828 -0.465904
C116  C     C_R   0.000697 0.189821 0.309905 0.868554
C117  C     C_3   0.078086 0.690153 0.095311 -0.453727
C118  C     C_3   0.421833 0.190130 0.904664 -0.453768
C119  C     C_3   0.577555 0.190289 0.095145 -0.465838
C120  C     C_R   0.555170 0.870780 0.152802 0.082844
C121  C     C_R   0.553738 0.871611 0.846909 0.084988
C122  C     C_R   0.946262 0.371611 0.153090 0.084987
C123  C     C_R   0.944830 0.370780 0.847198 0.082844
C124  C     C_R   0.055171 0.870780 0.652801 0.082844
C125  C     C_R   0.053740 0.871610 0.346911 0.084987
C126  C     C_R   0.446260 0.371610 0.653089 0.084986
C127  C     C_R   0.999306 0.189822 0.690093 0.869625
C128  C     C_R   0.444830 0.370781 0.347198 0.082845
C129  C     C_R   0.496853 0.842465 0.157545 -0.136584
C130  C     C_R   0.496324 0.842537 0.842380 -0.138942
C131  C     C_R   0.003675 0.342537 0.157620 -0.138942
C132  C     C_R   0.003147 0.342465 0.842455 -0.136582
C133  C     C_R   0.996853 0.842465 0.657545 -0.136581
C134  C     C_R   0.996325 0.842538 0.342380 -0.138938
C135  C     C_R   0.503675 0.342537 0.657620 -0.138940
C136  C     C_R   0.503147 0.342465 0.342455 -0.136583
C137  C     C_R   0.436772 0.845990 0.128573 0.134330
C138  C     C_R   0.000694 0.689822 0.809907 0.869625
C139  C     C_R   0.436797 0.845583 0.871313 0.134896
C140  C     C_R   0.063204 0.345584 0.128688 0.134896
C141  C     C_R   0.063228 0.345990 0.871427 0.134331
C142  C     C_R   0.936771 0.845991 0.628574 0.134329
C143  C     C_R   0.936795 0.845585 0.371310 0.134893
C144  C     C_R   0.563205 0.345585 0.628689 0.134894
C145  C     C_R   0.563227 0.345990 0.371427 0.134331
C146  C     C_R   0.437946 0.878223 0.096114 -0.230226
C147  C     C_R   0.437811 0.877956 0.903670 -0.230089
C148  C     C_R   0.062189 0.377956 0.096330 -0.230088
C149  C     C_R   0.999303 0.689821 0.190094 0.868553
C150  C     C_R   0.062053 0.378223 0.903886 -0.230225
C151  C     C_R   0.937946 0.878224 0.596115 -0.230227
C152  C     C_R   0.937809 0.877958 0.403668 -0.230087
C153  C     C_R   0.562190 0.377957 0.596331 -0.230087
C154  C     C_R   0.562053 0.378223 0.403886 -0.230226
C155  C     C_R   0.499119 0.906122 0.092180 -0.150874
C156  C     C_R   0.498311 0.906432 0.907536 -0.150045
C157  C     C_R   0.001689 0.406432 0.092464 -0.150045
C158  C     C_R   0.000880 0.406122 0.907820 -0.150873
C159  C     C_R   0.999119 0.906122 0.592180 -0.150874
C160  C     C_R   0.500697 0.189821 0.809905 0.868550
C161  C     C_R   0.998311 0.906432 0.407536 -0.150047
C162  C     C_R   0.501689 0.406432 0.592464 -0.150047
C163  C     C_R   0.500880 0.406122 0.407820 -0.150872
C164  C     C_R   0.556855 0.900830 0.121061 0.137750
C165  C     C_R   0.555306 0.901773 0.878539 0.139037
C166  C     C_R   0.944694 0.401773 0.121461 0.139036
C167  C     C_R   0.943144 0.400830 0.878939 0.137754
C168  C     C_R   0.056856 0.900829 0.621061 0.137754
C169  C     C_R   0.055308 0.901771 0.378541 0.139037
C170  C     C_R   0.444693 0.401772 0.621460 0.139036
C171  C     C_R   0.499306 0.189822 0.190093 0.869627
C172  C     C_R   0.443145 0.400830 0.378939 0.137753
C173  C     C_3   0.630171 0.917832 0.134326 -0.451212
C174  C     C_3   0.627985 0.919341 0.865407 -0.456380
C175  C     C_3   0.872014 0.419340 0.134592 -0.456377
C176  C     C_3   0.869829 0.417832 0.865674 -0.451215
C177  C     C_3   0.130173 0.917830 0.634324 -0.451213
C178  C     C_3   0.127990 0.919337 0.365412 -0.456375
C179  C     C_3   0.372012 0.419338 0.634590 -0.456375
C180  C     C_3   0.369830 0.417833 0.365673 -0.451218
C181  C     C_R   0.358982 0.749830 0.250015 0.946706
C182  C     C_R   0.443545 0.623368 0.404315 0.145473
C183  C     C_R   0.358980 0.750060 0.749943 0.942557
C184  C     C_R   0.641020 0.750125 0.249990 0.919710
C185  C     C_R   0.641020 0.749886 0.750042 0.922762
C186  C     C_R   0.858980 0.249886 0.249958 0.922761
C187  C     C_R   0.858980 0.250125 0.750010 0.919710
C188  C     C_R   0.141020 0.250060 0.250057 0.942557
C189  C     C_R   0.141018 0.249830 0.749985 0.946707
C190  C     C_R   0.858982 0.749830 0.750015 0.946706
C191  C     C_R   0.858980 0.750060 0.249943 0.942558
C192  C     C_R   0.141020 0.750125 0.749990 0.919709
H1    H     H_    0.588217 0.619245 0.313034 0.157765
H2    H     H_    0.411464 0.562566 0.630015 0.157866
H3    H     H_    0.088541 0.062568 0.369987 0.157868
H4    H     H_    0.911630 0.062505 0.630083 0.164241
H5    H     H_    0.088371 0.562506 0.869917 0.164241
H6    H     H_    0.911459 0.562567 0.130013 0.157867
H7    H     H_    0.588593 0.062593 0.870010 0.157889
H8    H     H_    0.411691 0.062477 0.130109 0.164220
H9    H     H_    0.364746 0.647392 0.451228 0.211463
H10   H     H_    0.537312 0.658595 0.535067 0.191547
H11   H     H_    0.463225 0.658621 0.464999 0.193196
H12   H     H_    0.411593 0.619325 0.686887 0.155901
H13   H     H_    0.635681 0.647198 0.548985 0.217913
H14   H     H_    0.864312 0.147194 0.451011 0.217913
H15   H     H_    0.036771 0.158621 0.535001 0.193198
H16   H     H_    0.962678 0.158594 0.464932 0.191547
H17   H     H_    0.135250 0.147394 0.548770 0.211463
H18   H     H_    0.864750 0.647394 0.951230 0.211464
H19   H     H_    0.037320 0.658594 0.035068 0.191547
H20   H     H_    0.963229 0.658621 0.964999 0.193197
H21   H     H_    0.135687 0.647195 0.048988 0.217912
H22   H     H_    0.364228 0.147154 0.950969 0.217907
H23   H     H_    0.088412 0.119327 0.313115 0.155899
H24   H     H_    0.536651 0.158634 0.034987 0.193204
H25   H     H_    0.462574 0.158582 0.964919 0.191544
H26   H     H_    0.635154 0.147440 0.048722 0.211468
H27   H     H_    0.367263 0.703810 0.397087 0.202848
H28   H     H_    0.534697 0.715067 0.589404 0.217397
H29   H     H_    0.465883 0.715096 0.410670 0.221274
H30   H     H_    0.633202 0.703605 0.603140 0.216897
H31   H     H_    0.866791 0.203601 0.396856 0.216897
H32   H     H_    0.034113 0.215096 0.589330 0.221274
H33   H     H_    0.965294 0.215066 0.410595 0.217398
H34   H     H_    0.911786 0.119244 0.686967 0.157766
H35   H     H_    0.132733 0.203812 0.602911 0.202848
H36   H     H_    0.867267 0.703812 0.897089 0.202848
H37   H     H_    0.034705 0.715066 0.089405 0.217397
H38   H     H_    0.965887 0.715097 0.910670 0.221274
H39   H     H_    0.133209 0.703602 0.103143 0.216897
H40   H     H_    0.366706 0.203562 0.896814 0.216897
H41   H     H_    0.533992 0.215108 0.089317 0.221273
H42   H     H_    0.465188 0.215056 0.910583 0.217409
H43   H     H_    0.632636 0.203857 0.102864 0.202846
H44   H     H_    0.391574 0.881228 0.074103 0.190323
H45   H     H_    0.088214 0.619244 0.813033 0.157766
H46   H     H_    0.391995 0.880537 0.925736 0.189743
H47   H     H_    0.108006 0.380537 0.074264 0.189743
H48   H     H_    0.108425 0.381228 0.925898 0.190323
H49   H     H_    0.891573 0.881230 0.574104 0.190324
H50   H     H_    0.891991 0.880540 0.425733 0.189744
H51   H     H_    0.608008 0.380539 0.574266 0.189744
H52   H     H_    0.608425 0.381228 0.425898 0.190323
H53   H     H_    0.672496 0.911634 0.109233 0.209037
H54   H     H_    0.670910 0.913553 0.890615 0.209405
H55   H     H_    0.627438 0.951979 0.146747 0.202242
H56   H     H_    0.911589 0.619327 0.186886 0.155899
H57   H     H_    0.624237 0.953434 0.852898 0.197365
H58   H     H_    0.875762 0.453433 0.147101 0.197360
H59   H     H_    0.872564 0.451979 0.853253 0.202242
H60   H     H_    0.829089 0.413552 0.109384 0.209405
H61   H     H_    0.827504 0.411634 0.890766 0.209037
H62   H     H_    0.172495 0.911631 0.609231 0.209036
H63   H     H_    0.170912 0.913547 0.390620 0.209405
H64   H     H_    0.127442 0.951977 0.646745 0.202242
H65   H     H_    0.124246 0.953430 0.352902 0.197361
H66   H     H_    0.375757 0.453431 0.647099 0.197361
H67   H     H_    0.588465 0.119354 0.813138 0.155879
H68   H     H_    0.372565 0.451980 0.353252 0.202243
H69   H     H_    0.329088 0.413549 0.609382 0.209405
H70   H     H_    0.327505 0.411635 0.390766 0.209037
H71   H     H_    0.669441 0.856369 0.166211 0.204343
H72   H     H_    0.668096 0.858125 0.833800 0.203213
H73   H     H_    0.625212 0.896889 0.203898 0.216750
H74   H     H_    0.622205 0.898144 0.795883 0.216142
H75   H     H_    0.877794 0.398143 0.204117 0.216140
H76   H     H_    0.874790 0.396889 0.796101 0.216751
H77   H     H_    0.831903 0.358125 0.166199 0.203213
H78   H     H_    0.411849 0.119214 0.186994 0.157788
H79   H     H_    0.830559 0.356370 0.833789 0.204344
H80   H     H_    0.169441 0.856366 0.666208 0.204343
H81   H     H_    0.168098 0.858120 0.333806 0.203214
H82   H     H_    0.125216 0.896887 0.703897 0.216750
H83   H     H_    0.122215 0.898140 0.295886 0.216141
H84   H     H_    0.377788 0.398141 0.704115 0.216141
H85   H     H_    0.374790 0.396890 0.296101 0.216751
H86   H     H_    0.331902 0.358122 0.666196 0.203213
H87   H     H_    0.330560 0.356370 0.333788 0.204343
H88   H     H_    0.588373 0.562507 0.369918 0.164242
I1    I     I_    0.342584 0.805535 0.133081 -0.364185
I2    I     I_    0.343667 0.804177 0.866957 -0.352725
I3    I     I_    0.156333 0.304178 0.133044 -0.352726
I4    I     I_    0.157416 0.305535 0.866919 -0.364189
I5    I     I_    0.842583 0.805536 0.633083 -0.364186
I6    I     I_    0.843663 0.804182 0.366952 -0.352728
I7    I     I_    0.656336 0.304180 0.633046 -0.352726
I8    I     I_    0.657415 0.305534 0.366920 -0.364186
O1    O     O_R   0.500000 0.730040 0.321660 -0.623313
O2    O     O_R   0.500000 0.678320 0.730060 -0.624199
O3    O     O_R   1.000000 0.178320 0.269940 -0.624199
O4    O     O_R   1.000000 0.178320 0.730060 -0.625960
O5    O     O_R   0.000000 0.678320 0.769940 -0.625960
O6    O     O_R   1.000000 0.678320 0.230060 -0.624198
O7    O     O_R   0.500000 0.178320 0.769940 -0.624194
O8    O     O_R   0.500000 0.178320 0.230060 -0.625965
O9    O     O_R   0.392670 0.775850 0.275850 -0.625197
O10   O     O_R   0.392670 0.775850 0.724150 -0.623569
O11   O     O_R   0.607330 0.775850 0.275850 -0.607894
O12   O     O_R   0.500000 0.730040 0.678340 -0.625329
O13   O     O_R   0.607330 0.775850 0.724150 -0.610121
O14   O     O_R   0.892670 0.275850 0.275850 -0.610123
O15   O     O_R   0.892670 0.275850 0.724150 -0.607894
O16   O     O_R   0.107330 0.275850 0.275850 -0.623570
O17   O     O_R   0.107330 0.275850 0.724150 -0.625195
O18   O     O_R   0.892670 0.775850 0.775850 -0.625196
O19   O     O_R   0.892670 0.775850 0.224150 -0.623569
O20   O     O_R   0.107330 0.775850 0.775850 -0.607895
O21   O     O_R   0.107330 0.775850 0.224150 -0.610122
O22   O     O_R   0.392670 0.275850 0.775850 -0.610122
O23   O     O_R   1.000000 0.230040 0.321660 -0.625331
O24   O     O_R   0.392670 0.275850 0.224150 -0.607896
O25   O     O_R   0.607330 0.275850 0.775850 -0.623567
O26   O     O_R   0.607330 0.275850 0.224150 -0.625196
O27   O     O_R   0.392690 0.724130 0.224130 -0.603055
O28   O     O_R   0.392690 0.724130 0.775870 -0.606126
O29   O     O_R   0.607310 0.724130 0.224130 -0.627065
O30   O     O_R   0.607310 0.724130 0.775870 -0.623355
O31   O     O_R   0.892690 0.224130 0.224130 -0.623353
O32   O     O_R   0.892690 0.224130 0.775870 -0.627066
O33   O     O_R   0.107310 0.224130 0.224130 -0.606124
O34   O     O_R   0.000000 0.230040 0.678340 -0.623313
O35   O     O_R   0.107310 0.224130 0.775870 -0.603057
O36   O     O_R   0.892690 0.724130 0.724130 -0.603055
O37   O     O_R   0.892690 0.724130 0.275870 -0.606126
O38   O     O_R   0.107310 0.724130 0.724130 -0.627065
O39   O     O_R   0.107310 0.724130 0.275870 -0.623356
O40   O     O_R   0.392690 0.224130 0.724130 -0.623356
O41   O     O_R   0.392690 0.224130 0.275870 -0.627065
O42   O     O_R   0.607310 0.224130 0.724130 -0.606126
O43   O     O_R   0.607310 0.224130 0.275870 -0.603054
O44   O     O_R   0.500000 0.821650 0.230050 -0.622159
O45   O     O_R   1.000000 0.730040 0.821660 -0.623313
O46   O     O_R   0.500000 0.821650 0.769950 -0.622021
O47   O     O_R   1.000000 0.321650 0.230050 -0.622021
O48   O     O_R   1.000000 0.321650 0.769950 -0.622160
O49   O     O_R   1.000000 0.821650 0.730050 -0.622159
O50   O     O_R   1.000000 0.821650 0.269950 -0.622021
O51   O     O_R   0.500000 0.321650 0.730050 -0.622021
O52   O     O_R   0.500000 0.321650 0.269950 -0.622160
O53   O     O_R   0.500000 0.769930 0.178330 -0.602451
O54   O     O_R   0.500000 0.769930 0.821670 -0.602653
O55   O     O_R   0.000000 0.269930 0.178330 -0.602652
O56   O     O_R   0.000000 0.730040 0.178340 -0.625329
O57   O     O_R   1.000000 0.269930 0.821670 -0.602452
O58   O     O_R   1.000000 0.769930 0.678330 -0.602452
O59   O     O_R   0.000000 0.769930 0.321670 -0.602654
O60   O     O_R   0.500000 0.269930 0.678330 -0.602654
O61   O     O_R   0.500000 0.269930 0.321670 -0.602451
O62   O     O_R   0.439370 0.954170 0.954170 -0.623587
O63   O     O_R   0.439370 0.954170 0.045830 -0.626484
O64   O     O_R   0.560630 0.954170 0.954170 -0.625345
O65   O     O_R   0.560630 0.954170 0.045830 -0.623062
O66   O     O_R   0.939370 0.454170 0.954170 -0.623063
O67   O     O_R   0.500000 0.230040 0.821660 -0.625328
O68   O     O_R   0.939370 0.454170 0.045830 -0.625344
O69   O     O_R   0.060630 0.454170 0.954170 -0.626484
O70   O     O_R   0.060630 0.454170 0.045830 -0.623587
O71   O     O_R   0.939370 0.954170 0.454170 -0.623587
O72   O     O_R   0.939370 0.954170 0.545830 -0.626484
O73   O     O_R   0.060630 0.954170 0.454170 -0.625345
O74   O     O_R   0.060630 0.954170 0.545830 -0.623063
O75   O     O_R   0.439370 0.454170 0.454170 -0.623063
O76   O     O_R   0.439370 0.454170 0.545830 -0.625345
O77   O     O_R   0.560630 0.454170 0.454170 -0.626484
O78   O     O_R   0.500000 0.230040 0.178340 -0.623316
O79   O     O_R   0.560630 0.454170 0.545830 -0.623587
O80   O     O_R   0.439410 0.545780 0.454170 -0.621588
O81   O     O_R   0.439410 0.545780 0.545830 -0.626739
O82   O     O_R   0.560590 0.545780 0.454170 -0.621426
O83   O     O_R   0.560590 0.545780 0.545830 -0.616169
O84   O     O_R   0.939410 0.045780 0.454170 -0.616170
O85   O     O_R   0.939410 0.045780 0.545830 -0.621425
O86   O     O_R   0.060590 0.045780 0.454170 -0.626740
O87   O     O_R   0.060590 0.045780 0.545830 -0.621588
O88   O     O_R   0.939410 0.545780 0.954170 -0.621588
O89   O     O_R   0.500000 0.678320 0.269940 -0.625960
O90   O     O_R   0.939410 0.545780 0.045830 -0.626740
O91   O     O_R   0.060590 0.545780 0.954170 -0.621426
O92   O     O_R   0.060590 0.545780 0.045830 -0.616170
O93   O     O_R   0.439410 0.045780 0.954170 -0.616174
O94   O     O_R   0.439410 0.045780 0.045830 -0.621420
O95   O     O_R   0.560590 0.045780 0.954170 -0.626743
O96   O     O_R   0.560590 0.045780 0.045830 -0.621586
Zn1   Zn    Zn3+2 0.500000 0.784520 0.284530 0.976657
Zn2   Zn    Zn3+2 0.500000 0.715450 0.784540 0.989135
Zn3   Zn    Zn3+2 0.000000 0.215450 0.215460 0.989140
Zn4   Zn    Zn3+2 0.000000 0.215450 0.784540 0.988722
Zn5   Zn    Zn3+2 1.000000 0.715450 0.715460 0.988726
Zn6   Zn    Zn3+2 1.000000 0.715450 0.284540 0.989133
Zn7   Zn    Zn3+2 0.500000 0.215450 0.715460 0.989137
Zn8   Zn    Zn3+2 0.500000 0.215450 0.284540 0.988723
Zn9   Zn    Zn3+2 0.419100 0.999980 0.000000 0.969803
Zn10  Zn    Zn3+2 0.580900 0.999980 0.000000 0.950440
Zn11  Zn    Zn3+2 0.919100 0.499980 0.000000 0.950437
Zn12  Zn    Zn3+2 0.500000 0.784520 0.715470 0.974749
Zn13  Zn    Zn3+2 0.080900 0.499980 0.000000 0.969805
Zn14  Zn    Zn3+2 0.919100 0.999980 0.500000 0.969806
Zn15  Zn    Zn3+2 0.080900 0.999980 0.500000 0.950436
Zn16  Zn    Zn3+2 0.419100 0.499980 0.500000 0.950437
Zn17  Zn    Zn3+2 0.580900 0.499980 0.500000 0.969806
Zn18  Zn    Zn3+2 1.000000 0.284520 0.284530 0.974748
Zn19  Zn    Zn3+2 1.000000 0.284520 0.715470 0.976657
Zn20  Zn    Zn3+2 1.000000 0.784520 0.784530 0.976657
Zn21  Zn    Zn3+2 1.000000 0.784520 0.215470 0.974750
Zn22  Zn    Zn3+2 0.500000 0.284520 0.784530 0.974753
Zn23  Zn    Zn3+2 0.500000 0.284520 0.215470 0.976652
Zn24  Zn    Zn3+2 0.500000 0.715450 0.215460 0.988726

loop_
_geom_bond_atom_site_label_1
_geom_bond_atom_site_label_2
_ccdc_geom_bond_type
C32   O93   A    
C3    O39   A    
C83   H45   S    
O94   Zn9   S    
O37   Zn6   S    
C101  C113  S    
C7    C60   S    
O35   Zn4   S    
C160  O67   A    
C190  O36   A    
C74   C83   A    
O27   Zn24  S    
C126  C135  A    
O57   Zn4   S    
C30   O88   A    
C124  C133  A    
C185  O13   A    
C153  C162  A    
C187  O15   A    
C184  O11   A    
C22   C159  S    
C28   C98   S    
C26   O80   A    
O17   Zn19  S    
C42   C136  S    
C127  O34   A    
C2    C90   S    
C131  C140  A    
C134  C143  A    
C124  C168  A    
O48   Zn19  S    
C57   C109  S    
C79   H9    S    
O16   Zn18  S    
C9    C121  S    
O95   Zn10  S    
C125  C169  A    
C88   C97   A    
O12   Zn12  S    
C4    C56   S    
C144  I7    S    
C33   O94   A    
O33   Zn3   S    
C179  H66   S    
C109  C118  S    
C146  H44   S    
C40   O59   A    
C5    O41   A    
C11   C123  S    
C29   C99   S    
C68   C104  A    
C137  C146  A    
C30   O91   A    
O78   Zn23  S    
C175  H58   S    
C107  H20   S    
O93   Zn9   S    
C69   C119  S    
O13   Zn12  S    
C82   C91   A    
C191  O37   A    
C25   O76   A    
C78   H1    S    
C142  C151  A    
C110  H24   S    
C171  O78   A    
C36   C130  S    
C90   H13   S    
C5    O24   A    
C113  H33   S    
C13   C63   A    
C77   C171  S    
O25   Zn22  S    
C149  O56   A    
C1    O1    A    
C164  C173  S    
C68   C110  S    
C163  C172  A    
O45   Zn20  S    
C119  H43   S    
C31   O92   A    
O5    Zn5   S    
O3    Zn3   S    
O65   Zn10  S    
O26   Zn23  S    
C174  H54   S    
C147  H46   S    
O1    Zn1   S    
C27   C97   S    
C15   H86   S    
C8    H73   S    
C10   C122  S    
O46   Zn12  S    
O73   Zn15  S    
C79   C182  S    
C47   C52   T    
C189  O35   A    
C1    C70   S    
O89   Zn24  S    
C181  O9    A    
O80   Zn16  S    
O53   Zn24  S    
C80   C88   A    
C36   O54   A    
O9    Zn1   S    
C179  H69   S    
C6    O25   A    
C19   O66   A    
C6    O42   A    
C87   H88   S    
C23   O77   A    
C67   C118  S    
C35   C107  S    
C86   C95   A    
C63   C113  S    
C129  C137  A    
O19   Zn21  S    
C143  I6    S    
C76   C85   A    
C33   O96   A    
C45   C184  S    
C151  C159  A    
C90   H10   S    
C78   C87   A    
C18   O63   A    
C15   C179  S    
C123  C132  A    
C33   C104  S    
C69   C77   A    
C20   O68   A    
C121  C130  A    
C50   C188  S    
C107  H18   S    
C171  O8    A    
C152  H50   S    
C82   H34   S    
C11   C176  S    
C54   C192  S    
C5    C58   S    
O90   Zn11  S    
O79   Zn17  S    
C75   C84   A    
C89   H3    S    
C30   C100  S    
C4    O40   A    
C180  H70   S    
C94   H7    S    
C145  I8    S    
C113  H31   S    
C176  H61   S    
O69   Zn13  S    
C119  H41   S    
C31   O90   A    
C10   H77   S    
C46   C108  S    
O38   Zn5   S    
C64   C73   A    
C183  O10   A    
C152  C161  A    
C84   C93   A    
C161  C169  A    
C114  H35   S    
C45   C53   T    
C36   O46   A    
O42   Zn7   S    
C65   C115  S    
C186  O14   A    
C111  H27   S    
C141  C150  A    
C26   C96   S    
C64   C114  S    
C120  C129  A    
C34   C129  S    
C109  H22   S    
O28   Zn2   S    
C68   C69   A    
C17   O62   A    
C165  C174  S    
C40   C134  S    
C43   C181  S    
C21   O73   A    
C65   C74   A    
C37   C131  S    
C38   C132  S    
C141  I4    S    
C126  C170  A    
C151  H49   S    
O44   Zn1   S    
C38   O57   A    
C107  C115  S    
O91   Zn13  S    
C112  H28   S    
O88   Zn11  S    
C183  O28   A    
C85   H67   S    
O24   Zn23  S    
C37   O47   A    
C44   C183  S    
C14   C178  S    
O84   Zn14  S    
C145  C154  A    
C43   C55   T    
C105  O12   A    
C153  H51   S    
C24   C106  S    
C35   C100  A    
C41   O51   A    
O71   Zn14  S    
C122  C131  A    
O76   Zn16  S    
C22   O72   A    
C132  C141  A    
C28   O84   A    
C19   C158  S    
C11   H79   S    
C108  C117  S    
C108  H21   S    
C110  C119  S    
C174  H57   S    
C127  O4    A    
C121  C165  A    
C39   O58   A    
C49   C59   T    
O81   Zn16  S    
C89   C98   A    
C84   H56   S    
C81   H23   S    
C75   C149  S    
C117  H37   S    
C62   C71   A    
C148  C157  A    
O6    Zn6   S    
O29   Zn24  S    
C109  H25   S    
C101  H14   S    
C120  C164  A    
C142  I5    S    
C116  O23   A    
C44   C54   T    
C20   O70   A    
C39   O49   A    
C7    O43   A    
C91   C99   A    
C22   O74   A    
C29   O85   A    
C16   C180  S    
C61   C70   A    
C26   O82   A    
O87   Zn15  S    
O56   Zn21  S    
O30   Zn2   S    
C41   C135  S    
O61   Zn8   S    
O22   Zn22  S    
C17   O64   A    
C177  H62   S    
C74   C138  S    
C8    C120  S    
C166  C175  S    
C46   C66   A    
C128  C136  A    
O64   Zn10  S    
C35   C65   A    
C168  C177  S    
C24   C99   A    
C9    H72   S    
C10   C175  S    
O55   Zn3   S    
C115  H38   S    
C4    O22   A    
C37   O55   A    
C146  C155  A    
C2    C97   A    
C95   H8    S    
C66   C117  S    
C158  C167  A    
O70   Zn13  S    
C47   C185  S    
C72   C81   A    
C51   C189  S    
O51   Zn22  S    
C81   C89   A    
C172  C180  S    
C181  O27   A    
C137  I1    S    
C24   C64   A    
C28   O86   A    
C38   O48   A    
O39   Zn6   S    
C138  O5    A    
C130  C139  A    
C6    C59   S    
O47   Zn18  S    
O15   Zn19  S    
C57   C103  A    
C154  H52   S    
C50   C58   T    
C31   C102  S    
C41   O60   A    
C160  O7    A    
C12   H82   S    
C106  H15   S    
O43   Zn8   S    
O40   Zn7   S    
O7    Zn7   S    
C73   C127  S    
C106  H17   S    
C117  H39   S    
C21   O71   A    
C189  O17   A    
C16   H85   S    
C178  H65   S    
C42   O61   A    
O8    Zn8   S    
C162  C170  A    
C133  C142  A    
C32   C103  S    
C52   C190  S    
C8    H71   S    
C147  C156  A    
C29   O87   A    
C32   O95   A    
C143  C152  A    
C138  O45   A    
C94   C103  A    
C150  H48   S    
C20   C157  S    
C71   C105  S    
C192  O20   A    
O92   Zn13  S    
O60   Zn7   S    
C73   C82   A    
C39   C133  S    
C173  H53   S    
C177  H64   S    
C150  C158  A    
C139  I2    S    
O77   Zn17  S    
C12   H80   S    
O82   Zn17  S    
C96   C182  A    
C93   C102  A    
C9    H74   S    
C72   C116  S    
O66   Zn11  S    
O85   Zn14  S    
C115  H36   S    
C125  C134  A    
C91   H4    S    
C80   H12   S    
O59   Zn6   S    
C156  C165  A    
C66   C75   A    
C15   H84   S    
O50   Zn21  S    
C149  O6    A    
C180  H68   S    
C62   C112  S    
C63   C72   A    
O62   Zn9   S    
C17   C156  S    
C18   C155  S    
C27   O83   A    
C34   O53   A    
C122  C166  A    
C70   C78   A    
C148  H47   S    
C90   C112  S    
C23   O75   A    
C140  C148  A    
C176  H59   S    
O74   Zn15  S    
O14   Zn18  S    
C83   C92   A    
C46   C102  A    
C139  C147  A    
C14   C125  S    
C106  C114  S    
C27   O81   A    
O36   Zn5   S    
C101  H16   S    
C16   H87   S    
O4    Zn4   S    
C188  O16   A    
C13   C98   A    
C191  O19   A    
C159  C168  A    
C51   C56   T    
C111  H29   S    
C144  C153  A    
O96   Zn10  S    
C105  O2    A    
C184  O29   A    
C14   H83   S    
O32   Zn4   S    
C118  H40   S    
C15   C126  S    
C49   C187  S    
O31   Zn3   S    
C136  C145  A    
C123  C167  A    
C173  H55   S    
C12   C177  S    
C185  O30   A    
O20   Zn20  S    
O21   Zn21  S    
C3    O21   A    
C187  O32   A    
C3    C55   S    
C57   C67   A    
C71   C80   A    
C48   C60   T    
C23   C163  S    
O67   Zn22  S    
C1    O89   A    
O63   Zn9   S    
C21   C161  S    
C10   H75   S    
C25   O79   A    
O10   Zn12  S    
C88   H2    S    
C154  C163  A    
O11   Zn1   S    
C86   H78   S    
O86   Zn15  S    
O58   Zn5   S    
C8    C173  S    
O54   Zn2   S    
O23   Zn18  S    
C178  H63   S    
C34   O44   A    
C48   C186  S    
O68   Zn11  S    
C192  O38   A    
C53   C191  S    
C85   C94   A    
C118  H42   S    
C12   C124  S    
O41   Zn8   S    
C25   C162  S    
C11   H76   S    
O49   Zn20  S    
C87   C96   A    
C9    C174  S    
C16   C128  S    
O2    Zn2   S    
O34   Zn19  S    
C135  C144  A    
C7    O26   A    
C77   C86   A    
C128  C172  A    
C79   H11   S    
O72   Zn14  S    
C140  I3    S    
C13   C101  S    
C92   H5    S    
C61   C111  S    
C169  C178  S    
C108  H19   S    
C95   C104  A    
C92   C100  A    
O18   Zn20  S    
C76   C160  S    
C170  C179  S    
C112  H30   S    
C61   C182  A    
C157  C166  A    
C190  O18   A    
C18   O65   A    
C155  C164  A    
O83   Zn17  S    
C116  O3    A    
C79   C111  S    
C114  H32   S    
C93   H6    S    
C14   H81   S    
C175  H60   S    
C188  O33   A    
C110  H26   S    
C19   O69   A    
O52   Zn23  S    
C40   O50   A    
C42   O52   A    
C186  O31   A    
C67   C76   A    
O75   Zn16  S    
C2    C62   A    
C167  C176  S    
