data_mof_unit_56523.cif
_audit_creation_date              2012-12-10T16:50:12-0500
_audit_creation_method            fapswitch 2.2
_symmetry_space_group_name_H-M    P1
_symmetry_Int_Tables_number       1
_space_group_crystal_system       triclinic
_cell_length_a                    7.823631
_cell_length_b                    8.561025
_cell_length_c                    10.626727
_cell_angle_alpha                 91.704174
_cell_angle_beta                  85.609969
_cell_angle_gamma                 93.387283
_cell_volume                      708.204659921

loop_
_atom_site_label
_atom_site_type_symbol
_atom_type_description
_atom_site_fract_x
_atom_site_fract_y
_atom_site_fract_z
_atom_type_partial_charge
Br1   Br    Br    0.644159 0.197946 0.832287 -0.464132
Br2   Br    Br    0.039632 0.310211 0.348667 -0.364041
C1    C     C_R   0.545367 0.794441 0.496904 0.905331
C2    C     C_R   0.454639 0.205559 0.502937 0.977941
C3    C     C_R   0.498588 0.501722 0.261031 0.864812
C4    C     C_R   0.398835 0.775789 0.881665 -0.117593
C5    C     C_R   0.342217 0.904195 0.953412 -0.053183
C6    C     C_R   0.339606 0.903216 0.084202 -0.075224
C7    C     C_R   0.391667 0.773032 0.143579 -0.122556
C8    C     C_R   0.443945 0.638909 0.072334 0.055384
C9    C     C_R   0.448578 0.640817 0.940627 0.046207
C10   C     C_R   0.506750 0.508614 0.871400 -0.257190
C11   C     C_R   0.562603 0.377602 0.928661 0.236445
C12   C     C_R   0.552320 0.372324 0.058109 0.408782
C13   C     C_R   0.495043 0.503634 0.128811 -0.248975
C14   C     C_2   0.569271 0.957868 0.494840 -0.322110
C15   C     C_2   0.430691 0.042114 0.504476 -0.374396
C16   C     C_R   0.502116 0.502417 0.739113 0.926497
H1    H     H_    0.987161 0.618824 0.595057 0.166813
H2    H     H_    0.404632 0.784544 0.780143 0.144937
H3    H     H_    0.302606 0.005683 0.907269 0.167244
H4    H     H_    0.298338 0.004039 0.139854 0.160788
H5    H     H_    0.390775 0.779655 0.245255 0.147598
H6    H     H_    0.700400 0.008339 0.485562 0.211241
H7    H     H_    0.299557 0.991662 0.513702 0.191924
H8    H     H_    0.544323 0.228523 0.198794 0.324782
N1    N     N_2   0.950330 0.457950 0.466250 0.062446
N2    N     N_2   0.049670 0.542050 0.533750 -0.117313
O1    O     O_R   0.389250 0.738570 0.508280 -0.637539
O2    O     O_R   0.678390 0.711630 0.486650 -0.632846
O3    O     O_R   0.355400 0.513470 0.694050 -0.621371
O4    O     O_R   0.644540 0.486530 0.672420 -0.601222
O5    O     O_R   0.321610 0.288370 0.513350 -0.583932
O6    O     O_R   0.610750 0.261430 0.491720 -0.586116
O7    O     O_R   0.355460 0.513470 0.327580 -0.589999
O8    O     O_R   0.644600 0.486530 0.305950 -0.578304
O9    O     O_3   0.598763 0.237186 0.111950 -0.702757
Zn1   Zn    Zn3+2 0.306930 0.517990 0.514440 1.007787
Zn2   Zn    Zn3+2 0.693070 0.482010 0.485560 1.043840

loop_
_geom_bond_atom_site_label_1
_geom_bond_atom_site_label_2
_ccdc_geom_bond_type
O1    Zn1   S    
C6    C7    A    
C1    O2    A    
C6    H4    S    
C9    C10   A    
H8    O9    S    
Br2   N1    S    
C4    H2    S    
C7    C8    A    
O5    Zn1   S    
C12   C13   A    
O3    Zn1   S    
N2    Zn1   S    
C15   H7    S    
C5    C6    A    
C14   H6    S    
C11   C12   A    
C12   O9    S    
H1    N2    S    
C4    C5    A    
C2    C15   S    
C3    O7    A    
O2    Zn2   S    
C8    C13   A    
C2    O6    A    
C3    C13   S    
C16   O4    A    
C8    C9    A    
O6    Zn2   S    
C3    O8    A    
C4    C9    A    
O7    Zn1   S    
Br1   C11   S    
C10   C11   A    
O4    Zn2   S    
C10   C16   S    
N1    N2    D    
C1    O1    A    
C2    O5    A    
C7    H5    S    
C16   O3    A    
C5    H3    S    
O8    Zn2   S    
C1    C14   S    
N1    Zn2   S    
C14   C15   D    
