data_mof_unit_54090.cif
_audit_creation_date              2012-12-11T16:26:36-0500
_audit_creation_method            fapswitch 2.2
_symmetry_space_group_name_H-M    P1
_symmetry_Int_Tables_number       1
_space_group_crystal_system       triclinic
_cell_length_a                    6.934225
_cell_length_b                    17.542572
_cell_length_c                    19.449029
_cell_angle_alpha                 108.597326
_cell_angle_beta                  89.587104
_cell_angle_gamma                 90.60647
_cell_volume                      2242.17906567

loop_
_atom_site_label
_atom_site_type_symbol
_atom_type_description
_atom_site_fract_x
_atom_site_fract_y
_atom_site_fract_z
_atom_type_partial_charge
O1    O     O_R   0.494330 0.415720 0.413720 -0.536160
O2    O     O_R   0.819330 0.430070 0.560210 -0.546959
O3    O     O_R   0.994320 0.584280 0.586280 -0.536524
C1    C     C_R   0.650049 0.414532 0.581466 0.703898
O4    O     O_R   0.823730 0.406300 0.412670 -0.538479
O5    O     O_R   0.998760 0.560340 0.437690 -0.539851
C2    C     C_R   0.654923 0.383456 0.385039 0.696935
O6    O     O_R   0.489890 0.439660 0.562310 -0.537625
O7    O     O_3   0.662340 0.550560 0.508380 -0.368744
V1    V     V_3+5 0.935370 0.490620 0.498450 1.431558
O8    O     O_R   0.328750 0.569930 0.439790 -0.544864
C3    C     C_R   0.160791 0.584914 0.418049 0.701526
O9    O     O_R   0.324340 0.593700 0.587330 -0.539860
C4    C     C_R   0.155482 0.616443 0.615059 0.691924
V2    V     V_3+5 0.435940 0.509380 0.501550 1.430316
O10   O     O_3   0.159100 0.449440 0.491620 -0.366050
H1    H     H_    0.380787 0.865224 0.575472 0.156705
C5    C     C_R   0.021974 0.593571 0.748585 -0.196242
C6    C     C_R   0.956469 0.580330 0.811743 -0.120199
C7    C     C_R   0.944695 0.644062 0.876599 0.201655
C8    C     C_R   0.998781 0.721473 0.877740 -0.150839
C9    C     C_R   0.063723 0.736796 0.814166 0.033742
C10   C     C_R   0.075890 0.671508 0.748248 0.067551
C11   C     C_R   0.120732 0.815328 0.815961 -0.149142
C12   C     C_R   0.191754 0.828364 0.751923 0.016423
C13   C     C_R   0.203617 0.763048 0.685959 0.072758
C14   C     C_R   0.145313 0.684631 0.684034 -0.153489
C15   C     C_R   0.248933 0.906150 0.751886 -0.209374
C16   C     C_R   0.318386 0.918977 0.688966 0.440244
C17   C     C_R   0.328610 0.855218 0.624530 -0.142260
C18   C     C_R   0.270848 0.778282 0.622639 -0.220836
H2    H     H_    0.031486 0.541665 0.700315 0.116211
H3    H     H_    0.916315 0.519870 0.809944 0.113091
H4    H     H_    0.990994 0.769129 0.929234 0.111514
H5    H     H_    0.239884 0.957899 0.800299 0.137049
H6    H     H_    0.278970 0.731196 0.570853 0.126002
C19   C     C_R   0.304964 0.630515 0.318939 -0.171404
C20   C     C_R   0.153548 0.633824 0.368345 -0.114437
C21   C     C_R   0.993986 0.682876 0.369251 -0.170494
C22   C     C_R   0.986241 0.729344 0.322448 0.157486
C23   C     C_R   0.138205 0.725498 0.272658 0.010138
C24   C     C_R   0.298139 0.675132 0.270134 0.009721
C25   C     C_R   0.827893 0.779179 0.324199 -0.124716
C26   C     C_R   0.818403 0.824259 0.276582 -0.173763
C27   C     C_R   0.967829 0.820904 0.226710 0.116951
C28   C     C_R   0.129030 0.771724 0.224976 0.061751
C29   C     C_R   0.280712 0.768671 0.175511 0.022788
C30   C     C_R   0.437294 0.717787 0.172515 -0.225576
C31   C     C_R   0.445866 0.670512 0.218470 0.384152
C32   C     C_R   0.959063 0.866089 0.178751 -0.215615
C33   C     C_R   0.111785 0.864659 0.130327 -0.085500
C34   C     C_R   0.272516 0.815971 0.129310 -0.200152
H7    H     H_    0.426292 0.591951 0.318234 0.177859
H8    H     H_    0.876624 0.685621 0.407093 0.124028
H9    H     H_    0.709917 0.782538 0.361876 0.123559
H10   H     H_    0.693636 0.861628 0.278642 0.126057
H11   H     H_    0.835090 0.903728 0.180166 0.122282
H12   H     H_    0.390012 0.813941 0.091697 0.127021
H13   H     H_    0.553050 0.714172 0.133860 0.165827
C35   C     C_R   0.470084 0.186921 0.868528 -0.184739
C36   C     C_R   0.623908 0.135671 0.869996 -0.071004
C37   C     C_R   0.782344 0.130841 0.823292 -0.144135
C38   C     C_R   0.786132 0.175390 0.774706 0.030730
C39   C     C_R   0.632160 0.227050 0.773962 0.082124
C40   C     C_R   0.473979 0.233105 0.821427 0.139996
C41   C     C_R   0.939994 0.168045 0.726031 -0.186200
C42   C     C_R   0.943515 0.211634 0.676961 0.389456
C43   C     C_R   0.792678 0.265307 0.677045 0.000102
C44   C     C_R   0.635737 0.272391 0.725504 0.015237
C45   C     C_R   0.481465 0.324461 0.725411 0.159846
C46   C     C_R   0.326006 0.330538 0.773437 -0.145700
C47   C     C_R   0.321856 0.284973 0.820754 -0.190111
C48   C     C_R   0.794225 0.312014 0.630099 -0.167497
C49   C     C_R   0.641481 0.364181 0.629899 -0.107742
C50   C     C_R   0.484629 0.369417 0.677239 -0.157764
H14   H     H_    0.347417 0.191283 0.904434 0.117879
H15   H     H_    0.900464 0.090858 0.823435 0.127358
H16   H     H_    0.057565 0.127783 0.725717 0.210274
H17   H     H_    0.913938 0.308015 0.593149 0.180791
H18   H     H_    0.366643 0.409624 0.677563 0.116539
H19   H     H_    0.206384 0.369966 0.773866 0.115159
H20   H     H_    0.199140 0.290153 0.856732 0.119194
H21   H     H_    0.343728 0.150072 0.428178 0.167117
C51   C     C_R   0.806476 0.397148 0.250321 -0.128564
C52   C     C_R   0.880005 0.405806 0.186360 -0.053689
C53   C     C_R   0.867414 0.342469 0.121766 -0.120092
C54   C     C_R   0.781725 0.269897 0.120674 -0.140984
C55   C     C_R   0.708332 0.258777 0.184982 0.071130
C56   C     C_R   0.720772 0.323787 0.251192 0.055251
C57   C     C_R   0.620075 0.185022 0.183811 -0.179830
C58   C     C_R   0.544285 0.176294 0.248896 0.070466
C59   C     C_R   0.556583 0.241324 0.315096 0.064075
C60   C     C_R   0.644633 0.315105 0.316243 -0.180088
C61   C     C_R   0.459435 0.102811 0.249832 -0.149844
C62   C     C_R   0.386905 0.093989 0.313875 -0.126961
C63   C     C_R   0.398951 0.157418 0.378437 -0.088309
C64   C     C_R   0.483586 0.230151 0.379442 -0.128700
H22   H     H_    0.816727 0.448864 0.298733 0.124416
H23   H     H_    0.945839 0.462225 0.186863 0.166068
H24   H     H_    0.923188 0.349746 0.072077 0.120833
H25   H     H_    0.772557 0.223085 0.068733 0.104479
H26   H     H_    0.449375 0.051087 0.201419 0.112360
H27   H     H_    0.322286 0.037377 0.313449 0.127884
H28   H     H_    0.492520 0.277007 0.431365 0.116685
O11   O     O_R   0.775200 0.060470 0.937800 -0.544395
O12   O     O_R   0.441110 0.093720 0.087350 -0.538711
O13   O     O_R   0.266330 0.939630 0.062280 -0.543430
C65   C     C_R   0.609873 0.116646 0.115010 0.692577
O14   O     O_R   0.445750 0.069950 0.939820 -0.541921
O15   O     O_R   0.271000 0.915700 0.913700 -0.535432
C66   C     C_R   0.615032 0.085551 0.918610 0.708216
O16   O     O_R   0.770530 0.084400 0.086380 -0.537255
O17   O     O_3   0.602830 0.949510 0.991680 -0.368202
V3    V     V_3+5 0.329710 0.009370 0.001550 1.419825
O18   O     O_R   0.940990 0.906170 0.912570 -0.537730
C67   C     C_R   0.109971 0.883559 0.884853 0.695518
O19   O     O_R   0.936350 0.929940 0.060100 -0.543469
C68   C     C_R   0.104356 0.914585 0.081519 0.700415
V4    V     V_3+5 0.829160 0.990450 0.998310 1.418514
O20   O     O_3   0.105910 0.050480 0.008320 -0.369331
Cl1   Cl    Cl    0.642413 0.604695 0.207683 -0.714585
Cl2   Cl    Cl    0.138383 0.195351 0.615323 -0.638250
C69   C     C_3   0.876282 0.630358 0.945187 -0.768925
H29   H     H_    0.838915 0.566151 0.936061 0.211356
H30   H     H_    0.991400 0.648439 0.986834 0.217962
H31   H     H_    0.746166 0.667085 0.965989 0.209012
Cl3   Cl    Cl    0.392344 0.015638 0.690898 -0.644819

loop_
_geom_bond_atom_site_label_1
_geom_bond_atom_site_label_2
_ccdc_geom_bond_type
C54   C55   A    
C23   C24   A    
C37   H15   S    
C62   C63   A    
C1    O6    A    
C69   H29   S    
C52   C53   A    
C12   C15   A    
C13   C14   A    
C16   C17   A    
O12   V3    S    
C15   C16   A    
O19   V4    S    
O5    C3    A    
C17   C18   A    
C69   H30   S    
C21   H8    S    
O18   C67   A    
C33   C68   S    
C5    C6    A    
C48   C49   A    
C19   C24   A    
C7    C69   S    
O14   C66   A    
O17   V4    S    
O8    V2    S    
C22   C25   A    
C6    C7    A    
C15   H5    S    
C43   C44   A    
C23   C28   A    
C45   C46   A    
O1    V2    S    
C10   C14   A    
C4    C14   S    
C53   H24   S    
C50   H18   S    
O15   V3    S    
O13   C68   A    
C1    C49   S    
C36   C37   A    
C19   H7    S    
C55   C56   A    
C41   C42   A    
O11   C66   A    
C38   C41   A    
C13   C18   A    
C54   H25   S    
C8    C9    A    
C56   C60   A    
H1    C17   S    
C44   C45   A    
C41   H16   S    
C62   H27   S    
C59   C64   A    
C18   H6    S    
C2    C60   S    
C49   C50   A    
C5    C10   A    
C11   C12   A    
C6    H3    S    
C21   C22   A    
O4    C2    A    
C53   C54   A    
C69   H31   S    
C8    H4    S    
C43   C48   A    
C27   C28   A    
C35   H14   S    
C42   C43   A    
C35   C36   A    
O2    C1    A    
C25   C26   A    
O13   V3    S    
C19   C20   A    
C52   H23   S    
C26   H10   S    
C29   C30   A    
V4    O20   S    
C31   Cl1   S    
C63   C64   A    
C37   C38   A    
C32   C33   A    
C48   H17   S    
C39   C44   A    
C51   C52   A    
O3    C4    A    
C34   H12   S    
O14   V3    S    
C25   H9    S    
C30   C31   A    
C55   C57   A    
C35   C40   A    
C11   C67   S    
O6    V2    S    
O18   V4    S    
C16   Cl3   S    
C9    C11   A    
C5    H2    S    
C51   C56   A    
O2    V1    S    
C42   Cl2   S    
O15   C67   A    
C58   C59   A    
C26   C27   A    
C30   H13   S    
O17   V3    S    
O7    V1    S    
C28   C29   A    
C22   C23   A    
O1    C2    A    
C32   H11   S    
O5    V1    S    
O16   V4    S    
O8    C3    A    
C29   C34   A    
C40   C47   A    
C51   H22   S    
C39   C40   A    
O9    V2    S    
C12   C13   A    
C57   C65   S    
C33   C34   A    
O3    V1    S    
V1    O10   S    
O19   C68   A    
C58   C61   A    
C57   C58   A    
C20   C21   A    
O12   C65   A    
C27   C32   A    
H21   C63   S    
C59   C60   A    
C3    C20   S    
C61   C62   A    
C47   H20   S    
C64   H28   S    
C24   C31   A    
C38   C39   A    
C65   O16   A    
O4    V1    S    
C46   C47   A    
C7    C8    A    
C61   H26   S    
C45   C50   A    
C9    C10   A    
O11   V4    S    
O9    C4    A    
V3    O20   S    
V2    O10   S    
O7    V2    S    
C46   H19   S    
C36   C66   S    
