data_mof_unit_49555.cif
_audit_creation_date              2012-12-10T17:42:43-0500
_audit_creation_method            fapswitch 2.2
_symmetry_space_group_name_H-M    P1
_symmetry_Int_Tables_number       1
_space_group_crystal_system       triclinic
_cell_length_a                    10.03565
_cell_length_b                    10.79767
_cell_length_c                    12.989943
_cell_angle_alpha                 93.230933
_cell_angle_beta                  72.862951
_cell_angle_gamma                 90.451978
_cell_volume                      1342.92314569

loop_
_atom_site_label
_atom_site_type_symbol
_atom_type_description
_atom_site_fract_x
_atom_site_fract_y
_atom_site_fract_z
_atom_type_partial_charge
C1    C     C_R   0.507530 0.736186 0.483517 0.939162
C2    C     C_R   0.401894 0.395912 0.796447 -0.196459
C3    C     C_R   0.358564 0.867301 0.348348 0.437683
C4    C     C_R   0.428464 0.466946 0.695538 0.933821
C5    C     C_R   0.247935 0.928235 0.325727 0.065130
C6    C     C_R   0.197406 0.041144 0.384014 0.153971
C7    C     C_R   0.264730 0.096331 0.455983 0.430070
C8    C     C_R   0.396305 0.049803 0.456291 -0.196750
C9    C     C_R   0.423367 0.924831 0.420870 -0.103142
C10   C     C_R   0.526057 0.863419 0.450031 -0.115395
C11   C     C_R   0.641563 0.929245 0.458307 0.189980
C12   C     C_R   0.483292 0.356687 0.952322 -0.118305
C13   C     C_R   0.623861 0.054278 0.493217 0.144864
C14   C     C_R   0.500600 0.118824 0.491171 -0.140364
C15   C     C_R   0.820970 0.691275 0.623531 0.366116
C16   C     C_R   0.498744 0.257538 0.500654 0.842497
C17   C     C_R   0.882391 0.803047 0.647181 0.270909
C18   C     C_R   0.025171 0.806250 0.630600 0.091342
C19   C     C_R   0.094295 0.692070 0.619846 0.193865
C20   C     C_R   0.049817 0.591029 0.562029 -0.075820
C21   C     C_R   0.906085 0.591567 0.561684 -0.087995
C22   C     C_R   0.952335 0.426029 0.429520 0.420438
C23   C     C_R   0.514248 0.381128 0.842872 -0.077654
C24   C     C_R   0.095400 0.425085 0.429961 0.391001
C25   C     C_R   0.576605 0.498677 0.295860 0.926490
C26   C     C_R   0.786271 0.528422 0.003550 0.445373
C27   C     C_R   0.622709 0.486146 0.176856 -0.245527
C28   C     C_R   0.269766 0.343515 0.850197 0.102443
C29   C     C_R   0.252001 0.287951 0.950057 0.177220
C30   C     C_R   0.362484 0.285928 0.995895 0.526096
C31   C     C_3   0.823992 0.634305 0.169681 -0.770853
C32   C     C_3   0.175842 0.868951 0.248143 -0.864111
C33   C     C_3   0.066492 0.098225 0.374771 -0.745611
C34   C     C_R   0.575404 0.405864 0.010656 -0.013002
C35   C     C_3   0.726428 0.109722 0.546773 -0.780417
C36   C     C_3   0.088606 0.923108 0.663390 -0.789958
C37   C     C_3   0.136381 0.670524 0.719509 -0.743786
C38   C     C_3   0.150388 0.332602 0.800824 -0.878768
C39   C     C_3   0.115830 0.226919 0.007693 -0.798421
C40   C     C_3   0.784949 0.874713 0.404800 -0.899529
C41   C     C_R   0.704344 0.456629 0.951685 -0.110563
C42   C     C_R   0.750955 0.431799 0.840718 -0.317204
C43   C     C_R   0.658622 0.387491 0.786230 0.547894
C44   C     C_R   0.539518 0.416861 0.124017 0.336723
C45   C     C_R   0.745130 0.544518 0.116118 0.100068
H1    H     H_    0.858299 0.447906 0.795339 0.150745
H2    H     H_    0.031464 0.179664 0.431024 0.287125
H3    H     H_    0.080345 0.123663 0.290706 0.256791
H4    H     H_    0.222353 0.169586 0.600992 0.335145
H5    H     H_    0.666950 0.140144 0.630158 0.276828
H6    H     H_    0.804055 0.043172 0.555330 0.250620
H7    H     H_    0.788610 0.183775 0.500428 0.290963
H8    H     H_    0.987849 0.325881 0.294550 0.359632
H9    H     H_    0.656176 0.715186 0.744858 0.318189
H10   H     H_    0.709606 0.899863 0.686493 0.349133
H11   H     H_    0.051245 0.002816 0.629287 0.286520
H12   H     H_    0.749310 0.705705 0.217831 0.214185
H13   H     H_    0.055805 0.938515 0.752583 0.246814
H14   H     H_    0.204165 0.918118 0.633215 0.218633
H15   H     H_    0.246082 0.698546 0.707978 0.256968
H16   H     H_    0.075438 0.728945 0.790682 0.217381
H17   H     H_    0.111005 0.575034 0.744696 0.257022
H18   H     H_    0.270894 0.342454 0.375538 0.407544
H19   H     H_    0.878708 0.625549 0.883734 0.327346
H20   H     H_    0.451612 0.304565 0.229014 0.322509
H21   H     H_    0.109593 0.236703 0.805329 0.236354
H22   H     H_    0.064927 0.396635 0.845926 0.271760
H23   H     H_    0.874701 0.585118 0.221011 0.256389
H24   H     H_    0.178179 0.348033 0.714389 0.272234
H25   H     H_    0.457854 0.174131 0.062907 0.335142
H26   H     H_    0.027116 0.291624 0.016760 0.240269
H27   H     H_    0.101413 0.140702 0.961622 0.224837
H28   H     H_    0.111721 0.202033 0.090331 0.269169
H29   H     H_    0.812756 0.340887 0.658578 0.319953
H30   H     H_    0.836465 0.931493 0.335946 0.235125
H31   H     H_    0.846938 0.868286 0.461689 0.239306
H32   H     H_    0.783417 0.780560 0.367974 0.248845
H33   H     H_    0.907611 0.684472 0.111886 0.273996
H34   H     H_    0.433061 0.768384 0.216105 0.330233
H35   H     H_    0.221531 0.778702 0.209998 0.258627
H36   H     H_    0.066047 0.849577 0.291821 0.241220
H37   H     H_    0.179680 0.932236 0.182894 0.256991
H38   H     H_    0.983527 0.031015 0.398269 0.214192
N1    N     N_R   0.856860 0.501200 0.500990 -0.101887
N2    N     N_R   0.142450 0.501280 0.501020 -0.144694
O1    O     O_R   0.385310 0.683220 0.500000 -0.581426
O2    O     O_3   0.187538 0.176886 0.537598 -0.780718
O3    O     O_3   0.906833 0.354644 0.355262 -0.753919
O4    O     O_3   0.681657 0.678026 0.669881 -0.708950
O5    O     O_3   0.803520 0.906175 0.696616 -0.777671
O6    O     O_3   0.186090 0.349041 0.353845 -0.737434
O7    O     O_3   0.901995 0.590756 0.945321 -0.799496
O8    O     O_3   0.420562 0.363073 0.184196 -0.674891
O9    O     O_3   0.360145 0.195688 0.067728 -0.739528
O10   O     O_3   0.709303 0.341913 0.680873 -0.756716
O11   O     O_R   0.614640 0.683250 0.500010 -0.573250
O12   O     O_R   0.328400 0.499950 0.653610 -0.640947
O13   O     O_R   0.557730 0.499970 0.653620 -0.490051
O14   O     O_R   0.385360 0.316750 0.499990 -0.636271
O15   O     O_R   0.614690 0.316780 0.500000 -0.543072
O16   O     O_R   0.442270 0.500030 0.346380 -0.554871
O17   O     O_R   0.671600 0.500050 0.346390 -0.592343
O18   O     O_3   0.413262 0.756999 0.294336 -0.760514
Zn1   Zn    Zn3+2 0.346880 0.499980 0.499990 0.990682
Zn2   Zn    Zn3+2 0.653120 0.500020 0.500010 1.039712

loop_
_geom_bond_atom_site_label_1
_geom_bond_atom_site_label_2
_ccdc_geom_bond_type
O11   Zn2   S    
C4    O13   A    
C41   C42   A    
H4    O2    S    
C19   C20   A    
C36   H14   S    
O1    Zn1   S    
C37   H17   S    
C7    C8    A    
C32   H36   S    
C12   C23   A    
O15   Zn2   S    
O13   Zn2   S    
C3    C9    A    
C28   C29   A    
H25   O9    S    
C13   C35   S    
H10   O5    S    
C36   H13   S    
C5    C6    A    
C25   O17   A    
C32   H35   S    
C26   O7    S    
C23   C43   A    
O17   Zn2   S    
C18   C19   A    
C42   H1    S    
C44   O8    S    
C19   C37   S    
C26   C45   A    
C27   C44   A    
C7    O2    S    
C38   H21   S    
C8    C9    A    
C43   O10   S    
C39   H27   S    
C22   O3    S    
C9    C10   A    
C5    C32   S    
C27   C45   A    
H20   O8    S    
O14   Zn1   S    
C38   H24   S    
C4    O12   A    
H34   O18   S    
C34   C41   A    
C17   C18   A    
C31   H23   S    
C1    C10   S    
O12   Zn1   S    
C34   C44   A    
H9    O4    S    
C16   O15   A    
C40   H31   S    
C22   N1    A    
C2    C4    S    
C29   C30   A    
C36   H11   S    
C15   O4    S    
C21   N1    A    
C28   C38   S    
C20   N2    A    
C29   C39   S    
C35   H5    S    
N1    Zn2   S    
C38   H22   S    
C33   H38   S    
N2    Zn1   S    
O16   Zn1   S    
C35   H6    S    
C33   H2    S    
C14   C16   S    
C42   C43   A    
H19   O7    S    
C12   C34   A    
C24   O6    S    
C35   H7    S    
C31   H33   S    
C24   N2    A    
C3    O18   S    
C1    O1    A    
C15   C17   A    
C8    C14   A    
C12   C30   A    
H29   O10   S    
C17   O5    S    
C3    C5    A    
C37   H16   S    
C40   H30   S    
C16   O14   A    
C6    C7    A    
C25   C27   S    
C32   H37   S    
C6    C33   S    
C31   H12   S    
C30   O9    S    
C11   C13   A    
C25   O16   A    
C1    O11   A    
H8    O3    S    
C22   C24   A    
C39   H28   S    
C11   C40   S    
C37   H15   S    
C10   C11   A    
C15   C21   A    
C20   C21   A    
C31   C45   S    
H18   O6    S    
C2    C23   A    
C33   H3    S    
C39   H26   S    
C40   H32   S    
C2    C28   A    
C13   C14   A    
C18   C36   S    
C26   C41   A    
