data_mof_unit_41163.cif
_audit_creation_date              2012-12-11T14:52:20-0500
_audit_creation_method            fapswitch 2.2
_symmetry_space_group_name_H-M    P1
_symmetry_Int_Tables_number       1
_space_group_crystal_system       triclinic
_cell_length_a                    8.208915
_cell_length_b                    15.269733
_cell_length_c                    27.017779
_cell_angle_alpha                 98.239486
_cell_angle_beta                  92.020017
_cell_angle_gamma                 80.123863
_cell_volume                      3301.79871809

loop_
_atom_site_label
_atom_site_type_symbol
_atom_type_description
_atom_site_fract_x
_atom_site_fract_y
_atom_site_fract_z
_atom_type_partial_charge
Ba1   Ba    Ba6+2 0.860900 0.457020 0.523210 1.643541
Ba2   Ba    Ba6+2 0.328940 0.542910 0.476780 1.662942
C1    C     C_3   0.796845 0.156634 0.670112 -0.368291
C2    C     C_R   0.818297 0.531097 0.169252 0.557430
C3    C     C_2   0.788818 0.588377 0.278370 -0.103706
C4    C     C_3   0.267125 0.241682 0.651498 0.313385
C5    C     C_3   0.750185 0.604465 0.333581 -0.104269
C6    C     C_1   0.980364 0.481868 0.343461 0.014500
C7    C     C_2   0.003667 0.462594 0.294160 -0.087441
C8    C     C_2   0.908009 0.520371 0.257963 0.204067
C9    C     C_R   0.009641 0.491298 0.099461 -0.091628
C10   C     C_R   0.133922 0.454446 0.132063 -0.058499
C11   C     C_R   0.282526 0.401884 0.109610 0.041536
C12   C     C_3   0.736118 0.234577 0.641515 0.354668
C13   C     C_R   0.853390 0.531213 0.118518 -0.029667
C14   C     C_2   0.853086 0.539362 0.363472 -0.236809
C15   C     C_2   0.357223 0.486135 0.640087 -0.274006
C16   C     C_3   0.233906 0.249628 0.707096 -0.368975
C17   C     C_R   0.234550 0.443477 0.977383 0.017831
C18   C     C_R   0.959085 0.528513 0.963598 0.002247
C19   C     C_R   0.118220 0.488043 0.945432 0.043714
C20   C     C_R   0.395014 0.408855 0.959271 -0.106266
C21   C     C_R   0.434676 0.409193 0.909598 -0.072163
C22   C     C_R   0.318541 0.449245 0.876685 -0.029498
C23   C     C_3   0.466483 0.683225 0.628458 0.304777
C24   C     C_R   0.161498 0.491287 0.894909 -0.088554
C25   C     C_R   0.047957 0.535592 0.862514 -0.036590
C26   C     C_R   0.104996 0.548342 0.815165 0.571212
C27   C     C_R   0.356753 0.447667 0.825870 0.572324
C28   C     C_3   0.230823 0.268587 0.414868 0.290614
C29   C     C_2   0.457729 0.497542 0.729002 -0.081645
C30   C     C_3   0.502202 0.497713 0.674670 -0.055493
C31   C     C_1   0.207609 0.518826 0.656205 0.044362
C32   C     C_2   0.166795 0.513397 0.702680 -0.108992
C33   C     C_2   0.297699 0.503118 0.743165 0.192331
C34   C     C_3   0.395161 0.725742 0.679231 -0.403535
C35   C     C_R   0.190557 0.438064 0.027249 -0.004023
C36   C     C_R   0.041663 0.488006 0.047389 0.034826
C37   C     C_R   0.921213 0.529941 0.015256 0.027654
C38   C     C_R   0.283417 0.378087 0.056972 0.024414
C39   C     C_R   0.732389 0.569188 0.086178 -0.074607
C40   C     C_3   0.288647 0.169235 0.397024 -0.405633
C41   C     C_R   0.842460 0.564335 0.929009 -0.104463
C42   C     C_R   0.882684 0.566342 0.879064 0.054022
C43   C     C_R   0.766407 0.570599 0.036144 -0.109250
C44   C     C_R   0.747095 0.769035 0.478403 -0.350738
C45   C     C_3   0.013526 0.737152 0.339410 0.344185
C46   C     C_R   0.837132 0.826718 0.460289 0.009052
C47   C     C_R   0.779159 0.919570 0.467643 -0.188415
C48   C     C_R   0.641026 0.956780 0.498767 -0.044352
C49   C     C_R   0.574222 0.896150 0.525434 0.352829
C50   C     C_R   0.616419 0.802651 0.510812 0.012168
C51   C     C_R   0.408002 0.088114 0.522468 -0.144056
C52   C     C_3   0.978321 0.732264 0.583087 0.302574
C53   C     C_R   0.347267 0.179840 0.532317 -0.013990
C54   C     C_R   0.584573 0.213128 0.493831 0.076254
C55   C     C_R   0.654552 0.121079 0.487851 -0.104803
C56   C     C_3   0.074285 0.739548 0.286930 -0.312319
C57   C     C_R   0.569464 0.056389 0.503826 0.003994
C58   C     C_R   0.437363 0.242062 0.519195 -0.278277
C59   C     C_3   0.991861 0.831299 0.593903 -0.376421
C60   C     C_3   0.786077 0.236268 0.368187 0.345336
C61   C     C_3   0.768930 0.149850 0.333376 0.271254
C62   C     C_3   0.808543 0.310444 0.337972 -0.241004
C63   C     C_3   0.664457 0.338161 0.302225 -0.183515
C64   C     C_3   0.700221 0.296598 0.248204 -0.455848
C65   C     C_3   0.710204 0.006229 0.334659 0.267446
C66   C     C_3   0.793864 0.964969 0.284593 -0.212769
C67   C     C_3   0.478558 0.791782 0.373320 0.395654
C68   C     C_3   0.713469 0.887266 0.258754 -0.484253
C69   C     C_3   0.433009 0.364414 0.139993 -0.161159
C70   C     C_3   0.602454 0.344826 0.112868 -0.215973
C71   C     C_3   0.687409 0.246739 0.109075 -0.450046
C72   C     C_3   0.331751 0.278923 0.035753 -0.196184
C73   C     C_3   0.194111 0.242180 0.003225 -0.201274
C74   C     C_3   0.237512 0.140752 0.988376 -0.430710
C75   C     C_3   0.739445 0.589582 0.843641 -0.152221
C76   C     C_3   0.681834 0.691147 0.847619 -0.191353
C77   C     C_3   0.538407 0.712630 0.811483 -0.427274
C78   C     C_3   0.405728 0.885544 0.361995 -0.357587
C79   C     C_3   0.553275 0.971231 0.606798 0.272800
C80   C     C_3   0.529262 0.933275 0.655089 -0.157488
C81   C     C_3   0.560404 0.996170 0.702137 -0.532097
C82   C     C_R   0.100062 0.468355 0.184847 0.589765
H1    H     H_    0.843986 0.248931 0.622606 0.127440
H2    H     H_    0.898267 0.221247 0.391531 0.044286
H3    H     H_    0.903930 0.170932 0.694319 0.138337
H4    H     H_    0.870204 0.136699 0.305618 -0.007713
H5    H     H_    0.647209 0.160302 0.313500 0.021446
H6    H     H_    0.644660 0.215018 0.612584 -0.033697
H7    H     H_    0.835062 0.094315 0.643671 0.078332
H8    H     H_    0.369041 0.652870 0.606184 0.031401
H9    H     H_    0.574662 0.630740 0.633510 0.025024
H10   H     H_    0.286483 0.778179 0.674308 0.137091
H11   H     H_    0.354881 0.674857 0.699204 0.074988
H12   H     H_    0.386911 0.161170 0.368777 0.137208
H13   H     H_    0.489683 0.757433 0.702234 0.112574
H14   H     H_    0.696331 0.147853 0.694200 0.122038
H15   H     H_    0.334515 0.278033 0.728933 0.131950
H16   H     H_    0.048734 0.666896 0.347111 0.052519
H17   H     H_    0.877577 0.757491 0.340199 -0.054105
H18   H     H_    0.189679 0.690460 0.278987 0.163579
H19   H     H_    0.980601 0.720817 0.258594 0.048569
H20   H     H_    0.099022 0.807167 0.282751 0.123903
H21   H     H_    0.615147 0.784753 0.371700 -0.104480
H22   H     H_    0.442448 0.786174 0.411804 0.072631
H23   H     H_    0.338471 0.133591 0.428485 0.072211
H24   H     H_    0.458046 0.936236 0.388580 0.052193
H25   H     H_    0.269977 0.899686 0.366294 0.167277
H26   H     H_    0.270923 0.310405 0.642910 0.019742
H27   H     H_    0.434674 0.892584 0.323163 0.097486
H28   H     H_    0.075792 0.398158 0.279859 0.107746
H29   H     H_    0.557071 0.497506 0.756381 0.107734
H30   H     H_    0.558884 0.379900 0.897348 0.116255
H31   H     H_    0.493256 0.383432 0.983691 0.066203
H32   H     H_    0.726800 0.639024 0.256750 0.121548
H33   H     H_    0.610692 0.600460 0.099860 0.120527
H34   H     H_    0.183862 0.137932 0.379851 0.117815
H35   H     H_    0.715367 0.588522 0.939210 0.063751
H36   H     H_    0.388993 0.198671 0.643421 -0.004256
H37   H     H_    0.038477 0.517312 0.711513 0.153126
H38   H     H_    0.667752 0.604326 0.014922 0.066703
H39   H     H_    0.824652 0.544790 0.402820 0.083962
H40   H     H_    0.376605 0.454931 0.601534 0.073658
H41   H     H_    0.326582 0.042883 0.529351 0.140604
H42   H     H_    0.846231 0.961065 0.449861 0.105377
H43   H     H_    0.772730 0.101731 0.469763 0.110071
H44   H     H_    0.386784 0.312929 0.525170 0.064289
H45   H     H_    0.848256 0.725347 0.575287 -0.012415
H46   H     H_    0.114548 0.294798 0.716340 0.133695
H47   H     H_    0.788220 0.697225 0.471050 0.071497
H48   H     H_    0.228249 0.182533 0.717588 0.111241
H49   H     H_    0.337073 0.299502 0.430276 0.043184
H50   H     H_    0.136796 0.275921 0.444291 0.054586
H51   H     H_    0.805643 0.322196 0.233881 0.140263
H52   H     H_    0.728225 0.222384 0.244275 0.110564
H53   H     H_    0.589289 0.315678 0.225318 0.154775
H54   H     H_    0.646262 0.411996 0.303175 0.145408
H55   H     H_    0.546372 0.321577 0.314038 0.164039
H56   H     H_    0.053716 0.702971 0.549624 0.081924
H57   H     H_    0.814393 0.369023 0.366628 0.059405
H58   H     H_    0.926847 0.292216 0.317375 0.086974
H59   H     H_    0.575778 0.029567 0.328856 0.030304
H60   H     H_    0.721367 0.952593 0.358896 0.076107
H61   H     H_    0.783327 0.015673 0.258520 0.094514
H62   H     H_    0.926926 0.941502 0.291591 0.129731
H63   H     H_    0.712908 0.835813 0.283772 0.134603
H64   H     H_    0.783254 0.855518 0.224510 0.143915
H65   H     H_    0.584144 0.912363 0.247726 0.135330
H66   H     H_    0.698471 0.224003 0.146387 0.137437
H67   H     H_    0.921349 0.863035 0.628002 0.105316
H68   H     H_    0.619896 0.201665 0.083637 0.131796
H69   H     H_    0.813833 0.240280 0.094076 0.127529
H70   H     H_    0.594519 0.366770 0.075342 0.124079
H71   H     H_    0.688327 0.384430 0.134738 0.139740
H72   H     H_    0.451177 0.416310 0.171791 0.189103
H73   H     H_    0.406560 0.304506 0.155199 0.106287
H74   H     H_    0.354450 0.123549 0.966967 0.137780
H75   H     H_    0.251612 0.106232 0.022162 0.130774
H76   H     H_    0.137008 0.116492 0.964495 0.129968
H77   H     H_    0.076255 0.257686 0.024285 0.118390
H78   H     H_    0.942198 0.866060 0.561909 0.068328
H79   H     H_    0.174977 0.273708 0.968464 0.132433
H80   H     H_    0.448224 0.266119 0.014475 0.100873
H81   H     H_    0.352628 0.238651 0.067152 0.112797
H82   H     H_    0.576899 0.684525 0.772688 0.136039
H83   H     H_    0.430565 0.683326 0.820990 0.144612
H84   H     H_    0.501093 0.786489 0.813712 0.130064
H85   H     H_    0.640801 0.718689 0.886357 0.106465
H86   H     H_    0.785396 0.724321 0.838709 0.169670
H87   H     H_    0.770656 0.560321 0.804482 0.140939
H88   H     H_    0.634506 0.557516 0.852860 0.093736
H89   H     H_    0.123513 0.838973 0.599910 0.143653
H90   H     H_    0.495910 0.043066 0.611579 0.060583
H91   H     H_    0.688209 0.967856 0.601211 -0.001932
H92   H     H_    0.400919 0.919407 0.656151 0.152208
H93   H     H_    0.618420 0.870233 0.656038 0.145153
H94   H     H_    0.693275 0.002221 0.704926 0.141725
H95   H     H_    0.528920 0.967770 0.735483 0.148482
H96   H     H_    0.482149 0.063058 0.702046 0.142472
N1    N     N_R   0.942938 0.506196 0.203374 -0.417001
N2    N     N_R   0.253402 0.499863 0.795438 -0.418748
O1    O     O_2   0.905540 0.548000 0.618290 -0.466359
O2    O     O_2   0.176198 0.819345 0.467898 -0.472680
O3    O     O_3   0.084644 0.796980 0.374413 -0.592125
O4    O     O_3   0.137550 0.547930 0.558110 -0.499076
O5    O     O_3   0.574690 0.391440 0.474610 -0.464051
O6    O     O_2   0.341330 0.720570 0.525000 -0.450238
O7    O     O_3   0.520067 0.750079 0.606162 -0.633172
O8    O     O_2   0.427778 0.550958 0.319967 -0.454856
O9    O     O_3   0.419370 0.726373 0.338429 -0.584037
O10   O     O_2   0.210406 0.446819 0.214179 -0.609862
O11   O     O_2   0.481376 0.398600 0.808815 -0.602036
O12   O     O_3   0.640424 0.267102 0.395571 -0.646418
O13   O     O_2   0.674386 0.551062 0.182540 -0.609844
O14   O     O_2   0.026358 0.606072 0.792833 -0.622049
O15   O     O_3   0.688580 0.383890 0.587540 -0.492011
O16   O     O_2   0.848007 0.427222 0.671999 -0.496490
O17   O     O_3   0.031522 0.692015 0.625583 -0.631650
O18   O     O_3   0.660729 0.307888 0.675242 -0.602892
O19   O     O_2   0.848360 0.279400 0.474970 -0.491195
O20   O     O_3   0.104690 0.337720 0.562900 -0.476610
O21   O     O_2   0.004507 0.180700 0.534903 -0.494299
O22   O     O_3   0.786294 0.076307 0.360644 -0.668020
O23   O     O_3   0.143069 0.202031 0.624171 -0.606309
O24   O     O_3   0.471542 0.925082 0.566449 -0.657428
O25   O     O_2   0.284150 0.451970 0.381680 -0.434727
O26   O     O_3   0.052160 0.451990 0.441880 -0.496786
O27   O     O_3   0.501140 0.616030 0.412450 -0.470869
O28   O     O_3   0.163399 0.308388 0.373755 -0.649344
O29   O     O_3   0.615020 0.608480 0.525380 -0.485246
O30   O     O_3   0.085020 0.662210 0.437090 -0.487606
P1    P     P_3+3 0.070480 0.574800 0.610950 0.991943
P2    P     P_3+3 0.668430 0.292880 0.460530 1.000372
P3    P     P_3+3 0.148237 0.222064 0.562148 0.943687
P4    P     P_3+3 0.119230 0.425130 0.389040 0.991048
P5    P     P_3+3 0.043612 0.777936 0.434751 0.953727
P6    P     P_3+3 0.676763 0.407719 0.652629 0.971850
P7    P     P_3+3 0.526269 0.721628 0.541497 0.995811
P8    P     P_3+3 0.524782 0.620885 0.349207 0.984532

loop_
_geom_bond_atom_site_label_1
_geom_bond_atom_site_label_2
_ccdc_geom_bond_type
O1    P1    D    
C2    O13   D    
C19   C24   A    
C74   H75   S    
C23   H9    S    
C45   H17   S    
C71   H66   S    
Ba1   O29   S    
O18   P6    S    
C16   H48   S    
C34   H11   S    
C73   C74   S    
Ba1   O19   S    
C67   O9    S    
C79   C80   S    
C51   C57   A    
C49   O24   S    
C75   C76   S    
C33   N2    S    
Ba2   P4    S    
C47   H42   S    
C60   H2    S    
C74   H74   S    
C24   C25   A    
C60   C61   S    
O3    P5    S    
C81   H96   S    
C40   H12   S    
C48   C57   S    
C79   H91   S    
O21   P3    D    
C82   N1    Am   
C17   C19   A    
C14   H39   S    
C22   C24   A    
Ba1   Ba2   S    
C35   C38   A    
C53   P3    S    
C36   C37   A    
C61   H4    S    
C27   O11   D    
C55   C57   A    
O30   P5    S    
Ba1   O20   S    
O4    P1    S    
C44   C50   A    
C76   H86   S    
C54   C55   A    
C10   C82   A    
C1    H7    S    
C32   C33   S    
Ba1   O26   S    
C26   N2    Am   
Ba2   O5    S    
C12   H6    S    
C4    O23   S    
C60   C62   S    
C65   O22   S    
C17   C35   A    
C5    P8    S    
C22   C27   A    
C9    C13   A    
C25   C42   A    
C52   H56   S    
C38   C72   S    
C6    C7    D    
C28   H50   S    
C80   H93   S    
C78   H25   S    
C46   C47   A    
C21   C22   A    
C34   H13   S    
C56   H18   S    
O20   P3    S    
C45   O3    S    
C7    C8    S    
C54   P2    S    
C37   C43   A    
C7    H28   S    
Ba1   O5    S    
O5    P2    S    
C65   H59   S    
O26   P4    S    
C70   H71   S    
C53   C58   A    
C4    H26   S    
O16   P6    D    
C68   H65   S    
C15   C31   D    
C65   C66   S    
C69   H73   S    
C65   H60   S    
C4    H36   S    
C55   H43   S    
C48   C49   A    
C46   P5    S    
C51   C53   A    
Ba1   O1    S    
C4    C16   S    
C44   C46   A    
C70   H70   S    
C72   C73   S    
Ba2   O26   S    
C1    H3    S    
C59   H78   S    
C58   H44   S    
C17   C20   A    
C59   H89   S    
C13   C39   A    
C64   H53   S    
C27   N2    Am   
C44   H47   S    
C3    C5    S    
C18   C37   A    
C67   H21   S    
C76   C77   S    
C40   H34   S    
C11   C69   S    
Ba1   O4    S    
C12   O18   S    
C76   H85   S    
C52   O17   S    
C54   C58   A    
C9    C36   A    
C41   C42   A    
Ba2   O4    S    
O12   P2    S    
C35   C36   A    
C50   P7    S    
C15   H40   S    
C29   C30   S    
C75   H87   S    
C28   H49   S    
C61   H5    S    
C31   C32   D    
Ba2   O29   S    
C10   C11   A    
C59   H67   S    
C1    C12   S    
C51   H41   S    
C64   H52   S    
C63   H54   S    
C73   H79   S    
C66   C68   S    
C20   H31   S    
C80   H92   S    
C47   C48   A    
C32   H37   S    
C71   H68   S    
Ba1   P1    S    
C2    N1    Am   
C29   C33   D    
Ba2   O27   S    
C56   H20   S    
C16   H15   S    
C60   O12   S    
O15   P6    S    
C11   C38   A    
C77   H83   S    
C25   C26   A    
C18   C41   A    
C66   H62   S    
C61   O22   S    
Ba2   O25   S    
C40   H23   S    
O6    P7    D    
C15   C30   S    
C52   H45   S    
O2    P5    D    
C23   H8    S    
C31   P1    S    
C81   H94   S    
O17   P1    S    
O27   P8    S    
C5    C14   S    
C12   H1    S    
C70   C71   S    
C6    P4    S    
O8    P8    D    
O9    P8    S    
C28   O28   S    
C67   H22   S    
C68   H63   S    
C52   C59   S    
C43   H38   S    
O29   P7    S    
C78   H24   S    
Ba2   O30   S    
C81   H95   S    
C73   H77   S    
C69   C70   S    
C62   C63   S    
C2    C13   A    
C49   C50   A    
C3    H32   S    
C23   O7    S    
C79   H90   S    
C45   C56   S    
C72   H80   S    
C1    H14   S    
C42   C75   S    
C74   H76   S    
C62   H58   S    
C75   H88   S    
O28   P4    S    
C69   H72   S    
C78   H27   S    
O25   P4    D    
C26   O14   D    
Ba1   O15   S    
C82   O10   D    
C63   C64   S    
C77   H82   S    
Ba2   O6    S    
O19   P2    D    
C16   H46   S    
C45   H16   S    
C23   C34   S    
C64   H51   S    
C63   H55   S    
C34   H10   S    
C3    C8    D    
C68   H64   S    
C18   C19   A    
O23   P3    S    
C6    C14   D    
C80   C81   S    
C62   H57   S    
C77   H84   S    
C71   H69   S    
Ba1   P2    S    
C8    N1    S    
C39   C43   A    
C20   C21   A    
C28   C40   S    
C67   C78   S    
C56   H19   S    
C39   H33   S    
C29   H29   S    
C72   H81   S    
C30   P6    S    
C66   H61   S    
O7    P7    S    
C9    C10   A    
C41   H35   S    
C79   O24   S    
C21   H30   S    
