data_mof_unit_63213.cif
_audit_creation_date              2012-12-10T17:49:44-0500
_audit_creation_method            fapswitch 2.2
_symmetry_space_group_name_H-M    P1
_symmetry_Int_Tables_number       1
_space_group_crystal_system       triclinic
_cell_length_a                    27.79544
_cell_length_b                    36.191945
_cell_length_c                    27.820801
_cell_angle_alpha                 90.129699
_cell_angle_beta                  89.990175
_cell_angle_gamma                 90.006901
_cell_volume                      27986.8476781

loop_
_atom_site_label
_atom_site_type_symbol
_atom_type_description
_atom_site_fract_x
_atom_site_fract_y
_atom_site_fract_z
_atom_type_partial_charge
C1    C     C_R   0.500010 0.650294 0.249926 0.824285
C2    C     C_R   0.500068 0.650324 0.749954 0.823877
C3    C     C_R   0.499957 0.349707 0.750016 0.824200
C4    C     C_R   0.500051 0.349674 0.250071 0.824026
C5    C     C_R   0.499994 0.150288 0.749925 0.824102
C6    C     C_R   0.500087 0.150333 0.249937 0.824564
C7    C     C_R   0.499977 0.849719 0.250071 0.824209
C8    C     C_R   0.500032 0.849668 0.750105 0.823766
C9    C     C_R   0.000010 0.650294 0.749926 0.824282
C10   C     C_R   0.000063 0.650325 0.249944 0.824027
C11   C     C_R   0.999962 0.349709 0.250029 0.824107
C12   C     C_R   0.000051 0.349674 0.750071 0.824030
C13   C     C_R   0.999993 0.150288 0.249924 0.824110
C14   C     C_R   0.000088 0.150329 0.749955 0.824397
C15   C     C_R   0.999975 0.849713 0.750052 0.824257
C16   C     C_R   0.000032 0.849668 0.250106 0.823763
C17   C     C_3   0.481810 0.979173 0.300956 0.034538
C18   C     C_3   0.485486 0.977499 0.699013 0.044670
C19   C     C_3   0.485263 0.020978 0.698201 0.037825
C20   C     C_3   0.480114 0.022615 0.299158 0.048089
C21   C     C_3   0.485239 0.478823 0.801662 0.039503
C22   C     C_3   0.481593 0.477681 0.200085 0.044501
C23   C     C_3   0.481377 0.521146 0.199489 0.039377
C24   C     C_3   0.485572 0.522290 0.801141 0.044085
C25   C     C_3   0.981611 0.979010 0.800744 0.036930
C26   C     C_3   0.985480 0.977489 0.199019 0.044690
C27   C     C_3   0.985254 0.020968 0.198196 0.037744
C28   C     C_3   0.980658 0.022460 0.799478 0.046680
C29   C     C_3   0.985426 0.478914 0.301778 0.038191
C30   C     C_3   0.981592 0.477681 0.700086 0.044499
C31   C     C_3   0.981375 0.521146 0.699489 0.039379
C32   C     C_3   0.984905 0.522372 0.300888 0.045414
C33   C     C_1   0.000104 0.610662 0.249656 -0.145749
C34   C     C_1   0.999880 0.610567 0.749702 -0.149560
C35   C     C_1   0.000220 0.389341 0.750237 -0.145709
C36   C     C_1   0.999777 0.389439 0.250231 -0.149512
C37   C     C_1   0.000253 0.110673 0.749718 -0.145928
C38   C     C_1   0.999767 0.110547 0.249686 -0.149981
C39   C     C_1   0.000125 0.889324 0.250444 -0.144752
C40   C     C_1   0.999845 0.889447 0.750364 -0.149485
C41   C     C_1   0.500122 0.610657 0.749712 -0.145558
C42   C     C_1   0.499880 0.610567 0.249702 -0.149557
C43   C     C_1   0.500220 0.389341 0.250237 -0.145710
C44   C     C_1   0.499757 0.389433 0.750164 -0.149662
C45   C     C_1   0.500260 0.110688 0.249613 -0.145820
C46   C     C_1   0.499769 0.110548 0.749691 -0.149956
C47   C     C_1   0.500122 0.889325 0.750440 -0.144793
C48   C     C_1   0.499837 0.889461 0.250476 -0.149599
C49   C     C_3   0.499123 0.963594 0.251311 0.255959
C50   C     C_3   0.499642 0.963345 0.749934 0.260876
C51   C     C_3   0.499003 0.036436 0.749000 0.258023
C52   C     C_3   0.499789 0.036668 0.250072 0.261526
C53   C     C_3   0.499064 0.463536 0.750855 0.258552
C54   C     C_3   0.499767 0.463376 0.249660 0.260575
C55   C     C_3   0.499217 0.536464 0.249015 0.258409
C56   C     C_3   0.499562 0.536620 0.750237 0.260489
C57   C     C_3   0.999169 0.963566 0.751149 0.256974
C58   C     C_3   0.999645 0.963343 0.249940 0.260882
C59   C     C_3   0.998998 0.036435 0.248993 0.257989
C60   C     C_3   0.999772 0.036646 0.750216 0.261045
C61   C     C_3   0.999067 0.463544 0.250949 0.257885
C62   C     C_3   0.999767 0.463376 0.749661 0.260576
C63   C     C_3   0.999217 0.536464 0.749015 0.258413
C64   C     C_3   0.999557 0.536631 0.250143 0.260748
C65   C     C_3   0.963713 0.521381 0.212170 -0.403600
C66   C     C_3   0.966613 0.521442 0.789921 -0.408464
C67   C     C_3   0.966712 0.478611 0.790108 -0.405076
C68   C     C_3   0.963205 0.478552 0.212851 -0.409823
C69   C     C_3   0.967366 0.021374 0.709294 -0.402051
C70   C     C_3   0.963259 0.021432 0.287216 -0.408998
C71   C     C_3   0.963347 0.978596 0.287473 -0.404515
C72   C     C_3   0.966467 0.978559 0.710281 -0.411197
C73   C     C_3   0.463279 0.521401 0.712649 -0.405315
C74   C     C_3   0.466612 0.521442 0.289920 -0.408466
C75   C     C_3   0.466711 0.478611 0.290108 -0.405073
C76   C     C_3   0.463291 0.478566 0.712709 -0.408178
C77   C     C_3   0.467712 0.021353 0.208938 -0.400009
C78   C     C_3   0.463255 0.021433 0.787214 -0.408966
C79   C     C_3   0.463341 0.978596 0.787467 -0.404550
C80   C     C_3   0.466317 0.978555 0.210471 -0.413181
C81   C     C_1   0.000091 0.577441 0.249495 -0.070770
C82   C     C_1   0.999616 0.577313 0.749398 -0.075097
C83   C     C_1   0.000309 0.422563 0.750298 -0.070462
C84   C     C_1   0.999468 0.422696 0.250553 -0.075096
C85   C     C_1   0.000342 0.077451 0.749570 -0.071323
C86   C     C_1   0.999397 0.077288 0.249341 -0.075805
C87   C     C_1   0.000195 0.922537 0.250651 -0.069617
C88   C     C_1   0.999558 0.922710 0.750777 -0.076115
C89   C     C_1   0.500105 0.577434 0.749593 -0.070221
C90   C     C_1   0.499616 0.577313 0.249398 -0.075093
C91   C     C_1   0.500309 0.422563 0.250298 -0.070462
C92   C     C_1   0.499456 0.422688 0.750439 -0.074936
C93   C     C_1   0.500379 0.077465 0.249386 -0.071840
C94   C     C_1   0.499402 0.077289 0.749349 -0.075760
C95   C     C_1   0.500190 0.922539 0.750642 -0.069648
C96   C     C_1   0.499506 0.922732 0.250979 -0.077460
C97   C     C_1   0.499937 0.750055 0.431101 -0.150624
C98   C     C_1   0.500036 0.749971 0.568899 -0.150565
C99   C     C_1   0.499942 0.249951 0.568898 -0.150625
C100  C     C_1   0.500031 0.250024 0.431101 -0.150634
C101  C     C_1   0.499937 0.250055 0.931101 -0.150613
C102  C     C_1   0.500036 0.249971 0.068899 -0.150580
C103  C     C_1   0.499942 0.749950 0.068898 -0.150659
C104  C     C_1   0.500031 0.750023 0.931101 -0.150598
C105  C     C_1   0.999937 0.750055 0.931101 -0.150625
C106  C     C_1   0.000036 0.749971 0.068899 -0.150560
C107  C     C_1   0.999942 0.249950 0.068899 -0.150629
C108  C     C_1   0.000031 0.250024 0.931101 -0.150632
C109  C     C_1   0.999937 0.250055 0.431101 -0.150609
C110  C     C_1   0.000036 0.249971 0.568899 -0.150588
C111  C     C_1   0.999942 0.749951 0.568898 -0.150654
C112  C     C_1   0.000031 0.750023 0.431101 -0.150605
C113  C     C_1   0.499962 0.750038 0.474544 -0.002109
C114  C     C_1   0.500008 0.749999 0.525456 -0.002124
C115  C     C_1   0.499963 0.249963 0.525456 -0.002134
C116  C     C_1   0.500007 0.250000 0.474544 -0.002158
C117  C     C_1   0.499962 0.250038 0.974544 -0.002111
C118  C     C_1   0.500008 0.249999 0.025456 -0.002122
C119  C     C_1   0.499964 0.749963 0.025456 -0.002149
C120  C     C_1   0.500007 0.749999 0.974544 -0.002156
C121  C     C_1   0.999962 0.750038 0.974544 -0.002112
C122  C     C_1   0.000008 0.749999 0.025456 -0.002123
C123  C     C_1   0.999963 0.249963 0.025456 -0.002135
C124  C     C_1   0.000007 0.250000 0.974544 -0.002158
C125  C     C_1   0.999962 0.250038 0.474544 -0.002110
C126  C     C_1   0.000008 0.249999 0.525456 -0.002125
C127  C     C_1   0.999963 0.749963 0.525456 -0.002147
C128  C     C_1   0.000007 0.749999 0.474544 -0.002156
C129  C     C_R   0.499970 0.749983 0.120618 0.820701
C130  C     C_R   0.500009 0.750014 0.879382 0.820584
C131  C     C_R   0.499968 0.250020 0.879380 0.820681
C132  C     C_R   0.500012 0.249983 0.120620 0.820678
C133  C     C_R   0.499970 0.249983 0.620618 0.820698
C134  C     C_R   0.500009 0.250014 0.379381 0.820668
C135  C     C_R   0.499968 0.750020 0.379380 0.820753
C136  C     C_R   0.500012 0.749983 0.620620 0.820567
C137  C     C_R   0.999970 0.749983 0.620618 0.820714
C138  C     C_R   0.000009 0.750014 0.379381 0.820599
C139  C     C_R   0.999968 0.250020 0.379380 0.820675
C140  C     C_R   0.000011 0.249983 0.620620 0.820667
C141  C     C_R   0.999970 0.249983 0.120618 0.820694
C142  C     C_R   0.000009 0.250014 0.879382 0.820662
C143  C     C_R   0.999968 0.750020 0.879380 0.820744
C144  C     C_R   0.000012 0.749983 0.120620 0.820573
C145  C     C_R   0.370612 0.750013 0.249984 0.822340
C146  C     C_R   0.370639 0.750010 0.750018 0.820849
C147  C     C_R   0.370612 0.250013 0.749984 0.822337
C148  C     C_R   0.370639 0.250010 0.250018 0.821081
C149  C     C_R   0.870612 0.750013 0.749984 0.822368
C150  C     C_R   0.870639 0.750010 0.250018 0.820884
C151  C     C_R   0.870612 0.250013 0.249984 0.822312
C152  C     C_R   0.870639 0.250010 0.750018 0.821046
C153  C     C_R   0.629354 0.749990 0.249982 0.819665
C154  C     C_R   0.629382 0.749988 0.750015 0.821022
C155  C     C_R   0.629354 0.249990 0.749982 0.819632
C156  C     C_R   0.629382 0.249988 0.250016 0.821021
C157  C     C_R   0.129354 0.749990 0.749982 0.819657
C158  C     C_R   0.129382 0.749988 0.250016 0.821018
C159  C     C_R   0.129354 0.249990 0.249982 0.819640
C160  C     C_R   0.129382 0.249988 0.750015 0.821028
C161  C     C_1   0.681083 0.749993 0.249978 -0.149348
C162  C     C_1   0.681097 0.749988 0.750017 -0.150246
C163  C     C_1   0.681083 0.249993 0.749978 -0.149394
C164  C     C_1   0.681096 0.249988 0.250017 -0.150193
C165  C     C_1   0.181083 0.749993 0.749978 -0.149358
C166  C     C_1   0.181097 0.749988 0.250017 -0.150249
C167  C     C_1   0.181083 0.249993 0.249978 -0.149379
C168  C     C_1   0.181096 0.249988 0.750017 -0.150189
C169  C     C_1   0.724540 0.749996 0.249991 -0.001965
C170  C     C_1   0.724546 0.749995 0.750008 -0.002150
C171  C     C_1   0.724540 0.249996 0.749991 -0.002011
C172  C     C_1   0.724546 0.249995 0.250008 -0.002111
C173  C     C_1   0.224540 0.749996 0.749991 -0.001979
C174  C     C_1   0.224546 0.749995 0.250008 -0.002160
C175  C     C_1   0.224540 0.249996 0.249991 -0.001990
C176  C     C_1   0.224546 0.249995 0.750008 -0.002100
C177  C     C_1   0.775455 0.750004 0.250010 -0.001744
C178  C     C_1   0.775449 0.750005 0.749991 -0.002017
C179  C     C_1   0.775455 0.250004 0.750010 -0.001785
C180  C     C_1   0.775449 0.250005 0.249991 -0.001977
C181  C     C_1   0.275455 0.750004 0.750010 -0.001763
C182  C     C_1   0.275449 0.750005 0.249991 -0.002038
C183  C     C_1   0.275455 0.250004 0.250010 -0.001758
C184  C     C_1   0.275449 0.250005 0.749991 -0.001960
C185  C     C_1   0.818911 0.750007 0.250023 -0.149088
C186  C     C_1   0.818897 0.750013 0.749982 -0.150356
C187  C     C_1   0.818911 0.250007 0.750023 -0.149175
C188  C     C_1   0.818897 0.250013 0.249982 -0.150301
C189  C     C_1   0.318911 0.750007 0.750023 -0.149105
C190  C     C_1   0.318897 0.750013 0.249982 -0.150390
C191  C     C_1   0.318911 0.250007 0.250023 -0.149146
C192  C     C_1   0.318897 0.250013 0.749982 -0.150281
C193  C     C_3   0.550697 0.978393 0.241859 -0.449136
C194  C     C_3   0.550101 0.978759 0.762679 -0.460412
C195  C     C_3   0.549730 0.021621 0.762223 -0.453212
C196  C     C_3   0.551320 0.021259 0.242718 -0.463454
C197  C     C_3   0.549771 0.478425 0.737765 -0.454596
C198  C     C_3   0.551128 0.478714 0.258321 -0.459865
C199  C     C_3   0.550816 0.521583 0.258017 -0.454368
C200  C     C_3   0.550029 0.521290 0.737348 -0.459512
C201  C     C_3   0.050759 0.978413 0.741937 -0.451405
C202  C     C_3   0.050106 0.978761 0.262676 -0.460442
C203  C     C_3   0.049729 0.021623 0.262214 -0.453132
C204  C     C_3   0.051251 0.021283 0.742389 -0.461976
C205  C     C_3   0.049752 0.478423 0.237723 -0.452899
C206  C     C_3   0.051128 0.478714 0.758320 -0.459863
C207  C     C_3   0.050816 0.521583 0.758015 -0.454374
C208  C     C_3   0.050162 0.521290 0.237845 -0.460914
H1    H     H_    0.076984 0.531463 0.264483 0.169250
H2    H     H_    0.075754 0.531831 0.729708 0.169020
H3    H     H_    0.076084 0.468341 0.730042 0.169118
H4    H     H_    0.076998 0.467983 0.263678 0.169300
H5    H     H_    0.075603 0.031318 0.771389 0.168975
H6    H     H_    0.076872 0.031854 0.236004 0.169255
H7    H     H_    0.077275 0.968379 0.236524 0.169354
H8    H     H_    0.075954 0.967823 0.769790 0.169085
H9    H     H_    0.577249 0.531706 0.763421 0.169330
H10   H     H_    0.575755 0.531831 0.229710 0.169027
H11   H     H_    0.576085 0.468341 0.230043 0.169117
H12   H     H_    0.576863 0.468232 0.764045 0.169247
H13   H     H_    0.575337 0.031089 0.272117 0.168908
H14   H     H_    0.576877 0.031853 0.736016 0.169241
H15   H     H_    0.577273 0.968377 0.736530 0.169348
H16   H     H_    0.576097 0.967601 0.269392 0.169126
H17   H     H_    0.509416 0.971322 0.328372 0.116814
H18   H     H_    0.513782 0.967875 0.673330 0.112868
H19   H     H_    0.513794 0.030012 0.672438 0.115454
H20   H     H_    0.504348 0.033386 0.328007 0.111974
H21   H     H_    0.513607 0.469628 0.827474 0.114751
H22   H     H_    0.507685 0.468107 0.172150 0.112955
H23   H     H_    0.507667 0.530256 0.171504 0.114896
H24   H     H_    0.513978 0.531759 0.826788 0.112938
H25   H     H_    0.008675 0.970627 0.828397 0.115869
H26   H     H_    0.013773 0.967861 0.173335 0.112868
H27   H     H_    0.013786 0.029998 0.172430 0.115492
H28   H     H_    0.005612 0.032742 0.828014 0.112278
H29   H     H_    0.014289 0.470191 0.327344 0.115265
H30   H     H_    0.007683 0.468107 0.672149 0.112958
H31   H     H_    0.007664 0.530256 0.671504 0.114894
H32   H     H_    0.012571 0.532316 0.327029 0.112522
H33   H     H_    0.478306 0.967392 0.175187 0.179907
H34   H     H_    0.472881 0.968559 0.823962 0.177472
H35   H     H_    0.473354 0.031775 0.823484 0.179582
H36   H     H_    0.481813 0.030574 0.173548 0.177771
H37   H     H_    0.473432 0.468322 0.676398 0.179318
H38   H     H_    0.479268 0.468548 0.325671 0.178008
H39   H     H_    0.479542 0.531770 0.325289 0.179611
H40   H     H_    0.472795 0.531535 0.676181 0.177693
H41   H     H_    0.978838 0.967725 0.674958 0.179706
H42   H     H_    0.972887 0.968560 0.323968 0.177461
H43   H     H_    0.973366 0.031776 0.323483 0.179596
H44   H     H_    0.980936 0.030929 0.673850 0.177925
H45   H     H_    0.972913 0.467936 0.176601 0.179289
H46   H     H_    0.979270 0.468548 0.825672 0.178007
H47   H     H_    0.979544 0.531770 0.825290 0.179611
H48   H     H_    0.973985 0.531146 0.175737 0.177769
H49   H     H_    0.428644 0.969095 0.215210 0.157903
H50   H     H_    0.426476 0.968183 0.779923 0.166371
H51   H     H_    0.426246 0.031724 0.780495 0.159816
H52   H     H_    0.430548 0.032501 0.211717 0.167960
H53   H     H_    0.426308 0.468188 0.719414 0.160598
H54   H     H_    0.429357 0.468200 0.285712 0.165139
H55   H     H_    0.429195 0.531738 0.286118 0.160219
H56   H     H_    0.426385 0.531741 0.720187 0.165218
H57   H     H_    0.928887 0.968765 0.714637 0.158787
H58   H     H_    0.926481 0.968182 0.279928 0.166419
H59   H     H_    0.926248 0.031723 0.280507 0.159777
H60   H     H_    0.930116 0.032244 0.712625 0.166557
H61   H     H_    0.926143 0.468536 0.220016 0.159868
H62   H     H_    0.929358 0.468200 0.785714 0.165138
H63   H     H_    0.929196 0.531739 0.786121 0.160218
H64   H     H_    0.926827 0.532063 0.218913 0.165969
H65   H     H_    0.563642 0.968479 0.206206 0.195180
H66   H     H_    0.561053 0.968859 0.798918 0.195197
H67   H     H_    0.560481 0.032112 0.798318 0.194934
H68   H     H_    0.566460 0.031697 0.208268 0.194871
H69   H     H_    0.560634 0.467965 0.701693 0.195015
H70   H     H_    0.564952 0.468752 0.293536 0.195204
H71   H     H_    0.564473 0.532006 0.293145 0.195024
H72   H     H_    0.560872 0.531219 0.701086 0.195229
H73   H     H_    0.064022 0.968324 0.706488 0.195144
H74   H     H_    0.061063 0.968864 0.298915 0.195204
H75   H     H_    0.060482 0.032117 0.298307 0.194936
H76   H     H_    0.065911 0.031565 0.707660 0.195006
H77   H     H_    0.060323 0.468203 0.201449 0.195123
H78   H     H_    0.064953 0.468752 0.793534 0.195202
H79   H     H_    0.064474 0.532006 0.793143 0.195021
H80   H     H_    0.061618 0.531455 0.201885 0.195112
O1    O     O_3   0.499990 0.750000 0.250000 -0.478184
O2    O     O_3   0.499990 0.750000 0.750000 -0.478589
O3    O     O_3   0.499990 0.250000 0.750000 -0.478240
O4    O     O_3   0.499990 0.250000 0.250000 -0.478484
O5    O     O_3   0.999990 0.750000 0.750000 -0.478196
O6    O     O_3   0.999990 0.750000 0.250000 -0.478582
O7    O     O_3   0.999990 0.250000 0.250000 -0.478241
O8    O     O_3   0.999990 0.250000 0.750000 -0.478480
O9    O     O_R   0.527870 0.668020 0.277880 -0.636514
O10   O     O_R   0.527870 0.668020 0.722120 -0.638025
O11   O     O_R   0.527870 0.331980 0.722120 -0.636581
O12   O     O_R   0.527870 0.331980 0.277880 -0.637910
O13   O     O_R   0.527870 0.168020 0.777880 -0.636455
O14   O     O_R   0.527870 0.168020 0.222120 -0.637874
O15   O     O_R   0.527870 0.831980 0.222120 -0.636363
O16   O     O_R   0.527870 0.831980 0.777880 -0.638178
O17   O     O_R   0.027870 0.668020 0.777880 -0.636516
O18   O     O_R   0.027870 0.668020 0.222120 -0.637972
O19   O     O_R   0.027870 0.331980 0.222120 -0.636583
O20   O     O_R   0.027870 0.331980 0.777880 -0.637910
O21   O     O_R   0.027870 0.168020 0.277880 -0.636441
O22   O     O_R   0.027870 0.168020 0.722120 -0.637860
O23   O     O_R   0.027870 0.831980 0.722120 -0.636461
O24   O     O_R   0.027870 0.831980 0.277880 -0.638186
O25   O     O_R   0.472130 0.728510 0.143730 -0.635509
O26   O     O_R   0.472130 0.728510 0.856270 -0.634958
O27   O     O_R   0.472130 0.271490 0.856270 -0.635451
O28   O     O_R   0.472130 0.271490 0.143730 -0.634966
O29   O     O_R   0.472130 0.228510 0.643730 -0.635454
O30   O     O_R   0.472130 0.228510 0.356270 -0.635103
O31   O     O_R   0.472130 0.771490 0.356270 -0.635453
O32   O     O_R   0.472130 0.771490 0.643730 -0.634854
O33   O     O_R   0.972130 0.728510 0.643730 -0.635509
O34   O     O_R   0.972130 0.728510 0.356270 -0.634991
O35   O     O_R   0.972130 0.271490 0.356270 -0.635437
O36   O     O_R   0.972130 0.271490 0.643730 -0.634967
O37   O     O_R   0.972130 0.228510 0.143730 -0.635454
O38   O     O_R   0.972130 0.228510 0.856270 -0.635091
O39   O     O_R   0.972130 0.771490 0.856270 -0.635470
O40   O     O_R   0.972130 0.771490 0.143730 -0.634853
O41   O     O_R   0.393720 0.728520 0.222140 -0.634192
O42   O     O_R   0.393720 0.728520 0.777860 -0.634020
O43   O     O_R   0.393720 0.271480 0.777860 -0.634212
O44   O     O_R   0.393720 0.271480 0.222140 -0.633980
O45   O     O_R   0.393720 0.228520 0.722140 -0.634213
O46   O     O_R   0.393720 0.228520 0.277860 -0.633983
O47   O     O_R   0.393720 0.771480 0.277860 -0.634324
O48   O     O_R   0.393720 0.771480 0.722140 -0.633926
O49   O     O_R   0.893720 0.728520 0.722140 -0.634201
O50   O     O_R   0.893720 0.728520 0.277860 -0.634009
O51   O     O_R   0.893720 0.271480 0.277860 -0.634230
O52   O     O_R   0.893720 0.271480 0.722140 -0.633977
O53   O     O_R   0.893720 0.228520 0.222140 -0.634212
O54   O     O_R   0.893720 0.228520 0.777860 -0.634001
O55   O     O_R   0.893720 0.771480 0.777860 -0.634284
O56   O     O_R   0.893720 0.771480 0.222140 -0.633924
O57   O     O_R   0.606280 0.728500 0.277860 -0.634485
O58   O     O_R   0.606280 0.728500 0.722140 -0.634636
O59   O     O_R   0.606280 0.271500 0.722140 -0.634524
O60   O     O_R   0.606280 0.271500 0.277860 -0.634607
O61   O     O_R   0.606280 0.228500 0.777860 -0.634479
O62   O     O_R   0.606280 0.228500 0.222140 -0.634657
O63   O     O_R   0.606280 0.771500 0.222140 -0.634492
O64   O     O_R   0.606280 0.771500 0.777860 -0.634605
O65   O     O_R   0.106280 0.728500 0.777860 -0.634488
O66   O     O_R   0.106280 0.728500 0.222140 -0.634639
O67   O     O_R   0.106280 0.271500 0.222140 -0.634521
O68   O     O_R   0.106280 0.271500 0.777860 -0.634605
O69   O     O_R   0.106280 0.228500 0.277860 -0.634472
O70   O     O_R   0.106280 0.228500 0.722140 -0.634651
O71   O     O_R   0.106280 0.771500 0.722140 -0.634499
O72   O     O_R   0.106280 0.771500 0.277860 -0.634607
O73   O     O_R   0.527850 0.771500 0.143710 -0.633864
O74   O     O_R   0.527850 0.771500 0.856290 -0.634347
O75   O     O_R   0.527850 0.228500 0.856290 -0.633785
O76   O     O_R   0.527850 0.228500 0.143710 -0.634302
O77   O     O_R   0.527850 0.271500 0.643710 -0.633871
O78   O     O_R   0.527850 0.271500 0.356290 -0.634311
O79   O     O_R   0.527850 0.728500 0.356290 -0.633780
O80   O     O_R   0.527850 0.728500 0.643710 -0.634341
O81   O     O_R   0.027850 0.771500 0.643710 -0.633862
O82   O     O_R   0.027850 0.771500 0.356290 -0.634340
O83   O     O_R   0.027850 0.228500 0.356290 -0.633787
O84   O     O_R   0.027850 0.228500 0.643710 -0.634302
O85   O     O_R   0.027850 0.271500 0.143710 -0.633870
O86   O     O_R   0.027850 0.271500 0.856290 -0.634313
O87   O     O_R   0.027850 0.728500 0.856290 -0.633780
O88   O     O_R   0.027850 0.728500 0.143710 -0.634341
O89   O     O_R   0.472140 0.668020 0.222150 -0.637380
O90   O     O_R   0.472140 0.668020 0.777850 -0.635170
O91   O     O_R   0.472140 0.331980 0.777850 -0.637102
O92   O     O_R   0.472140 0.331980 0.222150 -0.635624
O93   O     O_R   0.472140 0.168020 0.722150 -0.637179
O94   O     O_R   0.472140 0.168020 0.277850 -0.636024
O95   O     O_R   0.472140 0.831980 0.277850 -0.637395
O96   O     O_R   0.472140 0.831980 0.722150 -0.634971
O97   O     O_R   0.972140 0.668020 0.722150 -0.637382
O98   O     O_R   0.972140 0.668020 0.277850 -0.635375
O99   O     O_R   0.972140 0.331980 0.277850 -0.637019
O100  O     O_R   0.972140 0.331980 0.722150 -0.635621
O101  O     O_R   0.972140 0.168020 0.222150 -0.637191
O102  O     O_R   0.972140 0.168020 0.777850 -0.635908
O103  O     O_R   0.972140 0.831980 0.777850 -0.637350
O104  O     O_R   0.972140 0.831980 0.222150 -0.634963
Zn1   Zn    Zn3+2 0.539790 0.780710 0.210180 0.978307
Zn2   Zn    Zn3+2 0.539790 0.780710 0.789820 0.977915
Zn3   Zn    Zn3+2 0.539790 0.219290 0.789820 0.978278
Zn4   Zn    Zn3+2 0.539790 0.219290 0.210180 0.978172
Zn5   Zn    Zn3+2 0.539790 0.280710 0.710180 0.978220
Zn6   Zn    Zn3+2 0.539790 0.280710 0.289820 0.978047
Zn7   Zn    Zn3+2 0.539790 0.719290 0.289820 0.978351
Zn8   Zn    Zn3+2 0.539790 0.719290 0.710180 0.977973
Zn9   Zn    Zn3+2 0.039790 0.780710 0.710180 0.978298
Zn10  Zn    Zn3+2 0.039790 0.780710 0.289820 0.977916
Zn11  Zn    Zn3+2 0.039790 0.219290 0.289820 0.978293
Zn12  Zn    Zn3+2 0.039790 0.219290 0.710180 0.978150
Zn13  Zn    Zn3+2 0.039790 0.280710 0.210180 0.978210
Zn14  Zn    Zn3+2 0.039790 0.280710 0.789820 0.978054
Zn15  Zn    Zn3+2 0.039790 0.719290 0.789820 0.978336
Zn16  Zn    Zn3+2 0.039790 0.719290 0.210180 0.978005
Zn17  Zn    Zn3+2 0.460190 0.719300 0.210200 0.977641
Zn18  Zn    Zn3+2 0.460190 0.719300 0.789800 0.978602
Zn19  Zn    Zn3+2 0.460190 0.280700 0.789800 0.977858
Zn20  Zn    Zn3+2 0.460190 0.280700 0.210200 0.978445
Zn21  Zn    Zn3+2 0.460190 0.219300 0.710200 0.977772
Zn22  Zn    Zn3+2 0.460190 0.219300 0.289800 0.978239
Zn23  Zn    Zn3+2 0.460190 0.780700 0.289800 0.977629
Zn24  Zn    Zn3+2 0.460190 0.780700 0.710200 0.978794
Zn25  Zn    Zn3+2 0.960190 0.719300 0.710200 0.977649
Zn26  Zn    Zn3+2 0.960190 0.719300 0.289800 0.978515
Zn27  Zn    Zn3+2 0.960190 0.280700 0.289800 0.977874
Zn28  Zn    Zn3+2 0.960190 0.280700 0.710200 0.978434
Zn29  Zn    Zn3+2 0.960190 0.219300 0.210200 0.977757
Zn30  Zn    Zn3+2 0.960190 0.219300 0.789800 0.978263
Zn31  Zn    Zn3+2 0.960190 0.780700 0.789800 0.977686
Zn32  Zn    Zn3+2 0.960190 0.780700 0.210200 0.978815
N1    N     N_2   0.435322 0.963851 0.315019 -0.292475
H81   H     H_    0.407719 0.961714 0.290592 0.224110
C209  C     C_3   0.431916 0.942342 0.358396 -0.774133
H82   H     H_    0.393518 0.935452 0.365163 0.240319
H83   H     H_    0.445585 0.958569 0.389416 0.238519
H84   H     H_    0.452739 0.916469 0.354245 0.249388
N2    N     N_2   0.439262 0.961717 0.685076 -0.286720
H85   H     H_    0.407888 0.971641 0.700390 0.231038
C210  C     C_3   0.435380 0.943382 0.639172 -0.766541
H86   H     H_    0.397243 0.935922 0.632491 0.238861
H87   H     H_    0.457135 0.917801 0.640110 0.248389
H88   H     H_    0.448086 0.961808 0.609951 0.239647
N3    N     N_2   0.438995 0.035319 0.682219 -0.291525
H89   H     H_    0.408820 0.033637 0.703757 0.222866
C211  C     C_3   0.436401 0.057854 0.639698 -0.773919
H90   H     H_    0.398185 0.064688 0.632231 0.239686
H91   H     H_    0.451096 0.042372 0.608513 0.239383
H92   H     H_    0.456874 0.083674 0.645487 0.250123
N4    N     N_2   0.431555 0.036937 0.306540 -0.286946
H93   H     H_    0.403111 0.024941 0.288566 0.233097
C212  C     C_3   0.421241 0.056256 0.350752 -0.762654
H94   H     H_    0.382210 0.062738 0.352478 0.237456
H95   H     H_    0.441764 0.082491 0.351333 0.248853
H96   H     H_    0.431100 0.039010 0.382205 0.240934
N5    N     N_2   0.438836 0.464410 0.817228 -0.290709
H97   H     H_    0.408411 0.467312 0.796381 0.223396
C213  C     C_3   0.435963 0.442127 0.859973 -0.771456
H98   H     H_    0.397690 0.435305 0.867282 0.239249
H99   H     H_    0.450526 0.457746 0.891090 0.239152
H100  H     H_    0.456452 0.416253 0.854525 0.249710
N6    N     N_2   0.434323 0.462098 0.189756 -0.287371
H101  H     H_    0.404407 0.471032 0.208505 0.229236
C214  C     C_3   0.426847 0.443257 0.144654 -0.764776
H102  H     H_    0.388162 0.436247 0.140764 0.238274
H103  H     H_    0.448095 0.417392 0.144630 0.248996
H104  H     H_    0.437870 0.461139 0.114208 0.239262
N7    N     N_2   0.433952 0.535629 0.187573 -0.290909
H105  H     H_    0.405295 0.532995 0.210878 0.223071
C215  C     C_3   0.427707 0.557639 0.144954 -0.771047
H106  H     H_    0.388936 0.564200 0.140424 0.239065
H107  H     H_    0.440088 0.541930 0.112972 0.239284
H108  H     H_    0.448289 0.583648 0.148668 0.250394
N8    N     N_2   0.439408 0.537973 0.815488 -0.287194
H109  H     H_    0.407992 0.529231 0.799269 0.229444
C216  C     C_3   0.435883 0.556767 0.861102 -0.765303
H110  H     H_    0.397768 0.564272 0.867992 0.238611
H111  H     H_    0.457637 0.582361 0.859599 0.247931
H112  H     H_    0.448820 0.538646 0.890535 0.239127
N9    N     N_2   0.934736 0.963981 0.813897 -0.291651
H113  H     H_    0.906515 0.963963 0.789962 0.223616
C217  C     C_3   0.930113 0.942339 0.857049 -0.772338
H114  H     H_    0.891545 0.935603 0.862904 0.239709
H115  H     H_    0.943251 0.958418 0.888417 0.238721
H116  H     H_    0.950829 0.916396 0.853179 0.249764
N10   N     N_2   0.939256 0.961699 0.185099 -0.286692
H117  H     H_    0.907883 0.971672 0.200372 0.231124
C218  C     C_3   0.935360 0.943391 0.139178 -0.766631
H118  H     H_    0.897223 0.935927 0.132507 0.238876
H119  H     H_    0.957122 0.917814 0.140083 0.248403
H120  H     H_    0.948048 0.961837 0.109970 0.239670
N11   N     N_2   0.938987 0.035302 0.182204 -0.291566
H121  H     H_    0.908833 0.033677 0.203784 0.222848
C219  C     C_3   0.936397 0.057865 0.139709 -0.774046
H122  H     H_    0.898182 0.064694 0.132237 0.239705
H123  H     H_    0.951104 0.042404 0.108511 0.239391
H124  H     H_    0.956860 0.083684 0.145529 0.250156
N12   N     N_2   0.932575 0.037275 0.808023 -0.287105
H125  H     H_    0.903550 0.026666 0.789475 0.231134
C220  C     C_3   0.923357 0.056489 0.852551 -0.763034
H126  H     H_    0.884440 0.063148 0.855133 0.237704
H127  H     H_    0.944132 0.082604 0.852824 0.248829
H128  H     H_    0.933727 0.039071 0.883676 0.240081
N13   N     N_2   0.939496 0.464090 0.318091 -0.290860
H129  H     H_    0.909059 0.465695 0.297036 0.223539
C221  C     C_3   0.937603 0.442082 0.361124 -0.772416
H130  H     H_    0.899530 0.435093 0.369161 0.239659
H131  H     H_    0.952506 0.458004 0.391823 0.238800
H132  H     H_    0.958269 0.416293 0.355637 0.249483
N14   N     N_2   0.934322 0.462098 0.689758 -0.287374
H133  H     H_    0.904406 0.471032 0.708507 0.229235
C222  C     C_3   0.926845 0.443257 0.644656 -0.764763
H134  H     H_    0.888160 0.436247 0.640766 0.238272
H135  H     H_    0.948093 0.417392 0.644631 0.248998
H136  H     H_    0.937867 0.461139 0.614210 0.239266
N15   N     N_2   0.933950 0.535629 0.687575 -0.290907
H137  H     H_    0.905294 0.532994 0.710882 0.223070
C223  C     C_3   0.927703 0.557639 0.644956 -0.771056
H138  H     H_    0.888933 0.564200 0.640428 0.239067
H139  H     H_    0.940083 0.541930 0.612974 0.239282
H140  H     H_    0.948286 0.583648 0.648670 0.250393
N16   N     N_2   0.938108 0.537548 0.314067 -0.287054
H141  H     H_    0.907236 0.527829 0.297723 0.229863
C224  C     C_3   0.933278 0.556597 0.359385 -0.764889
H142  H     H_    0.894902 0.563747 0.365376 0.238379
H143  H     H_    0.954607 0.582409 0.358038 0.248222
H144  H     H_    0.945915 0.538812 0.389293 0.239788

loop_
_geom_bond_atom_site_label_1
_geom_bond_atom_site_label_2
_ccdc_geom_bond_type
C209  H82   S    
C8    O16   A    
C77   H36   S    
O62   Zn4   S    
N1    H81   S    
O54   Zn30  S    
C39   C87   T    
C62   C83   S    
C171  C179  S    
C50   C79   S    
C150  C185  S    
C10   O98   A    
C152  O52   A    
C216  H110  S    
O1    Zn7   S    
O2    Zn8   S    
C25   C57   S    
C170  C178  S    
O22   Zn12  S    
C102  C132  S    
O93   Zn21  S    
C98   C114  T    
C2    C41   S    
C10   O18   A    
C146  O48   A    
C214  H102  S    
O86   Zn14  S    
O26   Zn18  S    
C55   C74   S    
C32   N16   S    
C55   C199  S    
C76   H37   S    
N5    C213  S    
C77   H52   S    
C52   C196  S    
C207  H2    S    
C78   H51   S    
C107  C123  T    
O8    Zn30  S    
C44   C92   T    
C73   H56   S    
C74   H55   S    
C148  C191  S    
O94   Zn22  S    
C149  C186  S    
N12   C220  S    
C199  H10   S    
O5    Zn15  S    
C152  C187  S    
C150  O50   A    
O6    Zn16  S    
O2    Zn18  S    
C151  C188  S    
C166  C174  T    
O88   Zn16  S    
C202  C203  S    
C215  H106  S    
C112  C138  S    
O29   Zn21  S    
O82   Zn10  S    
C5    O93   A    
C26   N10   S    
C224  H143  S    
C206  C207  S    
O104  Zn32  S    
C21   N5    S    
N3    H89   S    
O44   Zn20  S    
C153  C161  S    
O28   Zn20  S    
C155  O59   A    
O101  Zn29  S    
C217  H115  S    
O81   Zn9   S    
C22   H22   S    
O99   Zn27  S    
C119  C120  S    
C65   C68   S    
O15   Zn1   S    
O5    Zn25  S    
C219  H123  S    
C3    O11   A    
N8    C216  S    
C216  H111  S    
C220  H127  S    
O10   Zn8   S    
C9    C34   S    
C214  H104  S    
C17   N1    S    
O11   Zn5   S    
C17   C49   S    
C52   C77   S    
O49   Zn25  S    
C69   C72   S    
O59   Zn5   S    
O4    Zn20  S    
C175  C183  S    
C216  H112  S    
C176  C184  S    
C14   O102  A    
C56   C73   S    
C48   C96   T    
C130  O74   A    
C61   C84   S    
C23   C55   S    
C4    C43   S    
C24   C56   S    
C5    C46   S    
C78   H35   S    
C49   C80   S    
C53   C197  S    
C7    C48   S    
C132  O28   A    
C51   C78   S    
O53   Zn29  S    
C51   C195  S    
C18   N2    S    
O64   Zn2   S    
C224  H144  S    
C40   C88   T    
N15   H137  S    
C111  C137  S    
C12   O20   A    
C159  C167  S    
C153  O63   A    
C13   O21   A    
C160  C168  S    
C212  H94   S    
N4    C212  S    
O74   Zn2   S    
C30   N14   S    
C31   N15   S    
C133  O29   A    
C178  C186  T    
O18   Zn16  S    
O6    Zn26  S    
O19   Zn13  S    
O12   Zn6   S    
C21   C24   S    
O7    Zn11  S    
N6    C214  S    
C22   C23   S    
C80   H49   S    
C4    O12   A    
O5    Zn9   S    
C214  H103  S    
C5    O13   A    
C62   C206  S    
C23   H23   S    
O1    Zn23  S    
C58   C202  S    
C56   C200  S    
C198  H11   S    
O2    Zn24  S    
C41   C89   T    
C145  C190  S    
C154  O58   A    
C158  O66   A    
C45   C93   T    
C174  C182  S    
C123  C124  S    
N2    C210  S    
O66   Zn16  S    
N7    H105  S    
O67   Zn13  S    
C141  O37   A    
C38   C86   T    
O9    Zn7   S    
C55   C90   S    
C211  H91   S    
C151  O53   A    
C137  O33   A    
O23   Zn9   S    
C115  C116  S    
O21   Zn11  S    
C139  O83   A    
C80   H33   S    
O78   Zn6   S    
C19   H19   S    
O70   Zn12  S    
C67   H62   S    
C17   H17   S    
C68   H45   S    
C60   C204  S    
C193  H16   S    
O55   Zn31  S    
C129  O73   A    
C140  O84   A    
C138  O82   A    
N13   C221  S    
C9    O97   A    
C72   H41   S    
C107  C141  S    
C197  H12   S    
O60   Zn6   S    
O52   Zn28  S    
O4    Zn22  S    
C213  H100  S    
C197  H69   S    
C26   H26   S    
C66   C67   S    
C223  H140  S    
C132  O76   A    
C106  C122  T    
C152  O54   A    
C30   H30   S    
C169  C177  S    
C100  C134  S    
C28   C60   S    
O87   Zn15  S    
C29   C61   S    
C3    C44   S    
C222  H135  S    
C11   O19   A    
O17   Zn15  S    
C28   N12   S    
C31   C63   S    
C32   C64   S    
C157  C165  S    
O92   Zn20  S    
O27   Zn19  S    
C59   C70   S    
C155  C163  S    
O57   Zn7   S    
C42   C90   T    
O7    Zn29  S    
C212  H96   S    
C201  H8    S    
N11   H121  S    
O43   Zn19  S    
C1    C42   S    
N2    H85   S    
C46   C94   T    
C193  C196  S    
C19   N3    S    
C142  O38   A    
C149  O55   A    
C218  H118  S    
O8    Zn14  S    
C52   C93   S    
C12   C35   S    
C145  O41   A    
O4    Zn4   S    
C6    O94   A    
C13   C38   S    
C75   H38   S    
C110  C126  T    
C56   C89   S    
C28   H28   S    
C71   H58   S    
C195  H67   S    
C164  C172  T    
C15   O103  A    
C97   C135  S    
O41   Zn17  S    
N16   H141  S    
O95   Zn23  S    
O96   Zn24  S    
C167  C175  T    
C67   H46   S    
C168  C176  T    
C27   N11   S    
C160  O68   A    
C196  H68   S    
N14   H133  S    
C129  O25   A    
N9    C217  S    
C182  C190  T    
C20   H20   S    
O16   Zn2   S    
C101  C117  T    
C68   H61   S    
C117  C118  S    
C154  O64   A    
C135  O31   A    
C60   C69   S    
C136  O32   A    
C3    O91   A    
C10   C33   S    
C64   C81   S    
C213  H98   S    
C203  H75   S    
C131  O27   A    
N5    H97   S    
C57   C201  S    
C219  H122  S    
C104  C130  S    
C34   C82   T    
C213  H99   S    
O7    Zn27  S    
C223  H138  S    
C61   C205  S    
C194  H15   S    
C141  O85   A    
C130  O26   A    
C6    C45   S    
C140  O36   A    
N10   H117  S    
C100  C116  T    
O31   Zn23  S    
C137  O81   A    
C223  H139  S    
C25   C28   S    
C4    O92   A    
C26   C27   S    
C133  O77   A    
C1    O9    A    
C14   O22   A    
C143  O87   A    
O8    Zn28  S    
C29   C32   S    
C207  H79   S    
C30   C31   S    
C58   C71   S    
C208  H80   S    
C179  C187  T    
C159  O69   A    
O13   Zn3   S    
C218  H120  S    
C177  C185  T    
O42   Zn18  S    
C18   C19   S    
O100  Zn28  S    
C65   H64   S    
O4    Zn6   S    
O6    Zn10  S    
C66   H63   S    
C6    O14   A    
O3    Zn3   S    
C181  C189  T    
C199  H71   S    
O1    Zn1   S    
C208  H1    S    
C210  H87   S    
C59   C86   S    
C215  H108  S    
C184  C192  T    
C146  C189  S    
C70   C71   S    
C157  O65   A    
C202  H7    S    
C163  C171  T    
C196  H13   S    
C144  O40   A    
C224  H142  S    
C172  C180  S    
N3    C211  S    
C194  C195  S    
C63   C66   S    
C173  C181  S    
N6    H101  S    
O39   Zn31  S    
C220  H126  S    
C20   N4    S    
C200  H9    S    
N1    C209  S    
C221  H131  S    
C151  O51   A    
C154  C162  S    
C136  O80   A    
C194  H66   S    
O72   Zn10  S    
C157  O71   A    
C22   C54   S    
C147  O45   A    
C29   N13   S    
O50   Zn26  S    
C205  H4    S    
O68   Zn14  S    
C205  H77   S    
C197  C200  S    
C211  H90   S    
O3    Zn21  S    
O61   Zn3   S    
C159  O67   A    
C209  H83   S    
O90   Zn18  S    
C198  H70   S    
C221  H132  S    
C21   H21   S    
O97   Zn25  S    
C103  C129  S    
C148  O44   A    
C121  C122  S    
C101  C131  S    
C139  O35   A    
C30   C62   S    
C125  C126  S    
C73   C76   S    
C53   C76   S    
C127  C128  S    
C18   C50   S    
O76   Zn4   S    
C113  C114  S    
C77   C80   S    
C31   H31   S    
C35   C83   T    
C131  O75   A    
C8    O96   A    
C135  O79   A    
N16   C224  S    
O33   Zn25  S    
C195  H14   S    
C60   C85   S    
N15   C223  S    
O7    Zn13  S    
C24   H24   S    
C7    O95   A    
C64   C65   S    
O38   Zn30  S    
C54   C91   S    
C156  O60   A    
C14   C37   S    
C50   C194  S    
C99   C115  T    
C110  C140  S    
C72   H57   S    
C24   N8    S    
C149  O49   A    
C108  C124  T    
C219  H124  S    
C57   C72   S    
O75   Zn3   S    
C15   C40   S    
C112  C128  T    
C200  H72   S    
C16   C39   S    
O73   Zn1   S    
C59   C203  S    
C22   N6    S    
C9    O17   A    
N11   C219  S    
C220  H128  S    
O103  Zn31  S    
O85   Zn13  S    
C165  C173  T    
O58   Zn8   S    
C63   C82   S    
C104  C120  T    
C76   H53   S    
C16   O24   A    
O83   Zn11  S    
C143  O39   A    
C203  H6    S    
C153  O57   A    
C148  O46   A    
C58   C87   S    
C134  O30   A    
C69   H60   S    
C147  O43   A    
C70   H59   S    
O5    Zn31  S    
C73   H40   S    
O91   Zn19  S    
O6    Zn32  S    
C64   C208  S    
C99   C133  S    
C222  H134  S    
O89   Zn17  S    
C62   C67   S    
C37   C85   T    
C11   C36   S    
O3    Zn19  S    
C150  O56   A    
O47   Zn23  S    
O1    Zn17  S    
C50   C95   S    
O48   Zn24  S    
C217  H116  S    
C193  H65   S    
C221  H130  S    
C16   O104  A    
C65   H48   S    
C98   C136  S    
O34   Zn26  S    
N13   H129  S    
C79   H34   S    
C158  O72   A    
C212  H95   S    
C12   O100  A    
C69   H44   S    
C13   O101  A    
C206  H3    S    
O46   Zn22  S    
C7    O15   A    
C162  C170  T    
N12   H125  S    
O102  Zn30  S    
C198  C199  S    
C18   H18   S    
C71   H42   S    
C102  C118  T    
C27   H27   S    
C210  H88   S    
C75   H54   S    
C25   H25   S    
C180  C188  T    
C2    O10   A    
C202  H74   S    
C29   H29   S    
C108  C142  S    
O37   Zn29  S    
C161  C169  T    
N7    C215  S    
C209  H84   S    
C1    O89   A    
O63   Zn1   S    
C74   C75   S    
O8    Zn12  S    
C145  O47   A    
C156  O62   A    
C211  H92   S    
C201  H73   S    
C217  H114  S    
O84   Zn12  S    
C78   C79   S    
C32   H32   S    
O56   Zn32  S    
N9    H113  S    
O25   Zn17  S    
C204  H5    S    
O2    Zn2   S    
C43   C91   T    
O80   Zn8   S    
C54   C75   S    
C11   O99   A    
C63   C207  S    
C19   C51   S    
C26   C58   S    
C25   N9    S    
N8    H109  S    
C147  C192  S    
O32   Zn24  S    
C53   C92   S    
O30   Zn22  S    
O65   Zn15  S    
C105  C121  T    
C146  O42   A    
C134  O78   A    
C109  C125  T    
O36   Zn28  S    
C111  C127  T    
C201  C204  S    
C97   C113  T    
O71   Zn9   S    
O14   Zn4   S    
C205  C208  S    
O51   Zn27  S    
O69   Zn11  S    
C222  H136  S    
C79   H50   S    
C204  H76   S    
C17   C20   S    
C206  H78   S    
C103  C119  T    
C183  C191  T    
C105  C143  S    
N10   C218  S    
C106  C144  S    
O79   Zn7   S    
C8    C47   S    
C54   C198  S    
C57   C88   S    
C109  C139  S    
C138  O34   A    
N14   C222  S    
C142  O86   A    
N4    H93   S    
C20   C52   S    
C27   C59   S    
C23   N7    S    
C21   C53   S    
C74   H39   S    
C61   C68   S    
O98   Zn26  S    
C144  O88   A    
C49   C193  S    
C36   C84   T    
C218  H119  S    
C2    O90   A    
C49   C96   S    
O24   Zn10  S    
C160  O70   A    
C155  O61   A    
C51   C94   S    
O3    Zn5   S    
C158  C166  S    
O35   Zn27  S    
C66   H47   S    
C156  C164  S    
O20   Zn14  S    
C210  H86   S    
O45   Zn21  S    
C215  H107  S    
C47   C95   T    
O77   Zn5   S    
O40   Zn32  S    
C33   C81   T    
C70   H43   S    
C15   O23   A    
