data_mof_unit_57857.cif
_audit_creation_date              2012-10-26T20:40:14-0400
_audit_creation_method            fapswitch 2.2
_symmetry_space_group_name_H-M    P1
_symmetry_Int_Tables_number       1
_space_group_crystal_system       triclinic
_cell_length_a                    15.069034
_cell_length_b                    10.82516
_cell_length_c                    9.625748
_cell_angle_alpha                 89.866619
_cell_angle_beta                  90.017969
_cell_angle_gamma                 95.74238
_cell_volume                      1562.31354486

loop_
_atom_site_label
_atom_site_type_symbol
_atom_type_description
_atom_site_fract_x
_atom_site_fract_y
_atom_site_fract_z
_atom_type_partial_charge
C1    C     C_R   0.493254 0.262111 0.500015 0.584225
C2    C     C_R   0.185193 0.495913 0.373881 -0.152891
C3    C     C_R   0.232647 0.509767 0.499284 -0.022975
C4    C     C_R   0.329103 0.503604 0.499893 0.553463
C5    C     C_R   0.187387 0.525470 0.624415 -0.142963
C6    C     C_R   0.358380 0.106237 0.672534 0.286945
C7    C     C_R   0.310736 0.034208 0.773641 -0.100071
C8    C     C_R   0.319149 0.908250 0.784150 -0.178372
C9    C     C_R   0.374581 0.852605 0.693148 -0.125145
C10   C     C_R   0.429386 0.924313 0.597051 -0.014162
C11   C     C_R   0.424479 0.054687 0.591322 0.030248
C12   C     C_R   0.908327 0.517128 0.626160 0.010149
C13   C     C_R   0.482009 0.126861 0.498394 0.001936
C14   C     C_R   0.531914 0.069069 0.400407 -0.177283
C15   C     C_R   0.531394 0.941954 0.399260 -0.163049
C16   C     C_R   0.494978 0.736661 0.500219 0.544165
C17   C     C_R   0.485064 0.869300 0.500701 -0.001926
C18   C     C_R   0.642168 0.653891 0.134168 0.308116
C19   C     C_R   0.713932 0.702562 0.048456 -0.154844
C20   C     C_R   0.705243 0.705241 0.907588 -0.231374
C21   C     C_R   0.628788 0.651325 0.847562 -0.099783
C22   C     C_R   0.564878 0.574646 0.922803 0.113915
C23   C     C_R   0.952075 0.474499 0.248863 -0.139409
C24   C     C_R   0.567821 0.574886 0.072690 0.161709
C25   C     C_R   0.437752 0.429494 0.074069 -0.022519
C26   C     C_R   0.438091 0.429079 0.926569 -0.009837
C27   C     C_R   0.671135 0.498477 0.500129 0.552926
C28   C     C_R   0.815641 0.513516 0.625592 -0.149132
C29   C     C_R   0.768093 0.497523 0.500470 -0.021293
C30   C     C_R   0.813551 0.482716 0.375341 -0.148269
C31   C     C_R   0.906246 0.486833 0.373976 0.005725
C32   C     C_R   0.953890 0.504092 0.499837 0.061193
C33   C     C_3   0.262991 0.203465 0.537818 -0.124303
C34   C     C_R   0.044828 0.478330 0.248429 -0.137604
C35   C     C_3   0.713543 0.768253 0.323040 -0.139569
C36   C     C_R   0.092665 0.494474 0.373114 0.008586
C37   C     C_R   0.047169 0.507870 0.499427 0.059503
C38   C     C_R   0.094797 0.524191 0.625424 0.008923
C39   C     C_R   0.048961 0.537459 0.750390 -0.137169
C40   C     C_R   0.956193 0.534007 0.750753 -0.137377
Cu1   Cu    Cu3+1 0.499990 0.499990 0.640660 0.953636
Cu2   Cu    Cu3+1 0.500010 0.500010 0.359340 0.986247
H1    H     H_    0.780775 0.524097 0.722584 0.134345
H2    H     H_    0.776979 0.469640 0.278573 0.130506
H3    H     H_    0.387201 0.370602 0.871930 0.152997
H4    H     H_    0.916199 0.461769 0.151507 0.104788
H5    H     H_    0.079105 0.468148 0.150773 0.101754
H6    H     H_    0.219941 0.483744 0.277005 0.122495
H7    H     H_    0.223961 0.536965 0.721325 0.124340
H8    H     H_    0.084809 0.550012 0.847783 0.101440
H9    H     H_    0.921882 0.544300 0.848372 0.105131
H10   H     H_    0.573382 0.122937 0.325517 0.135048
H11   H     H_    0.227352 0.107995 0.532479 0.098291
H12   H     H_    0.261877 0.074619 0.837120 0.119629
H13   H     H_    0.292700 0.228168 0.434666 0.126383
H14   H     H_    0.211118 0.266087 0.560238 0.142138
H15   H     H_    0.723231 0.859894 0.269919 0.098805
H16   H     H_    0.774411 0.718669 0.317564 0.114751
H17   H     H_    0.701696 0.786453 0.434546 0.125683
H18   H     H_    0.278529 0.851992 0.857844 0.118009
H19   H     H_    0.371009 0.752829 0.697856 0.162290
H20   H     H_    0.570118 0.900969 0.320690 0.167072
H21   H     H_    0.386635 0.371469 0.129099 0.107058
H22   H     H_    0.774566 0.751569 0.088084 0.107701
H23   H     H_    0.756633 0.755016 0.844441 0.121711
H24   H     H_    0.624116 0.671311 0.740294 0.197109
N1    N     N_R   0.500860 0.501210 0.147910 -0.235400
N2    N     N_R   0.500890 0.501290 0.852040 -0.247710
O1    O     O_R   0.499990 0.319640 0.618810 -0.454506
O2    O     O_3   0.637909 0.695172 0.269961 -0.517913
O3    O     O_R   0.500000 0.319660 0.381240 -0.520126
O4    O     O_R   0.370250 0.499960 0.618800 -0.489724
O5    O     O_R   0.370260 0.499980 0.381230 -0.520291
O6    O     O_R   0.500000 0.680340 0.618760 -0.549047
O7    O     O_R   0.500010 0.680360 0.381190 -0.431512
O8    O     O_R   0.629740 0.500020 0.618770 -0.533621
O9    O     O_R   0.629750 0.500040 0.381200 -0.451496
O10   O     O_3   0.329835 0.220243 0.641491 -0.568419

loop_
_geom_bond_atom_site_label_1
_geom_bond_atom_site_label_2
_ccdc_geom_bond_type
C33   H13   S    
C18   O2    S    
C21   H24   S    
C27   C29   S    
C16   O7    A    
Cu1   Cu2   S    
C19   C20   A    
C25   N1    A    
C5    H7    S    
C7    C8    A    
C2    H6    S    
Cu2   O7    S    
C1    O3    A    
C12   C28   A    
C35   H16   S    
C18   C24   A    
C22   C24   A    
C36   C37   A    
C38   C39   A    
C33   O10   S    
C6    O10   S    
C10   C17   A    
C35   H17   S    
C18   C19   A    
C25   H21   S    
C26   H3    S    
Cu1   O6    S    
C14   H10   S    
C35   O2    S    
C8    C9    A    
C13   C14   A    
C29   C30   A    
C9    C10   A    
C24   N1    A    
C33   H14   S    
C23   H4    S    
C21   C22   A    
C12   C32   A    
C30   H2    S    
Cu1   N2    S    
C33   H11   S    
C20   H23   S    
C6    C11   A    
C16   C17   S    
C27   O9    A    
C25   C26   A    
C1    O1    A    
C23   C31   A    
C12   C40   A    
C37   C38   A    
C31   C32   A    
C19   H22   S    
C23   C34   A    
C32   C37   A    
C22   N2    A    
C4    O5    A    
Cu1   O4    S    
Cu2   N1    S    
C9    H19   S    
C1    C13   S    
C27   O8    A    
C4    O4    A    
Cu1   O1    S    
C2    C36   A    
C15   C17   A    
C28   C29   A    
Cu2   O5    S    
C3    C5    A    
C6    C7    A    
C16   O6    A    
C40   H9    S    
C28   H1    S    
C35   H15   S    
C26   N2    A    
C2    C3    A    
C8    H18   S    
Cu1   O8    S    
C11   C13   A    
C30   C31   A    
Cu2   O3    S    
C15   H20   S    
C34   C36   A    
C10   C11   A    
C39   C40   A    
C39   H8    S    
C20   C21   A    
Cu2   O9    S    
C14   C15   A    
C34   H5    S    
C7    H12   S    
C5    C38   A    
C3    C4    S    
