data_mof_unit_18338.cif
_audit_creation_date              2012-12-10T18:05:51-0500
_audit_creation_method            fapswitch 2.2
_symmetry_space_group_name_H-M    P1
_symmetry_Int_Tables_number       1
_space_group_crystal_system       triclinic
_cell_length_a                    12.644247
_cell_length_b                    13.038763
_cell_length_c                    14.906051
_cell_angle_alpha                 91.138336
_cell_angle_beta                  101.438246
_cell_angle_gamma                 82.125281
_cell_volume                      2385.90160934

loop_
_atom_site_label
_atom_site_type_symbol
_atom_type_description
_atom_site_fract_x
_atom_site_fract_y
_atom_site_fract_z
_atom_type_partial_charge
C1    C     C_R   0.438996 0.691347 0.482432 0.857817
C2    C     C_R   0.559999 0.408847 0.103003 0.101392
C3    C     C_R   0.373258 0.656100 0.027335 0.114645
C4    C     C_R   0.370367 0.651595 0.932377 -0.032069
C5    C     C_R   0.434621 0.570274 0.895829 0.029590
C6    C     C_R   0.498185 0.489642 0.952386 0.007110
C7    C     C_R   0.561670 0.406955 0.914900 0.121883
C8    C     C_R   0.620217 0.325837 0.972377 -0.228414
C9    C     C_R   0.619485 0.326864 0.064642 -0.219074
C10   C     C_R   0.437499 0.568422 0.803204 -0.286659
C11   C     C_R   0.502802 0.490676 0.767600 -0.088633
C12   C     C_R   0.500948 0.497261 0.672180 0.889228
C13   C     C_R   0.565148 0.407872 0.821034 0.104675
C14   C     C_R   0.732309 0.053824 0.480587 0.161677
C15   C     C_R   0.598177 0.197813 0.506870 -0.079420
C16   C     C_R   0.289924 0.845529 0.450426 -0.059441
C17   C     C_R   0.261695 0.952818 0.437174 0.021953
C18   C     C_R   0.342784 0.015495 0.440478 -0.259523
C19   C     C_R   0.453032 0.972067 0.450230 0.085948
C20   C     C_R   0.477366 0.865272 0.441617 0.052841
C21   C     C_R   0.539629 0.031920 0.467501 0.052847
C22   C     C_R   0.647065 0.989735 0.457177 0.078369
C23   C     C_R   0.561005 0.308323 0.510516 0.878623
C24   C     C_R   0.661129 0.886846 0.423439 -0.044018
C25   C     C_R   0.576972 0.826503 0.416845 -0.225807
C26   C     C_R   0.520738 0.131962 0.499602 -0.257136
C27   C     C_R   0.704650 0.158742 0.500746 -0.208997
C28   C     C_R   0.400471 0.801017 0.456168 -0.187194
C29   C     C_R   0.079999 0.389378 0.337718 0.089401
C30   C     C_R   0.800630 0.629091 0.610256 0.018776
C31   C     C_R   0.904174 0.658810 0.629292 -0.261724
C32   C     C_R   0.983699 0.610072 0.584448 -0.181182
C33   C     C_R   0.960497 0.529390 0.522175 0.027881
C34   C     C_R   0.500437 0.498521 0.327914 0.879702
C35   C     C_R   0.852878 0.506318 0.501198 0.232819
C36   C     C_R   0.039344 0.474945 0.476542 -0.066727
C37   C     C_R   0.004571 0.421778 0.394606 0.119492
C38   C     C_R   0.896929 0.399666 0.374769 -0.254986
C39   C     C_R   0.825139 0.435147 0.431845 -0.207904
C40   C     C_R   0.151989 0.466796 0.511396 0.234436
C41   C     C_R   0.187980 0.407639 0.367236 -0.077828
C42   C     C_R   0.560764 0.410182 0.196869 -0.051501
C43   C     C_R   0.501544 0.493798 0.232608 -0.095681
C44   C     C_R   0.439693 0.573565 0.177938 -0.276758
C45   C     C_R   0.436469 0.574495 0.083967 0.072401
C46   C     C_R   0.498033 0.491121 0.046350 0.014003
H1    H     H_    0.443876 0.161198 0.518054 0.159689
H2    H     H_    0.317640 0.097972 0.431320 0.145730
H3    H     H_    0.588779 0.749161 0.389278 0.181725
H4    H     H_    0.246211 0.388780 0.323237 0.159716
H5    H     H_    0.868226 0.351717 0.317586 0.176978
H6    H     H_    0.394226 0.633992 0.211035 0.154315
H7    H     H_    0.737983 0.666758 0.644342 0.142692
H8    H     H_    0.062627 0.636696 0.597932 0.158846
H9    H     H_    0.922500 0.719715 0.677962 0.158852
H10   H     H_    0.747776 0.407867 0.419053 0.220984
H11   H     H_    0.390640 0.629012 0.757265 0.154217
H12   H     H_    0.667438 0.259925 0.947732 0.162819
H13   H     H_    0.666892 0.262646 0.105700 0.162878
H14   H     H_    0.766114 0.210475 0.511325 0.155234
N1    N     N_R   0.222190 0.444670 0.452360 -0.117319
N2    N     N_R   0.776970 0.554790 0.547140 -0.133778
O1    O     O_R   0.366740 0.627160 0.477250 -0.597752
O2    O     O_R   0.544830 0.662520 0.507680 -0.614090
O3    O     O_R   0.410940 0.482340 0.616930 -0.614913
O4    O     O_R   0.589030 0.517700 0.647360 -0.626992
O5    O     O_R   0.455170 0.337480 0.492320 -0.625288
O6    O     O_R   0.633260 0.372840 0.522750 -0.641782
O7    O     O_R   0.410970 0.482300 0.352640 -0.623296
O8    O     O_R   0.589060 0.517660 0.383070 -0.637703
Zn1   Zn    Zn3+2 0.381090 0.476390 0.479680 0.937053
Zn2   Zn    Zn3+2 0.618910 0.523610 0.520320 0.923911
C47   C     C_1   0.618138 0.324679 0.256066 0.106653
N3    N     N_1   0.663708 0.256026 0.302536 -0.231258
C48   C     C_1   0.756866 0.838781 0.391847 0.167959
N4    N     N_1   0.832820 0.798730 0.366237 -0.186826
C49   C     C_3   0.852705 0.016029 0.489300 -0.387589
C50   C     C_3   0.895565 0.941587 0.570307 -0.831008
H15   H     H_    0.889343 0.982824 0.635378 0.250803
H16   H     H_    0.848951 0.875048 0.565800 0.262071
H17   H     H_    0.982440 0.911625 0.571678 0.262858
H18   H     H_    0.870431 0.982135 0.424536 0.231025
H19   H     H_    0.900727 0.082018 0.501731 0.214646
C51   C     C_1   0.204483 0.783701 0.456217 0.214142
N5    N     N_1   0.135819 0.734813 0.460498 -0.204729
C52   C     C_1   0.150038 0.001420 0.422002 0.158100
N6    N     N_1   0.060790 0.040935 0.409228 -0.243879
C53   C     C_3   0.047984 0.342416 0.244197 -0.440290
C54   C     C_3   0.051176 0.225466 0.251123 -0.824945
H20   H     H_    0.991963 0.206386 0.291919 0.269941
H21   H     H_    0.029678 0.192913 0.181524 0.247652
H22   H     H_    0.134247 0.189054 0.283708 0.261407
H23   H     H_    0.965947 0.378639 0.209080 0.212685
H24   H     H_    0.104892 0.358186 0.199630 0.206927
C55   C     C_3   0.192786 0.455809 0.614142 -0.373452
C56   C     C_3   0.255548 0.348101 0.639962 -0.797670
H25   H     H_    0.198444 0.289349 0.628510 0.233944
H26   H     H_    0.318517 0.325886 0.598497 0.283065
H27   H     H_    0.295341 0.346513 0.713475 0.246654
H28   H     H_    0.238330 0.519987 0.640917 0.223534
H29   H     H_    0.124971 0.461511 0.651800 0.190088
C57   C     C_3   0.309011 0.747864 0.067125 -0.402433
C58   C     C_3   0.199733 0.721226 0.081827 -0.838480
H30   H     H_    0.211227 0.653832 0.128745 0.259219
H31   H     H_    0.155891 0.788573 0.112148 0.251489
H32   H     H_    0.148935 0.702750 0.015299 0.262714
H33   H     H_    0.356951 0.774807 0.131682 0.196084
H34   H     H_    0.293090 0.817136 0.021940 0.215344
C59   C     C_1   0.299527 0.729677 0.872049 0.139505
N7    N     N_1   0.243048 0.791699 0.823952 -0.222310
C60   C     C_3   0.631724 0.320982 0.777293 -0.428744
C61   C     C_3   0.570008 0.227979 0.754808 -0.879581
H35   H     H_    0.621467 0.165300 0.725597 0.257103
H36   H     H_    0.548536 0.197829 0.816996 0.265912
H37   H     H_    0.494232 0.250435 0.703412 0.256919
H38   H     H_    0.652476 0.345964 0.713228 0.225662
H39   H     H_    0.712555 0.297522 0.821630 0.199534

loop_
_geom_bond_atom_site_label_1
_geom_bond_atom_site_label_2
_ccdc_geom_bond_type
C16   C28   A    
C4    C59   S    
C47   N3    T    
C55   C56   S    
C41   N1    A    
C21   C26   A    
C61   H36   S    
C58   H32   S    
C7    C8    A    
C49   C50   S    
C2    C46   A    
C5    C6    A    
C36   C37   A    
C19   C21   A    
C27   H14   S    
C38   C39   A    
C50   H16   S    
C20   C25   A    
C49   H19   S    
C56   H27   S    
C16   C51   S    
C33   C36   A    
C18   C19   A    
C14   C49   S    
C23   O5    A    
O7    Zn1   S    
C29   C53   S    
C8    H12   S    
O4    Zn2   S    
C19   C20   A    
C16   C17   A    
C56   H26   S    
C1    C28   S    
C57   H34   S    
C60   H38   S    
C14   C27   A    
C54   H21   S    
C34   O8    A    
C44   H6    S    
C15   C23   S    
C21   C22   A    
C1    O1    A    
C32   H8    S    
C61   H35   S    
C30   H7    S    
C53   H24   S    
C17   C52   S    
C36   C40   A    
C10   H11   S    
C24   C25   A    
C55   H28   S    
C8    C9    A    
C15   C26   A    
C38   H5    S    
C20   C28   A    
O3    Zn1   S    
C12   O4    A    
C3    C45   A    
C40   N1    A    
C9    H13   S    
C23   O6    A    
C35   C39   A    
C48   N4    T    
C37   C38   A    
C15   C27   A    
C39   H10   S    
O6    Zn2   S    
C56   H25   S    
C17   C18   A    
N2    Zn2   S    
C57   H33   S    
C58   H31   S    
C51   N5    T    
C54   H22   S    
C34   O7    A    
C26   H1    S    
C3    C57   S    
O1    Zn1   S    
C30   N2    A    
C43   C44   A    
C22   C24   A    
C42   C43   A    
C40   C55   S    
C3    C4    A    
C1    O2    A    
C41   H4    S    
C44   C45   A    
C52   N6    T    
C53   H23   S    
C42   C47   S    
C6    C46   A    
C60   C61   S    
C29   C41   A    
C50   H15   S    
C31   C32   A    
C34   C43   S    
C4    C5    A    
C18   H2    S    
C11   C12   S    
C24   C48   S    
C6    C7    A    
C12   O3    A    
C60   H39   S    
C32   C33   A    
C14   C22   A    
C5    C10   A    
C13   C60   S    
C59   N7    T    
C11   C13   A    
C50   H17   S    
N1    Zn1   S    
C30   C31   A    
C49   H18   S    
C2    C42   A    
C33   C35   A    
C35   N2    A    
O5    Zn1   S    
O2    Zn2   S    
C57   C58   S    
C25   H3    S    
C10   C11   A    
C45   C46   A    
C7    C13   A    
C53   C54   S    
C29   C37   A    
C58   H30   S    
O8    Zn2   S    
C31   H9    S    
C54   H20   S    
C2    C9    A    
C61   H37   S    
C55   H29   S    
