data_mof_unit_68120.cif
_audit_creation_date              2013-03-05T15:58:26-0500
_audit_creation_method            fapswitch 2.2
_symmetry_space_group_name_H-M    P1
_symmetry_Int_Tables_number       1
_space_group_crystal_system       triclinic
_cell_length_a                    7.249494
_cell_length_b                    15.102976
_cell_length_c                    15.890419
_cell_angle_alpha                 90.003555
_cell_angle_beta                  90.002755
_cell_angle_gamma                 90.638925
_cell_volume                      1739.71685535

loop_
_atom_site_label
_atom_site_type_symbol
_atom_site_description
_atom_site_fract_x
_atom_site_fract_y
_atom_site_fract_z
_atom_type_partial_charge
O1    O     O_R   0.388780 0.834790 0.412340 -0.609572
O2    O     O_R   0.111220 0.165210 0.912340 -0.609537
O3    O     O_R   0.888780 0.665210 0.587660 -0.598008
O4    O     O_R   0.611220 0.334790 0.087660 -0.597984
O5    O     O_R   0.059040 0.845930 0.587040 -0.577842
O6    O     O_R   0.440960 0.154070 0.087040 -0.577700
O7    O     O_R   0.559040 0.654070 0.412960 -0.570934
O8    O     O_R   0.940960 0.345930 0.912960 -0.571251
C1    C     C_R   0.229495 0.871359 0.612383 0.899704
C2    C     C_R   0.270522 0.128674 0.112423 0.899772
C3    C     C_R   0.728352 0.629507 0.386763 0.898591
C4    C     C_R   0.771619 0.370514 0.886789 0.898541
O9    O     O_R   0.059070 0.845930 0.412970 -0.580193
O10   O     O_R   0.440930 0.154070 0.912970 -0.580211
O11   O     O_R   0.559070 0.654070 0.587030 -0.576585
O12   O     O_R   0.940930 0.345930 0.087030 -0.576646
O13   O     O_R   0.888760 0.665210 0.412340 -0.602763
O14   O     O_R   0.611240 0.334790 0.912340 -0.602743
O15   O     O_R   0.388760 0.834790 0.587660 -0.601484
O16   O     O_R   0.111240 0.165210 0.087660 -0.601391
C5    C     C_R   0.229107 0.865489 0.383056 0.896163
C6    C     C_R   0.270906 0.134556 0.883018 0.896464
C7    C     C_R   0.728111 0.633093 0.616000 0.898959
C8    C     C_R   0.771889 0.366936 0.115972 0.899101
O17   O     O_3   0.222280 0.690700 0.500000 -0.289865
O18   O     O_3   0.277720 0.309300 0.000000 -0.290100
O19   O     O_3   0.722280 0.809300 0.500000 -0.299760
O20   O     O_3   0.777720 0.190700 0.000000 -0.299884
V1    V     V_3+5 0.947430 0.761000 0.500000 1.135879
V2    V     V_3+5 0.552570 0.239000 0.000000 1.135852
V3    V     V_3+5 0.447430 0.739000 0.500000 1.139129
V4    V     V_3+5 0.052570 0.261000 0.000000 1.138951
C9    C     C_3   0.902550 0.589644 0.754178 0.070606
C10   C     C_3   0.597677 0.410259 0.254238 0.070477
C11   C     C_3   0.413554 0.915643 0.248357 0.073345
C12   C     C_3   0.086025 0.084143 0.748507 0.073176
H1    H     H_    0.031517 0.582303 0.716476 0.081263
H2    H     H_    0.468618 0.417341 0.216546 0.081606
H3    H     H_    0.537714 0.933930 0.286488 0.071759
H4    H     H_    0.962228 0.065633 0.786781 0.071796
C13   C     C_3   0.921433 0.514232 0.823413 -0.033026
C14   C     C_3   0.578432 0.485801 0.323340 -0.034175
C15   C     C_3   0.416831 0.984856 0.173516 0.011160
C16   C     C_3   0.082869 0.015015 0.673587 0.011273
H5    H     H_    0.049066 0.477445 0.807086 0.108906
H6    H     H_    0.450845 0.522533 0.306818 0.109294
H7    H     H_    0.548733 0.022848 0.180074 0.097068
H8    H     H_    0.951140 0.976894 0.680180 0.097073
H9    H     H_    0.929289 0.473629 0.632746 0.151376
H10   H     H_    0.570185 0.526255 0.132812 0.151310
H11   H     H_    0.404768 0.030149 0.379472 0.154806
H12   H     H_    0.096945 0.969657 0.879825 0.155040
H13   H     H_    0.912132 0.366295 0.727965 0.130035
H14   H     H_    0.587545 0.633735 0.227944 0.130138
H15   H     H_    0.426563 0.126798 0.272291 0.140102
H16   H     H_    0.073973 0.873278 0.772416 0.139972
C17   C     C_3   0.787256 0.473435 0.657408 -0.493712
C18   C     C_3   0.712317 0.526555 0.157383 -0.494929
C19   C     C_3   0.275333 0.026090 0.342953 -0.484007
C20   C     C_3   0.225799 0.973923 0.842907 -0.483157
C21   C     C_3   0.554151 0.555998 0.737085 -0.430747
C22   C     C_3   0.945919 0.444198 0.236942 -0.430555
C23   C     C_3   0.059920 0.935548 0.259263 -0.451845
C24   C     C_3   0.439838 0.064845 0.758964 -0.452279
C25   C     C_3   0.741480 0.566658 0.690538 0.042868
C26   C     C_3   0.758506 0.433366 0.190502 0.043829
C27   C     C_3   0.244362 0.932035 0.308822 0.025983
C28   C     C_3   0.255703 0.068027 0.808763 0.025442
H17   H     H_    0.452386 0.524462 0.693564 0.165177
H18   H     H_    0.047353 0.475960 0.193415 0.165137
H19   H     H_    0.946821 0.955629 0.302487 0.162041
H20   H     H_    0.553459 0.045090 0.802044 0.161923
H21   H     H_    0.493817 0.621591 0.750124 0.163003
H22   H     H_    0.006790 0.378688 0.249816 0.162888
H23   H     H_    0.020647 0.867716 0.239381 0.165012
H24   H     H_    0.478338 0.132716 0.738953 0.165103
C29   C     C_3   0.758697 0.444554 0.817729 -0.092584
C30   C     C_3   0.741163 0.555475 0.317684 -0.092089
C31   C     C_3   0.256730 0.054160 0.181280 -0.101439
C32   C     C_3   0.243318 0.945889 0.681219 -0.101570
C33   C     C_3   0.778792 0.401168 0.727985 -0.001593
C34   C     C_3   0.720875 0.598841 0.227953 -0.001888
C35   C     C_3   0.285789 0.097172 0.271334 -0.023332
C36   C     C_3   0.214780 0.902862 0.771284 -0.023760
C37   C     C_3   0.569640 0.496634 0.817691 0.118443
C38   C     C_3   0.930220 0.503387 0.317647 0.117615
C39   C     C_3   0.064144 0.002400 0.183941 0.143829
C40   C     C_3   0.435717 0.997855 0.683742 0.144595
H25   H     H_    0.453906 0.447897 0.814784 0.124202
H26   H     H_    0.046007 0.552112 0.314908 0.124485
H27   H     H_    0.955232 0.051922 0.195981 0.116134
H28   H     H_    0.544852 0.948471 0.695845 0.116166
H29   H     H_    0.694329 0.457953 0.604439 0.232446
H30   H     H_    0.804999 0.542153 0.104350 0.233111
H31   H     H_    0.161469 0.039863 0.386763 0.240299
H32   H     H_    0.340512 0.960298 0.886310 0.240418
C41   C     C_3   0.631082 0.330108 0.707419 -0.348736
C42   C     C_3   0.658069 0.288592 0.620495 -0.890680
H33   H     H_    0.803431 0.292584 0.598582 0.282601
H34   H     H_    0.613470 0.219482 0.622404 0.240011
H35   H     H_    0.568152 0.320599 0.573856 0.291967
H36   H     H_    0.635918 0.276794 0.755426 0.170943
H37   H     H_    0.492470 0.359841 0.708134 0.205901
C43   C     C_3   0.868549 0.669861 0.207334 -0.348506
C44   C     C_3   0.841179 0.711451 0.120455 -0.890011
H38   H     H_    0.696361 0.705932 0.097934 0.282681
H39   H     H_    0.881805 0.781086 0.122862 0.239778
H40   H     H_    0.933771 0.680675 0.074069 0.291884
H41   H     H_    0.863999 0.723123 0.255409 0.170718
H42   H     H_    0.007089 0.640042 0.207959 0.205974
C45   C     C_3   0.151752 0.172311 0.292399 -0.358668
C46   C     C_3   0.196424 0.217702 0.376547 -0.884227
H43   H     H_    0.315908 0.188321 0.409705 0.286055
H44   H     H_    0.229634 0.287405 0.364713 0.239383
H45   H     H_    0.075142 0.215383 0.419083 0.286090
H46   H     H_    0.151436 0.222935 0.241796 0.178881
H47   H     H_    0.012073 0.143189 0.297700 0.215478
C47   C     C_3   0.348734 0.827636 0.792151 -0.358503
C48   C     C_3   0.304923 0.782553 0.876526 -0.883449
H48   H     H_    0.185201 0.811754 0.909650 0.286094
H49   H     H_    0.272400 0.712748 0.865022 0.239050
H50   H     H_    0.426370 0.785360 0.918938 0.286182
H51   H     H_    0.348088 0.776865 0.741671 0.178690
H52   H     H_    0.488622 0.856593 0.796992 0.215078
C49   C     C_3   0.923279 0.687885 0.783600 -0.315753
C50   C     C_3   0.753433 0.745071 0.787472 -0.961877
H53   H     H_    0.694103 0.756578 0.724368 0.253418
H54   H     H_    0.650395 0.716615 0.830519 0.281326
H55   H     H_    0.793063 0.810766 0.813554 0.243339
H56   H     H_    0.983945 0.691733 0.846367 0.237674
H57   H     H_    0.021696 0.722271 0.740706 0.193485
C51   C     C_3   0.577663 0.312065 0.283928 -0.316135
C52   C     C_3   0.747482 0.254810 0.287093 -0.963732
H58   H     H_    0.805677 0.243184 0.223795 0.254084
H59   H     H_    0.851313 0.283248 0.329773 0.281233
H60   H     H_    0.708142 0.189152 0.313343 0.243519
H61   H     H_    0.518635 0.308301 0.347035 0.237857
H62   H     H_    0.478226 0.277627 0.241558 0.193764
C53   C     C_3   0.459727 0.818307 0.225566 -0.323140
C54   C     C_3   0.298937 0.761063 0.195817 -0.880245
H63   H     H_    0.208000 0.746333 0.250036 0.232289
H64   H     H_    0.222573 0.793233 0.144895 0.288500
H65   H     H_    0.348495 0.697552 0.170007 0.240221
H66   H     H_    0.570348 0.818007 0.178016 0.221735
H67   H     H_    0.521870 0.784837 0.280677 0.192648
C55   C     C_3   0.039146 0.181388 0.725756 -0.323029
C56   C     C_3   0.199393 0.238714 0.695520 -0.879985
H68   H     H_    0.290520 0.253905 0.749571 0.232134
H69   H     H_    0.275721 0.206331 0.644711 0.288382
H70   H     H_    0.149329 0.301969 0.669373 0.240523
H71   H     H_    0.927945 0.181408 0.678484 0.221300
H72   H     H_    0.977426 0.214899 0.780942 0.192797
I1    I     I_    0.005079 0.550530 0.949215 -0.601712
I2    I     I_    0.493963 0.449865 0.449109 -0.601683
I3    I     I_    0.461524 0.933264 0.049191 -0.600637
I4    I     I_    0.037623 0.066658 0.549274 -0.600546
C57   C     C_3   0.529571 0.554350 0.895609 -0.408301
C58   C     C_3   0.475893 0.503397 0.973290 -0.777727
H73   H     H_    0.369719 0.453340 0.957585 0.304083
H74   H     H_    0.599178 0.472493 0.000154 0.256052
H75   H     H_    0.414905 0.549971 0.019228 0.245294
H76   H     H_    0.642931 0.600737 0.910671 0.251756
H77   H     H_    0.407227 0.593622 0.881204 0.213345
C59   C     C_3   0.969764 0.445469 0.395487 -0.406794
C60   C     C_3   0.023194 0.496308 0.473289 -0.778258
H78   H     H_    0.129334 0.546456 0.457782 0.304156
H79   H     H_    0.899809 0.527177 0.500106 0.255741
H80   H     H_    0.084078 0.449651 0.519176 0.245483
H81   H     H_    0.856080 0.399174 0.410353 0.251668
H82   H     H_    0.091926 0.406008 0.381164 0.213314
C61   C     C_3   0.993494 0.951473 0.105339 -0.459453
C62   C     C_3   0.936277 0.006039 0.031101 -0.737455
H83   H     H_    0.832356 0.053328 0.052914 0.296424
H84   H     H_    0.058161 0.037709 0.002718 0.265005
H85   H     H_    0.870706 0.962552 0.983060 0.238159
H86   H     H_    0.088506 0.900174 0.083956 0.245178
H87   H     H_    0.862576 0.918945 0.124817 0.212377
C63   C     C_3   0.506052 0.048677 0.605028 -0.460832
C64   C     C_3   0.563962 0.993906 0.531041 -0.737195
H88   H     H_    0.667791 0.946700 0.553134 0.296391
H89   H     H_    0.442315 0.962118 0.502568 0.265037
H90   H     H_    0.629775 0.037269 0.482978 0.238335
H91   H     H_    0.410547 0.099652 0.583400 0.244949
H92   H     H_    0.636587 0.081641 0.624428 0.213161

loop_
_geom_bond_atom_site_label_1
_geom_bond_atom_site_label_2
_geom_bond_distance
_ccdc_geom_bond_type
O17   V3    1.780374 S    
C31   C35   1.584594 S    
C61   C62   1.500171 S    
O1    C5    1.335428 A    
C57   C58   1.503597 S    
C39   H27   1.110209 S    
O19   V1    1.795226 S    
O13   V1    2.049435 S    
C59   H82   1.096840 S    
C45   C46   1.535479 S    
C10   C14   1.590677 S    
C54   H65   1.106797 S    
C56   H68   1.106027 S    
C32   C36   1.584450 S    
C16   C32   1.576304 S    
O15   V3    2.056146 S    
C10   C26   1.580519 S    
C31   C39   1.593041 S    
C41   C42   1.530344 S    
C9    C25   1.580333 S    
O7    C3    1.351914 A    
C44   H39   1.089662 S    
C18   C26   1.542892 S    
C60   H78   1.101573 S    
C19   H31   1.101432 S    
C24   C28   1.553050 S    
H13   C33   1.105962 S    
C59   C60   1.503744 S    
C14   I2    2.157880 S    
C19   C35   1.565813 S    
C18   C34   1.565748 S    
C13   C29   1.574709 S    
C43   H41   1.110087 S    
O4    C8    1.334953 A    
C15   C31   1.576385 S    
O1    V3    2.056210 S    
H9    C17   1.101718 S    
C22   H18   1.114205 S    
O2    V4    2.056117 S    
C14   H6    1.115183 S    
O3    V1    2.049555 S    
C49   H57   1.111379 S    
C47   C48   1.535400 S    
C43   C44   1.530578 S    
H12   C20   1.104360 S    
C58   H75   1.109066 S    
C11   C53   1.554095 S    
O3    C7    1.335012 A    
C49   H56   1.091319 S    
C1    O15   1.344134 A    
C53   H67   1.109276 S    
C40   H28   1.110139 S    
C2    O16   1.344205 A    
C51   C52   1.513148 S    
O2    C6    1.335496 A    
C52   H60   1.110147 S    
C23   C39   1.566025 S    
H16   C36   1.109856 S    
C45   H46   1.109631 S    
O14   V2    2.049584 S    
C29   C33   1.576803 S    
C11   C15   1.583412 S    
C57   H77   1.096619 S    
O5    V1    2.046820 S    
C41   H36   1.110049 S    
C62   H85   1.110428 S    
C8    C26   1.555843 S    
C64   H90   1.110387 S    
C19   C27   1.534665 S    
C30   C38   1.587884 S    
O11   C7    1.350063 A    
C29   C37   1.587814 S    
O12   C8    1.350048 A    
C17   H29   1.101529 S    
C5    C27   1.552901 S    
C58   H74   1.099162 S    
C59   H81   1.100493 S    
C60   H79   1.099251 S    
C37   C57   1.543635 S    
O10   V2    2.046799 S    
C15   I3    2.149536 S    
C46   H44   1.093578 S    
C46   H43   1.110585 S    
C62   H84   1.097087 S    
C63   C64   1.500143 S    
C13   I1    2.157944 S    
C48   H49   1.093116 S    
C44   H40   1.103124 S    
C23   C27   1.553167 S    
O7    V3    2.058151 S    
C22   C26   1.553121 S    
O8    V4    2.058205 S    
C12   H4    1.117126 S    
C56   H70   1.106703 S    
C54   H63   1.105986 S    
C38   H26   1.110971 S    
C37   H25   1.110894 S    
O18   V4    1.780373 S    
C50   H55   1.110101 S    
C21   H21   1.106926 S    
C51   H61   1.091538 S    
C9    H1    1.117010 S    
C55   H71   1.101855 S    
C1    C32   1.571894 S    
C16   I4    2.150330 S    
C61   H86   1.096378 S    
C11   H3    1.117127 S    
O5    C1    1.351304 A    
C3    C30   1.570316 S    
C52   H58   1.105534 S    
C22   C38   1.568071 S    
C53   H66   1.101900 S    
C30   C34   1.576686 S    
C11   C27   1.579796 S    
O8    C4    1.352049 A    
C39   C61   1.550807 S    
C4    C29   1.570326 S    
C9    C49   1.561269 S    
C24   H24   1.106074 S    
H10   C18   1.101828 S    
O9    C5    1.350801 A    
C47   H52   1.102591 S    
C48   H48   1.110584 S    
O11   V3    2.058185 S    
C6    C28   1.552863 S    
C41   H37   1.105267 S    
C21   C37   1.568258 S    
C55   H72   1.109236 S    
C20   H32   1.101533 S    
C12   C55   1.553846 S    
O6    V2    2.046981 S    
C23   H19   1.114256 S    
C14   C30   1.574632 S    
C60   H80   1.109053 S    
C42   H34   1.089671 S    
C58   H73   1.101481 S    
C17   C33   1.565702 S    
C12   C16   1.583396 S    
H11   C19   1.104375 S    
H15   C35   1.109844 S    
H14   C34   1.106055 S    
C62   H83   1.099904 S    
C53   C54   1.518903 S    
C55   C56   1.519102 S    
O16   V4    2.056241 S    
C48   H50   1.109172 S    
O9    V1    2.046958 S    
C3    O13   1.339466 A    
C50   H54   1.097048 S    
C56   H69   1.096931 S    
C10   H2    1.117014 S    
C22   H22   1.106904 S    
C63   H91   1.096392 S    
C17   C25   1.542708 S    
C15   H7    1.114539 S    
O6    C2    1.351288 A    
C2    C31   1.572048 S    
C12   C28   1.579788 S    
C40   C63   1.550841 S    
C54   H64   1.096948 S    
O12   V4    2.058130 S    
C42   H35   1.102217 S    
C44   H38   1.111401 S    
C45   H47   1.102715 S    
C21   H17   1.114210 S    
O10   C6    1.350734 A    
O20   V2    1.795227 S    
C18   H30   1.101661 S    
C9    C13   1.590567 S    
C32   C40   1.593302 S    
C13   H5    1.115170 S    
C43   H42   1.105317 S    
C20   C36   1.565702 S    
C7    C25   1.556053 S    
C49   C50   1.513122 S    
C23   H23   1.106275 S    
C50   H53   1.105594 S    
C33   C41   1.542583 S    
C35   C45   1.539035 S    
C47   H51   1.109637 S    
C24   H20   1.114256 S    
O4    V2    2.049404 S    
C10   C51   1.561494 S    
C64   H88   1.100048 S    
C21   C25   1.553232 S    
C38   C59   1.543702 S    
C20   C28   1.534453 S    
C36   C47   1.538968 S    
C42   H33   1.110863 S    
C4    O14   1.339343 A    
C52   H59   1.097133 S    
C34   C43   1.542219 S    
C61   H87   1.107954 S    
C51   H62   1.111327 S    
C57   H76   1.100271 S    
C24   C40   1.566030 S    
C46   H45   1.109274 S    
C63   H92   1.108085 S    
C16   H8    1.114534 S    
C64   H89   1.096991 S    
