data_mof_unit_59697.cif
_audit_creation_date              2012-12-10T19:00:46-0500
_audit_creation_method            fapswitch 2.2
_symmetry_space_group_name_H-M    P1
_symmetry_Int_Tables_number       1
_space_group_crystal_system       triclinic
_cell_length_a                    15.08312
_cell_length_b                    10.836559
_cell_length_c                    9.559808
_cell_angle_alpha                 90.399842
_cell_angle_beta                  90.127789
_cell_angle_gamma                 90.259829
_cell_volume                      1562.48409089

loop_
_atom_site_label
_atom_site_type_symbol
_atom_type_description
_atom_site_fract_x
_atom_site_fract_y
_atom_site_fract_z
_atom_type_partial_charge
C1    C     C_R   0.500437 0.262487 0.499407 0.800516
C2    C     C_R   0.907853 0.529667 0.622109 0.128988
C3    C     C_R   0.952481 0.432468 0.254597 -0.288401
C4    C     C_R   0.045325 0.431845 0.252457 0.251706
C5    C     C_R   0.093011 0.464547 0.374884 0.069822
C6    C     C_R   0.046795 0.495815 0.498727 0.008343
C7    C     C_R   0.093435 0.527545 0.622293 0.130717
C8    C     C_R   0.047158 0.559583 0.744111 -0.220550
C9    C     C_R   0.954837 0.560980 0.743940 -0.223471
C10   C     C_R   0.185760 0.468295 0.376352 -0.231915
C11   C     C_R   0.231936 0.498566 0.499396 -0.090976
C12   C     C_R   0.328714 0.499715 0.499841 0.807990
C13   C     C_R   0.185691 0.527444 0.622027 -0.245552
C14   C     C_R   0.529129 0.065253 0.617467 0.067453
C15   C     C_R   0.506476 0.129481 0.496935 -0.075891
C16   C     C_R   0.493250 0.063298 0.371799 -0.218662
C17   C     C_R   0.492093 0.934827 0.373322 -0.214450
C18   C     C_R   0.505879 0.871067 0.498981 -0.118972
C19   C     C_R   0.530134 0.937987 0.618494 0.061329
C20   C     C_3   0.494128 0.934323 0.764275 0.090361
C21   C     C_3   0.492479 0.074950 0.761765 -0.505306
C22   C     C_R   0.553029 0.580056 0.074542 0.255906
C23   C     C_R   0.500416 0.737667 0.500301 0.801959
C24   C     C_R   0.442457 0.428287 0.073604 -0.083336
C25   C     C_R   0.442493 0.428213 0.924817 -0.091039
C26   C     C_R   0.552976 0.580106 0.927119 0.327112
C27   C     C_3   0.651574 0.584966 0.922347 -0.518372
C28   C     C_3   0.651635 0.584907 0.080394 -0.509049
C29   C     C_R   0.671411 0.499692 0.500059 0.812253
C30   C     C_R   0.815526 0.531784 0.620939 -0.255333
C31   C     C_R   0.768415 0.498462 0.499919 -0.072550
C32   C     C_R   0.814315 0.463839 0.378596 -0.224782
C33   C     C_R   0.906732 0.464108 0.376793 0.070034
C34   C     C_R   0.953827 0.496317 0.499188 0.058408
Cu1   Cu    Cu3+1 0.500000 0.499980 0.640670 0.945460
Cu2   Cu    Cu3+1 0.500000 0.500020 0.359330 0.936710
H1    H     H_    0.780673 0.560871 0.713806 0.146130
H2    H     H_    0.475566 0.885735 0.278055 0.168225
H3    H     H_    0.427808 0.889274 0.771385 0.147835
H4    H     H_    0.424199 0.113208 0.763562 0.174527
H5    H     H_    0.539981 0.120873 0.834686 0.206401
H6    H     H_    0.397127 0.368268 0.128708 0.137478
H7    H     H_    0.397224 0.368088 0.868484 0.140914
H8    H     H_    0.680431 0.499037 0.878172 0.209853
H9    H     H_    0.676667 0.672573 0.877087 0.204634
H10   H     H_    0.680494 0.499180 0.123111 0.211882
H11   H     H_    0.778342 0.435245 0.285921 0.142874
H12   H     H_    0.677078 0.672083 0.127704 0.197073
H13   H     H_    0.916094 0.407622 0.160492 0.145904
H14   H     H_    0.222523 0.446820 0.282168 0.187265
H15   H     H_    0.221466 0.551634 0.716942 0.155462
H16   H     H_    0.082423 0.584334 0.839201 0.142697
H17   H     H_    0.920188 0.586451 0.838990 0.142648
H18   H     H_    0.478753 0.110117 0.274711 0.157040
N1    N     N_R   0.500570 0.500930 0.147930 -0.189719
N2    N     N_R   0.500570 0.500890 0.852020 -0.195316
O1    O     O_R   0.500000 0.319640 0.618810 -0.579126
O2    O     O_R   0.500010 0.319680 0.381230 -0.589719
O3    O     O_R   0.370250 0.499950 0.618800 -0.589753
O4    O     O_R   0.370260 0.499990 0.381220 -0.589082
O5    O     O_R   0.499990 0.680320 0.618770 -0.570288
O6    O     O_R   0.500000 0.680360 0.381190 -0.583851
O7    O     O_R   0.629740 0.500010 0.618780 -0.585928
O8    O     O_R   0.629750 0.500050 0.381200 -0.586235
N3    N     N_2   0.558660 0.886416 0.862500 -0.402425
H19   H     H_    0.622685 0.918196 0.848792 0.258016
C35   C     C_3   0.530456 0.889492 0.006686 -0.716212
H20   H     H_    0.582759 0.849312 0.073893 0.224817
H21   H     H_    0.468598 0.834692 0.019376 0.226916
H22   H     H_    0.518974 0.986095 0.041506 0.224782
N4    N     N_2   0.090004 0.399669 0.126410 -0.441920
H23   H     H_    0.057097 0.427301 0.037320 0.253312
C36   C     C_3   0.116038 0.271529 0.117923 -0.713975
H24   H     H_    0.056365 0.210973 0.115087 0.231517
H25   H     H_    0.158087 0.246330 0.208801 0.232954
H26   H     H_    0.154934 0.256033 0.020941 0.225936

loop_
_geom_bond_atom_site_label_1
_geom_bond_atom_site_label_2
_ccdc_geom_bond_type
C29   O7    A    
C24   H6    S    
C36   H24   S    
C19   C20   S    
C25   N2    A    
C25   H7    S    
C3    H13   S    
C7    C8    A    
C24   N1    A    
C28   H10   S    
C26   C27   S    
C14   C21   S    
Cu2   O2    S    
C5    C6    A    
C3    C33   A    
C15   C16   A    
Cu1   O3    S    
C18   C19   A    
C13   H15   S    
C12   O3    A    
C27   H8    S    
C23   O6    A    
Cu1   Cu2   S    
C8    C9    A    
N3    C35   S    
C1    C15   S    
C8    H16   S    
C2    C34   A    
C29   O8    A    
C22   C28   S    
C36   H25   S    
Cu2   O6    S    
C5    C10   A    
C17   C18   A    
C35   H20   S    
C20   N3    S    
C24   C25   A    
N4    C36   S    
C20   H3    S    
C16   C17   A    
C18   C23   S    
C30   H1    S    
C35   H21   S    
C1    O1    A    
C31   C32   A    
C23   O5    A    
C33   C34   A    
Cu1   O5    S    
C6    C7    A    
C21   H5    S    
C32   H11   S    
C9    H17   S    
C3    C4    A    
C10   H14   S    
C28   H12   S    
Cu1   N2    S    
C14   C19   A    
C4    C5    A    
Cu2   O4    S    
C26   N2    A    
C11   C12   S    
C22   N1    A    
C2    C30   A    
Cu1   O1    S    
C35   H22   S    
C32   C33   A    
N4    H23   S    
C29   C31   S    
Cu2   N1    S    
C1    O2    A    
C11   C13   A    
C27   H9    S    
C30   C31   A    
C21   H4    S    
C36   H26   S    
C17   H2    S    
C16   H18   S    
C10   C11   A    
C12   O4    A    
C6    C34   A    
C7    C13   A    
C20   C21   S    
N3    H19   S    
C22   C26   A    
C27   C28   S    
C14   C15   A    
Cu1   O7    S    
Cu2   O8    S    
C2    C9    A    
C4    N4    S    
