data_mof_unit_39335.cif
_audit_creation_date              2012-12-11T15:42:58-0500
_audit_creation_method            fapswitch 2.2
_symmetry_space_group_name_H-M    P1
_symmetry_Int_Tables_number       1
_space_group_crystal_system       triclinic
_cell_length_a                    19.037245
_cell_length_b                    11.036673
_cell_length_c                    18.776264
_cell_angle_alpha                 90.065956
_cell_angle_beta                  89.563375
_cell_angle_gamma                 90.304357
_cell_volume                      3944.8677798

loop_
_atom_site_label
_atom_site_type_symbol
_atom_type_description
_atom_site_fract_x
_atom_site_fract_y
_atom_site_fract_z
_atom_type_partial_charge
C1    C     C_R   0.730242 0.375561 0.145803 0.555069
C2    C     C_R   0.288459 0.329557 0.861282 0.568214
C3    C     C_R   0.230246 0.875566 0.145804 0.547976
C4    C     C_R   0.788459 0.829556 0.861281 0.569570
C5    C     C_R   0.529140 0.377972 0.920333 -0.095941
C6    C     C_R   0.511015 0.394992 0.067326 -0.086748
C7    C     C_R   0.029141 0.878011 0.920321 -0.095942
C8    C     C_R   0.011018 0.894990 0.067317 -0.086638
C9    C     C_R   0.034470 0.990126 0.953956 -0.128475
C10   C     C_R   0.023663 0.999019 0.027007 -0.137882
C11   C     C_R   0.534474 0.490094 0.953958 -0.128646
C12   C     C_R   0.523667 0.499008 0.027009 -0.137992
C13   C     C_R   0.778791 0.842911 0.938161 0.013721
C14   C     C_R   0.247929 0.907147 0.073454 0.018548
C15   C     C_R   0.278795 0.342906 0.938163 0.014674
C16   C     C_R   0.747918 0.407142 0.073453 0.017466
C17   C     C_R   0.714624 0.818223 0.971873 0.006129
C18   C     C_R   0.277409 0.818148 0.029046 0.039410
C19   C     C_R   0.214626 0.318230 0.971874 0.006611
C20   C     C_R   0.777454 0.318184 0.029057 0.038212
C21   C     C_R   0.704363 0.845703 0.043184 0.005036
C22   C     C_R   0.277395 0.831117 0.955860 0.007033
C23   C     C_R   0.204367 0.345692 0.043189 0.004254
C24   C     C_R   0.777448 0.331152 0.955868 0.007796
C25   C     C_R   0.825639 0.905148 0.052780 -0.157656
C26   C     C_R   0.207980 0.011702 0.969246 -0.137962
C27   C     C_R   0.325643 0.405116 0.052788 -0.158215
C28   C     C_R   0.707938 0.511633 0.969237 -0.137664
C29   C     C_R   0.835770 0.877955 0.980673 -0.156489
C30   C     C_R   0.210724 0.001882 0.042376 -0.144035
C31   C     C_R   0.335774 0.377934 0.980678 -0.156482
C32   C     C_R   0.710678 0.501825 0.042364 -0.144273
C33   C     C_3   0.642346 0.857456 0.952457 -0.268501
C34   C     C_3   0.349763 0.765959 0.027756 -0.270853
C35   C     C_3   0.142354 0.357494 0.952459 -0.268806
C36   C     C_3   0.849854 0.266193 0.027790 -0.271028
C37   C     C_3   0.631221 0.887907 0.030476 -0.260962
C38   C     C_3   0.348542 0.777689 0.947103 -0.280523
C39   C     C_3   0.131232 0.387924 0.030480 -0.261032
C40   C     C_3   0.848652 0.277940 0.947141 -0.280142
C41   C     C_R   0.757953 0.899324 0.083138 0.014882
C42   C     C_R   0.245886 0.931683 0.925021 0.022433
C43   C     C_R   0.257959 0.399299 0.083147 0.013820
C44   C     C_R   0.745885 0.431665 0.925022 0.023749
C45   C     C_R   0.531667 0.156227 0.146816 0.538976
C46   C     C_R   0.468556 0.155089 0.853026 0.533183
C47   C     C_R   0.031675 0.656226 0.146808 0.540510
C48   C     C_R   0.968573 0.655092 0.853016 0.531613
C49   C     C_R   0.500948 0.169742 0.577240 0.017644
C50   C     C_R   0.511645 0.160125 0.428120 0.019546
C51   C     C_R   0.010218 0.662377 0.581173 0.016219
C52   C     C_R   0.016829 0.664757 0.430991 0.015816
C53   C     C_R   0.532573 0.070150 0.543972 0.018381
C54   C     C_R   0.534336 0.064525 0.470745 0.041031
C55   C     C_R   0.024221 0.556032 0.542698 0.026866
C56   C     C_R   0.019807 0.558537 0.470173 0.025788
C57   C     C_R   0.488885 0.266468 0.461027 -0.175364
C58   C     C_R   0.484069 0.271840 0.535346 -0.164113
C59   C     C_R   0.022402 0.774090 0.469744 -0.158718
C60   C     C_R   0.019596 0.772706 0.544966 -0.165233
C61   C     C_3   0.518340 0.936373 0.549817 -0.273915
C62   C     C_3   0.510674 0.935287 0.469923 -0.273900
C63   C     C_3   0.995477 0.428788 0.543138 -0.280085
C64   C     C_3   0.985937 0.437810 0.463123 -0.283008
C65   C     C_R   0.779602 0.853006 0.565669 0.008857
C66   C     C_R   0.244436 0.921555 0.422260 0.017253
C67   C     C_R   0.254379 0.424095 0.578583 0.013640
C68   C     C_R   0.720444 0.353217 0.433989 0.012104
C69   C     C_R   0.834995 0.895126 0.522947 0.039015
C70   C     C_R   0.188437 0.962419 0.463672 0.052741
C71   C     C_R   0.309895 0.469706 0.537887 0.045580
C72   C     C_R   0.664915 0.394217 0.476599 0.043847
C73   C     C_R   0.824253 0.923636 0.452059 0.009958
C74   C     C_R   0.197502 0.993677 0.533631 0.014188
C75   C     C_R   0.301367 0.499155 0.467787 0.010727
C76   C     C_R   0.675138 0.421811 0.547719 0.013252
C77   C     C_R   0.701213 0.882514 0.467153 -0.179895
C78   C     C_R   0.321465 0.956596 0.521403 -0.177090
C79   C     C_R   0.179357 0.443049 0.476363 -0.169690
C80   C     C_R   0.797755 0.379034 0.533493 -0.184523
C81   C     C_R   0.712725 0.843410 0.536171 -0.179447
C82   C     C_R   0.311374 0.918564 0.451096 -0.193293
C83   C     C_R   0.188501 0.411183 0.547734 -0.186841
C84   C     C_R   0.787139 0.343474 0.463753 -0.184141
C85   C     C_3   0.884780 0.000703 0.532209 -0.102063
C86   C     C_3   0.139495 0.066055 0.450411 -0.106895
C87   C     C_3   0.357013 0.576651 0.551213 -0.111820
C88   C     C_3   0.615180 0.498911 0.467336 -0.101353
C89   C     C_R   0.742141 0.967583 0.148064 0.546516
C90   C     C_R   0.258005 0.970403 0.852474 0.547078
C91   C     C_R   0.242146 0.467563 0.148074 0.551099
C92   C     C_R   0.758009 0.470417 0.852482 0.542548
C93   C     C_3   0.874438 0.028018 0.453994 -0.243357
C94   C     C_3   0.148756 0.098768 0.528216 -0.248991
C95   C     C_3   0.348228 0.607528 0.472997 -0.246827
C96   C     C_3   0.624574 0.524813 0.546041 -0.245097
C97   C     C_R   0.756443 0.920833 0.423826 0.004071
C98   C     C_R   0.264280 0.991857 0.563697 0.003312
C99   C     C_R   0.235661 0.489106 0.436102 0.002649
C100  C     C_R   0.742757 0.418835 0.576503 0.004904
C101  C     C_R   0.710373 0.331346 0.359081 0.561526
C102  C     C_R   0.270496 0.379404 0.648378 0.544483
C103  C     C_R   0.229024 0.878232 0.352047 0.534723
C104  C     C_R   0.789681 0.830960 0.640707 0.566015
C105  C     C_R   0.532643 0.156258 0.353865 0.536029
C106  C     C_R   0.468172 0.157497 0.646847 0.543807
C107  C     C_R   0.034440 0.657009 0.355291 0.538196
C108  C     C_R   0.970237 0.656608 0.647970 0.541081
C109  C     C_R   0.741390 0.974281 0.355228 0.536747
C110  C     C_R   0.272183 0.022105 0.638499 0.554088
C111  C     C_R   0.228068 0.521110 0.361706 0.551713
C112  C     C_R   0.758286 0.473509 0.645014 0.537954
C113  C     C_R   0.496205 0.161408 0.925654 -0.001018
C114  C     C_R   0.502589 0.168818 0.074916 -0.001843
C115  C     C_R   0.996270 0.661420 0.925626 -0.001044
C116  C     C_R   0.002629 0.668807 0.074892 -0.001950
C117  C     C_R   0.511796 0.272605 0.959571 0.011497
C118  C     C_R   0.508712 0.278875 0.035034 0.030344
C119  C     C_R   0.011819 0.772626 0.959552 0.011606
C120  C     C_R   0.008732 0.778878 0.035017 0.030237
C121  C     C_R   0.488446 0.060569 0.039555 -0.169276
C122  C     C_R   0.487714 0.056262 0.966645 -0.155057
C123  C     C_R   0.988554 0.560544 0.039513 -0.168978
C124  C     C_R   0.987862 0.556244 0.966602 -0.155086
Cr1   Cr    Cr6+3 0.772010 0.169670 0.250090 0.999094
Cr2   Cr    Cr6+3 0.227990 0.169670 0.749910 0.992948
Cr3   Cr    Cr6+3 0.272010 0.669670 0.250090 0.997720
Cr4   Cr    Cr6+3 0.727990 0.669670 0.749910 0.995517
Cr5   Cr    Cr6+3 0.615000 0.323260 0.249260 0.990087
Cr6   Cr    Cr6+3 0.385000 0.323260 0.750740 0.985411
Cr7   Cr    Cr6+3 0.115000 0.823260 0.249260 0.990279
Cr8   Cr    Cr6+3 0.885000 0.823260 0.750740 0.985274
Cr9   Cr    Cr6+3 0.616710 0.010760 0.250840 0.997145
Cr10  Cr    Cr6+3 0.383290 0.010760 0.749160 0.986740
Cr11  Cr    Cr6+3 0.116710 0.510760 0.250840 0.994867
Cr12  Cr    Cr6+3 0.883290 0.510760 0.749160 0.988089
H1    H     H_    0.482724 0.975915 0.068186 0.130583
H2    H     H_    0.478503 0.968862 0.942491 0.137361
H3    H     H_    0.982871 0.475871 0.068132 0.130909
H4    H     H_    0.978746 0.468821 0.942434 0.137232
H5    H     H_    0.472435 0.342915 0.429283 0.115364
H6    H     H_    0.460812 0.351442 0.559176 0.131902
H7    H     H_    0.027158 0.859373 0.442173 0.120706
H8    H     H_    0.021025 0.856372 0.574704 0.115556
H9    H     H_    0.947748 0.419244 0.574461 0.165989
H10   H     H_    0.017347 0.371276 0.432221 0.133753
H11   H     H_    0.470960 0.906232 0.578768 0.152553
H12   H     H_    0.543450 0.869914 0.440960 0.124336
H13   H     H_    0.565119 0.887548 0.568155 0.125184
H14   H     H_    0.455966 0.928762 0.452987 0.127151
H15   H     H_    0.034630 0.359617 0.557653 0.113755
H16   H     H_    0.930199 0.445770 0.447106 0.136598
H17   H     H_    0.649454 0.884426 0.447038 0.139325
H18   H     H_    0.372938 0.959774 0.543070 0.129957
H19   H     H_    0.129286 0.430649 0.452032 0.143635
H20   H     H_    0.848759 0.374547 0.554405 0.125287
H21   H     H_    0.668811 0.812942 0.567816 0.128290
H22   H     H_    0.354283 0.886861 0.418482 0.116806
H23   H     H_    0.145472 0.375485 0.578922 0.122655
H24   H     H_    0.832069 0.316108 0.432268 0.130375
H25   H     H_    0.939136 0.972669 0.541778 0.112226
H26   H     H_    0.085128 0.035209 0.439502 0.111523
H27   H     H_    0.411654 0.548558 0.563122 0.113043
H28   H     H_    0.560932 0.469566 0.456059 0.119577
H29   H     H_    0.848764 0.115672 0.443320 0.156200
H30   H     H_    0.176540 0.184534 0.538176 0.151305
H31   H     H_    0.319178 0.691265 0.462114 0.154134
H32   H     H_    0.649741 0.612994 0.557850 0.153949
H33   H     H_    0.922050 0.010836 0.420917 0.109941
H34   H     H_    0.100255 0.085195 0.560666 0.113824
H35   H     H_    0.397323 0.596407 0.441260 0.115791
H36   H     H_    0.576607 0.505462 0.578311 0.114011
H37   H     H_    0.539010 0.374619 0.863579 0.134673
H38   H     H_    0.499366 0.408469 0.123101 0.133228
H39   H     H_    0.039007 0.874672 0.863565 0.134623
H40   H     H_    0.999365 0.908455 0.123092 0.132959
H41   H     H_    0.045986 0.070613 0.923044 0.105819
H42   H     H_    0.025385 0.086887 0.052653 0.100249
H43   H     H_    0.545997 0.570571 0.923040 0.105899
H44   H     H_    0.525396 0.586881 0.052647 0.100419
H45   H     H_    0.869050 0.942681 0.082508 0.130362
H46   H     H_    0.179578 0.087643 0.947822 0.145506
H47   H     H_    0.369054 0.442639 0.082518 0.130533
H48   H     H_    0.679516 0.587548 0.947809 0.145588
H49   H     H_    0.886735 0.893687 0.956883 0.153523
H50   H     H_    0.182116 0.066910 0.074583 0.137244
H51   H     H_    0.386738 0.393664 0.956887 0.153725
H52   H     H_    0.682041 0.566826 0.074563 0.137857
H53   H     H_    0.109084 0.280746 0.934092 0.124012
H54   H     H_    0.850491 0.170563 0.046111 0.157148
H55   H     H_    0.609085 0.780691 0.934099 0.124114
H56   H     H_    0.350316 0.670332 0.046086 0.157141
H57   H     H_    0.642237 0.938485 0.917286 0.157391
H58   H     H_    0.389029 0.826060 0.053609 0.122795
H59   H     H_    0.142258 0.438534 0.917295 0.155912
H60   H     H_    0.889052 0.326397 0.053664 0.123355
H61   H     H_    0.625612 0.986664 0.040375 0.167058
H62   H     H_    0.387602 0.842847 0.925563 0.152570
H63   H     H_    0.125642 0.486680 0.040391 0.166799
H64   H     H_    0.887646 0.343233 0.925625 0.152756
H65   H     H_    0.591417 0.829024 0.057074 0.128990
H66   H     H_    0.346755 0.688695 0.919341 0.150968
H67   H     H_    0.091421 0.329047 0.057073 0.128904
H68   H     H_    0.846976 0.188950 0.919369 0.151633
O1    O     O_R   0.787520 0.042810 0.170440 -0.528485
O2    O     O_R   0.212480 0.042810 0.829560 -0.535717
O3    O     O_R   0.287520 0.542810 0.170440 -0.526165
O4    O     O_R   0.712480 0.542810 0.829560 -0.538164
O5    O     O_R   0.556610 0.252880 0.323980 -0.520834
O6    O     O_R   0.443390 0.252880 0.676020 -0.510765
O7    O     O_R   0.056610 0.752880 0.323980 -0.509318
O8    O     O_R   0.943390 0.752880 0.676020 -0.519811
O9    O     O_R   0.545950 0.051210 0.330860 -0.519486
O10   O     O_R   0.454050 0.051210 0.669140 -0.532060
O11   O     O_R   0.045950 0.551210 0.330860 -0.525658
O12   O     O_R   0.954050 0.551210 0.669140 -0.526566
O13   O     O_R   0.681390 0.959480 0.325510 -0.511894
O14   O     O_R   0.318610 0.959480 0.674490 -0.515879
O15   O     O_R   0.181390 0.459480 0.325510 -0.519431
O16   O     O_R   0.818610 0.459480 0.674490 -0.511428
O17   O     O_3   0.667900 0.167900 0.250060 -0.263179
O18   O     O_3   0.332100 0.167900 0.749940 -0.280037
O19   O     O_3   0.167900 0.667900 0.250060 -0.260010
O20   O     O_3   0.832100 0.667900 0.749940 -0.282030
O21   O     O_R   0.765640 0.292100 0.175020 -0.495078
O22   O     O_R   0.234360 0.292100 0.824980 -0.501376
O23   O     O_R   0.265640 0.792100 0.175020 -0.499116
O24   O     O_R   0.734360 0.792100 0.824980 -0.495333
O25   O     O_R   0.670190 0.408840 0.168540 -0.519418
O26   O     O_R   0.329810 0.408840 0.831460 -0.522717
O27   O     O_R   0.170190 0.908840 0.168540 -0.522420
O28   O     O_R   0.829810 0.908840 0.831460 -0.517824
O29   O     O_R   0.556620 0.251410 0.175160 -0.509000
O30   O     O_R   0.443380 0.251410 0.824840 -0.524689
O31   O     O_R   0.056620 0.751410 0.175160 -0.507355
O32   O     O_R   0.943380 0.751410 0.824840 -0.526584
O33   O     O_R   0.545960 0.049620 0.170320 -0.525043
O34   O     O_R   0.454040 0.049620 0.829680 -0.523551
O35   O     O_R   0.045960 0.549620 0.170320 -0.524217
O36   O     O_R   0.954040 0.549620 0.829680 -0.524262
O37   O     O_R   0.681390 0.958010 0.176690 -0.496810
O38   O     O_R   0.318610 0.958010 0.823310 -0.498028
O39   O     O_R   0.181390 0.458010 0.176690 -0.495334
O40   O     O_R   0.818610 0.458010 0.823310 -0.499437
O41   O     O_R   0.787510 0.044390 0.330970 -0.531065
O42   O     O_R   0.212490 0.044390 0.669030 -0.519176
O43   O     O_R   0.287510 0.544390 0.330970 -0.520001
O44   O     O_R   0.712490 0.544390 0.669030 -0.529738
O45   O     O_R   0.765630 0.293570 0.323840 -0.516349
O46   O     O_R   0.234370 0.293570 0.676160 -0.519028
O47   O     O_R   0.265630 0.793570 0.323840 -0.524840
O48   O     O_R   0.734370 0.793570 0.676160 -0.508487
O49   O     O_R   0.670190 0.410420 0.329080 -0.529111
O50   O     O_R   0.329810 0.410420 0.670920 -0.523662
O51   O     O_R   0.170190 0.910420 0.329080 -0.528402
O52   O     O_R   0.829810 0.910420 0.670920 -0.522841
C125  C     C_3   0.863901 0.106149 0.582462 -0.240650
C126  C     C_3   0.784724 0.129509 0.592321 -0.372956
H69   H     H_    0.758579 0.142499 0.540394 0.159168
H70   H     H_    0.755764 0.058346 0.621058 0.184587
H71   H     H_    0.778069 0.209167 0.627327 0.137979
H72   H     H_    0.887984 0.092394 0.635424 0.170447
H73   H     H_    0.889907 0.188890 0.561717 0.113493
C127  C     C_3   0.164095 0.163074 0.395757 -0.249780
C128  C     C_3   0.242583 0.196784 0.396263 -0.392741
H74   H     H_    0.261692 0.215539 0.450831 0.158861
H75   H     H_    0.275134 0.125882 0.371051 0.145728
H76   H     H_    0.251619 0.277552 0.362826 0.169395
H77   H     H_    0.150564 0.132208 0.341301 0.167960
H78   H     H_    0.132281 0.245095 0.404751 0.136688
C129  C     C_3   0.329847 0.673052 0.604819 -0.250130
C130  C     C_3   0.250849 0.701373 0.602519 -0.389692
H79   H     H_    0.232837 0.719629 0.547581 0.157469
H80   H     H_    0.218876 0.627854 0.626328 0.148471
H81   H     H_    0.239618 0.781213 0.636122 0.169473
H82   H     H_    0.342684 0.643340 0.659632 0.168173
H83   H     H_    0.360188 0.757539 0.595650 0.148713
C131  C     C_3   0.637285 0.605948 0.418501 -0.240010
C132  C     C_3   0.716622 0.629540 0.409449 -0.376631
H84   H     H_    0.742409 0.642064 0.461656 0.157946
H85   H     H_    0.745242 0.558850 0.380304 0.179839
H86   H     H_    0.723998 0.709655 0.375040 0.136608
H87   H     H_    0.613523 0.593878 0.365187 0.168910
H88   H     H_    0.612153 0.688400 0.440131 0.111418

loop_
_geom_bond_atom_site_label_1
_geom_bond_atom_site_label_2
_ccdc_geom_bond_type
C87   H27   S    
C55   C56   A    
C88   C96   S    
C67   C83   A    
C127  H77   S    
C98   C110  S    
C116  C123  A    
C39   H67   S    
Cr2   O42   S    
C103  O51   A    
C14   C18   A    
C35   C39   S    
Cr8   O8    S    
C73   C93   S    
C72   C76   A    
C7    H39   S    
C94   H30   S    
C31   H51   S    
C84   H24   S    
C68   C84   A    
C75   C95   S    
C123  C124  A    
C74   C98   A    
C22   C42   A    
C53   C54   A    
C65   C69   A    
C15   C19   A    
Cr4   O20   S    
C108  O12   A    
C8    C120  A    
Cr4   O48   S    
C111  O15   A    
C64   H16   S    
C59   H7    S    
C36   H54   S    
C30   H50   S    
C13   C29   A    
C16   C20   A    
C65   C104  S    
C45   O29   A    
Cr2   O46   S    
C5    C11   A    
Cr7   O19   S    
C6    C12   A    
C82   H22   S    
Cr7   O51   S    
C107  O7    A    
Cr11  O19   S    
Cr6   O26   S    
C11   H43   S    
Cr7   O27   S    
C129  C130  S    
C22   C38   S    
C123  H3    S    
Cr2   O18   S    
C105  O5    A    
Cr6   O30   S    
C112  O44   A    
C125  C126  S    
C132  H86   S    
C121  H1    S    
C4    C13   S    
C19   C35   S    
C88   C131  S    
Cr3   O3    S    
C85   H25   S    
Cr10  O38   S    
C86   C94   S    
Cr9   O37   S    
C79   C99   A    
C114  C121  A    
C85   C93   S    
C45   C114  S    
C89   O1    A    
C113  C122  A    
C40   H68   S    
C52   C107  S    
Cr11  O35   S    
C127  C128  S    
Cr10  O18   S    
C55   C63   S    
C70   C74   A    
C50   C105  S    
Cr9   O17   S    
C132  H84   S    
C96   H32   S    
C69   C73   A    
C99   C111  S    
C86   H26   S    
C37   H61   S    
C128  H74   S    
Cr3   O47   S    
C44   C92   S    
Cr3   O19   S    
C58   H6    S    
C87   C129  S    
C34   H58   S    
C38   H66   S    
C46   O34   A    
C72   C88   S    
C109  O41   A    
C59   C60   A    
C35   H53   S    
C131  H88   S    
C80   C100  A    
Cr3   O23   S    
Cr10  O34   S    
Cr8   O20   S    
C38   H62   S    
Cr2   O22   S    
Cr9   O33   S    
C14   C30   A    
C2    O22   A    
Cr1   O21   S    
Cr8   O28   S    
C86   C127  S    
Cr11  O39   S    
C108  O8    A    
C25   H45   S    
C80   H20   S    
C47   O31   A    
C18   C34   S    
C130  H80   S    
C25   C29   A    
C129  H82   S    
C106  O10   A    
Cr11  O11   S    
C71   C75   A    
C105  O9    A    
C32   H52   S    
C27   C31   A    
C125  H72   S    
C10   H42   S    
C11   C12   A    
C20   C24   A    
C76   C100  A    
C28   C32   A    
Cr6   O18   S    
C81   H21   S    
C68   C101  S    
C122  H2    S    
Cr5   O17   S    
C21   C41   A    
C3    O27   A    
C80   C84   A    
Cr12  O40   S    
C78   H18   S    
C20   C36   S    
C6    H38   S    
C51   C55   A    
Cr7   O31   S    
C42   C90   S    
Cr10  O14   S    
C79   H19   S    
C15   C31   A    
C28   C44   A    
C43   C91   S    
C49   C58   A    
C116  C120  A    
Cr5   O29   S    
C68   C72   A    
C102  O50   A    
C34   C38   S    
C101  O49   A    
C19   C23   A    
C17   C21   A    
C36   H60   S    
C78   C98   A    
C92   O4    A    
C52   C59   A    
C7    C119  A    
C66   C82   A    
C97   C109  S    
C78   C82   A    
C65   C81   A    
Cr12  O20   S    
C36   C40   S    
Cr4   O24   S    
Cr3   O43   S    
Cr11  O15   S    
C46   O30   A    
C75   C99   A    
C112  O16   A    
Cr1   O17   S    
C83   H23   S    
C17   C33   S    
C1    C16   S    
C48   O32   A    
C93   H29   S    
Cr5   O25   S    
C77   C97   A    
C2    C15   S    
C128  H75   S    
C63   H15   S    
C121  C122  A    
C114  C118  A    
Cr4   O44   S    
C40   H64   S    
C4    O28   A    
C48   C115  S    
C71   C87   S    
Cr6   O50   S    
C111  O43   A    
C12   H44   S    
Cr5   O49   S    
C73   C97   A    
C115  C119  A    
C131  H87   S    
C90   O38   A    
C102  O46   A    
Cr7   O7    S    
C24   C44   A    
C89   O37   A    
Cr6   O6    S    
C126  H71   S    
C3    C14   S    
C130  H79   S    
C125  H73   S    
Cr5   O5    S    
C70   C86   S    
C3    O23   A    
C126  H70   S    
C77   H17   S    
C26   C42   A    
C33   C37   S    
C9    C10   A    
C113  C117  A    
C1    O21   A    
C104  O48   A    
C7    C9    A    
C27   C43   A    
C39   H63   S    
C87   C95   S    
C93   H33   S    
C127  H78   S    
C115  C124  A    
C62   H14   S    
C46   C113  S    
C64   H10   S    
C41   C89   S    
C18   C22   A    
C50   C57   A    
C5    H37   S    
C66   C103  S    
C69   C85   S    
C101  O45   A    
C124  H4    S    
C90   O2    A    
C91   O39   A    
C63   C64   S    
Cr1   O1    S    
C107  O11   A    
C95   H31   S    
C91   O3    A    
C119  C120  A    
C8    H40   S    
C100  C112  S    
C49   C106  S    
Cr12  O16   S    
C35   H59   S    
C16   C32   A    
C45   O33   A    
C54   C62   S    
C94   H34   S    
C48   O36   A    
C51   C108  S    
C104  O52   A    
C57   H5    S    
C33   H55   S    
Cr9   O9    S    
Cr8   O52   S    
Cr12  O36   S    
C126  H69   S    
C61   H11   S    
C103  O47   A    
C50   C54   A    
C88   H28   S    
C117  C118  A    
C60   H8    S    
C132  H85   S    
C79   C83   A    
C92   O40   A    
C110  O42   A    
C56   C64   S    
C66   C70   A    
C61   H13   S    
Cr1   O45   S    
Cr2   O2    S    
C130  H81   S    
C23   C39   S    
C34   H56   S    
C47   C116  S    
C26   H46   S    
C47   O35   A    
C29   H49   S    
C67   C71   A    
C53   C61   S    
C4    O24   A    
C28   H48   S    
C61   C62   S    
C110  O14   A    
C128  H76   S    
C27   H47   S    
C24   C40   S    
C49   C53   A    
C109  O13   A    
C2    O26   A    
C33   H57   S    
C13   C17   A    
Cr8   O32   S    
C1    O25   A    
C129  H83   S    
C21   C37   S    
C67   C102  S    
Cr10  O10   S    
C8    C10   A    
C77   C81   A    
C96   H36   S    
C5    C117  A    
C74   C94   S    
C37   H65   S    
C131  C132  S    
C25   C41   A    
C62   H12   S    
C51   C60   A    
Cr4   O4    S    
Cr1   O41   S    
C85   C125  S    
C57   C58   A    
C23   C43   A    
C95   H35   S    
C63   H9    S    
C76   C96   S    
C52   C56   A    
C9    H41   S    
C6    C118  A    
Cr9   O13   S    
Cr12  O12   S    
C26   C30   A    
C106  O6    A    
