data_mof_unit_64525.cif
_audit_creation_date              2012-12-10T18:01:57-0500
_audit_creation_method            fapswitch 2.2
_symmetry_space_group_name_H-M    P1
_symmetry_Int_Tables_number       1
_space_group_crystal_system       triclinic
_cell_length_a                    21.744144
_cell_length_b                    21.7444
_cell_length_c                    47.270317
_cell_angle_alpha                 90.000405
_cell_angle_beta                  90.000756
_cell_angle_gamma                 90.000376
_cell_volume                      22350.0376326

loop_
_atom_site_label
_atom_site_type_symbol
_atom_type_description
_atom_site_fract_x
_atom_site_fract_y
_atom_site_fract_z
_atom_type_partial_charge
C1    C     C_R   0.998021 0.881310 0.999873 0.816973
C2    C     C_R   0.118688 0.998025 0.999874 0.816964
C3    C     C_R   0.001979 0.118689 0.999873 0.816975
C4    C     C_R   0.881312 0.001975 0.999873 0.816965
C5    C     C_R   0.498023 0.381311 0.499873 0.816971
C6    C     C_R   0.618689 0.498022 0.499874 0.816980
C7    C     C_R   0.501977 0.618689 0.499873 0.816971
C8    C     C_R   0.381311 0.501977 0.499873 0.816980
C9    C     C_R   0.684554 0.000536 0.998659 -0.143467
C10   C     C_R   0.999467 0.684551 0.998662 -0.143345
C11   C     C_R   0.315446 0.999464 0.998660 -0.143466
C12   C     C_R   0.000532 0.315449 0.998663 -0.143345
C13   C     C_R   0.184552 0.500534 0.498661 -0.143398
C14   C     C_R   0.499467 0.184553 0.498660 -0.143458
C15   C     C_R   0.815448 0.499466 0.498661 -0.143400
C16   C     C_R   0.500533 0.815447 0.498660 -0.143456
C17   C     C_R   0.719014 0.968159 0.018193 -0.052567
C18   C     C_R   0.031738 0.719010 0.018234 -0.052613
C19   C     C_R   0.280987 0.031839 0.018194 -0.052568
C20   C     C_R   0.968263 0.280990 0.018234 -0.052612
C21   C     C_R   0.219012 0.468226 0.518219 -0.052606
C22   C     C_R   0.531780 0.219012 0.518217 -0.052781
C23   C     C_R   0.780989 0.531775 0.518219 -0.052605
C24   C     C_R   0.468223 0.780989 0.518218 -0.052782
C25   C     C_3   0.713982 0.928911 0.043969 -0.474210
C26   C     C_3   0.070862 0.713978 0.044049 -0.474382
C27   C     C_3   0.286020 0.071086 0.043971 -0.474212
C28   C     C_3   0.929139 0.286023 0.044049 -0.474379
C29   C     C_3   0.213981 0.429045 0.544016 -0.474298
C30   C     C_3   0.570957 0.213980 0.544015 -0.474239
C31   C     C_3   0.786022 0.570958 0.544016 -0.474296
C32   C     C_3   0.429051 0.786021 0.544017 -0.474245
C33   C     C_3   0.784989 0.930937 0.044668 0.385210
C34   C     C_3   0.068833 0.784983 0.044746 0.385323
C35   C     C_3   0.215014 0.069059 0.044670 0.385212
C36   C     C_3   0.931168 0.215018 0.044746 0.385321
C37   C     C_3   0.284987 0.431072 0.544713 0.385278
C38   C     C_3   0.568930 0.284985 0.544713 0.385318
C39   C     C_3   0.715016 0.568931 0.544713 0.385275
C40   C     C_3   0.431078 0.715016 0.544715 0.385325
C41   C     C_R   0.033719 0.455130 0.100665 -0.069786
C42   C     C_R   0.544858 0.033735 0.100667 -0.069779
C43   C     C_R   0.966283 0.544871 0.100665 -0.069786
C44   C     C_R   0.455140 0.966266 0.100666 -0.069778
C45   C     C_R   0.533965 0.955314 0.600676 -0.069695
C46   C     C_R   0.044870 0.533719 0.600666 -0.069748
C47   C     C_R   0.466038 0.044685 0.600676 -0.069696
C48   C     C_R   0.955129 0.466282 0.600665 -0.069747
C49   C     C_R   0.500000 1.000000 0.945276 0.856911
C50   C     C_R   1.000000 0.500000 0.945275 0.856739
C51   C     C_R   0.000000 0.500000 0.445275 0.856696
C52   C     C_R   0.500000 1.000000 0.445275 0.856726
C53   C     C_R   0.618518 0.000145 0.999989 0.843434
C54   C     C_R   0.999855 0.618517 0.999991 0.843490
C55   C     C_R   0.381482 0.999854 0.999990 0.843435
C56   C     C_R   0.000145 0.381483 0.999992 0.843493
C57   C     C_R   0.118517 0.500145 0.499990 0.843468
C58   C     C_R   0.499855 0.118518 0.499989 0.843393
C59   C     C_R   0.881483 0.499855 0.499990 0.843469
C60   C     C_R   0.500145 0.881482 0.499990 0.843397
C61   C     C_R   0.500000 0.000000 0.054311 0.780713
C62   C     C_R   0.000000 0.500000 0.054310 0.780733
C63   C     C_R   0.000000 0.500000 0.554311 0.780712
C64   C     C_R   0.500000 0.000000 0.554313 0.780552
C65   C     C_R   0.948187 0.481988 0.189739 0.567285
C66   C     C_R   0.518131 0.948230 0.189739 0.567298
C67   C     C_R   0.051816 0.518010 0.189740 0.567286
C68   C     C_R   0.481864 0.051771 0.189739 0.567297
C69   C     C_R   0.448530 0.981035 0.689741 0.567371
C70   C     C_R   0.018193 0.448251 0.689738 0.567319
C71   C     C_R   0.551476 0.018960 0.689742 0.567370
C72   C     C_R   0.981805 0.551751 0.689738 0.567319
C73   C     C_R   0.052749 0.518584 0.219486 -0.070392
C74   C     C_R   0.481285 0.052703 0.219486 -0.070399
C75   C     C_R   0.947254 0.481413 0.219485 -0.070392
C76   C     C_R   0.518710 0.947298 0.219485 -0.070404
C77   C     C_R   0.552397 0.019562 0.719489 -0.070496
C78   C     C_R   0.981225 0.552681 0.719484 -0.070423
C79   C     C_R   0.447609 0.980432 0.719488 -0.070500
C80   C     C_R   0.018773 0.447320 0.719484 -0.070429
C81   C     C_R   0.500002 0.999997 0.853791 0.133010
C82   C     C_R   0.999997 0.499999 0.853787 0.132839
C83   C     C_R   0.000001 0.499997 0.353788 0.132809
C84   C     C_R   0.499997 1.000000 0.353788 0.132836
C85   C     C_R   0.000002 0.499998 0.234487 -0.018199
C86   C     C_R   0.499997 0.000000 0.234487 -0.018198
C87   C     C_R   0.500003 0.999997 0.734490 -0.018194
C88   C     C_R   0.999998 0.500000 0.734486 -0.018194
C89   C     C_R   0.105081 0.537509 0.234408 -0.241933
C90   C     C_R   0.462232 0.104988 0.234407 -0.241934
C91   C     C_R   0.894923 0.462487 0.234406 -0.241933
C92   C     C_R   0.537763 0.895012 0.234407 -0.241924
C93   C     C_R   0.604367 0.039468 0.734411 -0.241835
C94   C     C_R   0.962112 0.604943 0.734406 -0.241903
C95   C     C_R   0.395641 0.960524 0.734409 -0.241829
C96   C     C_R   0.037886 0.395058 0.734406 -0.241890
C97   C     C_R   0.604577 0.041457 0.764035 0.496923
C98   C     C_R   0.960127 0.605184 0.764030 0.496913
C99   C     C_R   0.395431 0.958533 0.764033 0.496923
C100  C     C_R   0.039870 0.394817 0.764030 0.496912
C101  C     C_R   0.105329 0.539493 0.264032 0.496856
C102  C     C_R   0.460245 0.105231 0.264031 0.496860
C103  C     C_R   0.894675 0.460501 0.264030 0.496859
C104  C     C_R   0.539750 0.894770 0.264031 0.496858
C105  C     C_R   0.552612 0.020506 0.779379 -0.100285
C106  C     C_R   0.980277 0.552907 0.779375 -0.100234
C107  C     C_R   0.447395 0.979485 0.779378 -0.100293
C108  C     C_R   0.019718 0.447092 0.779375 -0.100244
C109  C     C_R   0.052979 0.519531 0.279376 -0.100216
C110  C     C_R   0.480335 0.052930 0.279376 -0.100217
C111  C     C_R   0.947025 0.480463 0.279375 -0.100218
C112  C     C_R   0.519658 0.947070 0.279376 -0.100223
C113  C     C_R   0.500003 0.999996 0.764452 -0.141610
C114  C     C_R   0.999998 0.500000 0.764449 -0.141674
C115  C     C_R   0.000002 0.499998 0.264450 -0.141683
C116  C     C_R   0.499997 0.000000 0.264450 -0.141673
C117  C     C_R   0.551272 0.019722 0.809222 0.585361
C118  C     C_R   0.981020 0.551549 0.809218 0.585338
C119  C     C_R   0.448735 0.980269 0.809221 0.585356
C120  C     C_R   0.018973 0.448449 0.809218 0.585328
C121  C     C_R   0.051617 0.518798 0.309220 0.585307
C122  C     C_R   0.481074 0.051570 0.309219 0.585324
C123  C     C_R   0.948387 0.481195 0.309219 0.585308
C124  C     C_R   0.518918 0.948429 0.309219 0.585315
C125  C     C_R   0.519863 0.947802 0.868651 -0.094541
C126  C     C_R   0.052296 0.519586 0.868647 -0.094682
C127  C     C_R   0.480141 0.052193 0.868650 -0.094543
C128  C     C_R   0.947699 0.480412 0.868646 -0.094679
C129  C     C_R   0.019590 0.447700 0.368648 -0.094716
C130  C     C_R   0.552286 0.019614 0.368647 -0.094694
C131  C     C_R   0.980413 0.552296 0.368647 -0.094717
C132  C     C_R   0.447709 0.980386 0.368647 -0.094691
C133  C     C_R   0.517178 0.946399 0.898424 0.338757
C134  C     C_R   0.053684 0.516907 0.898419 0.338897
C135  C     C_R   0.482825 0.053597 0.898424 0.338756
C136  C     C_R   0.946312 0.483091 0.898419 0.338895
C137  C     C_R   0.016913 0.446314 0.398420 0.338908
C138  C     C_R   0.553675 0.016937 0.398420 0.338892
C139  C     C_R   0.983089 0.553683 0.398420 0.338910
C140  C     C_R   0.446321 0.983063 0.398420 0.338888
C141  C     C_R   0.500001 0.999999 0.913670 -0.277630
C142  C     C_R   0.999999 0.499999 0.913667 -0.277737
C143  C     C_R   0.000001 0.499999 0.413668 -0.277702
C144  C     C_R   0.499999 1.000000 0.413668 -0.277702
C145  C     C_R   0.033562 0.455575 0.130267 -0.133848
C146  C     C_R   0.544411 0.033578 0.130269 -0.133897
C147  C     C_R   0.966442 0.544426 0.130267 -0.133847
C148  C     C_R   0.455586 0.966423 0.130268 -0.133897
C149  C     C_R   0.533814 0.955767 0.630278 -0.134165
C150  C     C_R   0.044424 0.533563 0.630268 -0.133910
C151  C     C_R   0.466190 0.044231 0.630279 -0.134164
C152  C     C_R   0.955575 0.466439 0.630267 -0.133912
C153  C     C_R   0.000001 0.500000 0.085544 -0.113790
C154  C     C_R   0.499999 0.000001 0.085545 -0.113811
C155  C     C_R   0.500001 1.000000 0.585551 -0.113985
C156  C     C_R   1.000000 0.500001 0.585544 -0.113795
C157  C     C_R   0.000002 0.500000 0.145108 0.317397
C158  C     C_R   0.499998 0.000001 0.145109 0.317502
C159  C     C_R   0.500002 0.999999 0.645117 0.318081
C160  C     C_R   0.999999 0.500001 0.645108 0.317556
C161  C     C_R   0.780993 0.970382 0.018616 -0.004563
C162  C     C_R   0.029514 0.780989 0.018652 -0.004458
C163  C     C_R   0.219008 0.029616 0.018617 -0.004561
C164  C     C_R   0.970486 0.219011 0.018653 -0.004460
C165  C     C_R   0.280991 0.470448 0.518639 -0.004487
C166  C     C_R   0.529557 0.280991 0.518637 -0.004538
C167  C     C_R   0.719010 0.529553 0.518639 -0.004488
C168  C     C_R   0.470446 0.719010 0.518638 -0.004534
C169  C     C_R   0.814800 0.004080 0.999236 -0.208936
C170  C     C_R   0.995916 0.814797 0.999235 -0.208940
C171  C     C_R   0.185199 0.995919 0.999237 -0.208936
C172  C     C_R   0.004084 0.185203 0.999236 -0.208941
C173  C     C_R   0.314799 0.504084 0.499236 -0.208974
C174  C     C_R   0.495917 0.314799 0.499236 -0.208957
C175  C     C_R   0.685201 0.495915 0.499237 -0.208969
C176  C     C_R   0.504084 0.685201 0.499236 -0.208960
C177  C     C_R   0.781530 0.037503 0.978321 -0.143563
C178  C     C_R   0.962598 0.781522 0.978284 -0.143552
C179  C     C_R   0.218469 0.962496 0.978321 -0.143562
C180  C     C_R   0.037403 0.218477 0.978285 -0.143550
C181  C     C_R   0.281526 0.537442 0.478299 -0.143572
C182  C     C_R   0.462555 0.281526 0.478299 -0.143561
C183  C     C_R   0.718473 0.462555 0.478300 -0.143570
C184  C     C_R   0.537442 0.718473 0.478299 -0.143562
C185  C     C_R   0.716282 0.035061 0.977851 0.429122
C186  C     C_R   0.965052 0.716275 0.977815 0.429083
C187  C     C_R   0.283717 0.964939 0.977851 0.429121
C188  C     C_R   0.034948 0.283724 0.977816 0.429084
C189  C     C_R   0.216278 0.534988 0.477828 0.429135
C190  C     C_R   0.465008 0.216279 0.477828 0.429162
C191  C     C_R   0.783720 0.465009 0.477829 0.429136
C192  C     C_R   0.534989 0.783720 0.477828 0.429160
Cu1   Cu    Cu3+1 0.000000 0.000000 0.028100 1.008386
Cu2   Cu    Cu3+1 0.500000 0.500000 0.528100 1.008366
Cu3   Cu    Cu3+1 0.000000 0.000000 0.971820 1.023098
Cu4   Cu    Cu3+1 0.500000 0.500000 0.471820 1.023033
Cu5   Cu    Cu3+1 0.500040 0.061910 0.999920 1.012798
Cu6   Cu    Cu3+1 0.938090 0.500040 0.999920 1.012853
Cu7   Cu    Cu3+1 0.499960 0.938090 0.999920 1.012799
Cu8   Cu    Cu3+1 0.061910 0.499960 0.999920 1.012853
Cu9   Cu    Cu3+1 0.000040 0.561910 0.499920 1.012870
Cu10  Cu    Cu3+1 0.438090 0.000040 0.499920 1.012885
Cu11  Cu    Cu3+1 0.999960 0.438090 0.499920 1.012872
Cu12  Cu    Cu3+1 0.561910 0.999960 0.499920 1.012886
H1    H     H_    0.059064 0.421026 0.141921 0.149429
H2    H     H_    0.578948 0.059095 0.141924 0.149370
H3    H     H_    0.940939 0.578974 0.141921 0.149429
H4    H     H_    0.421048 0.940907 0.141922 0.149370
H5    H     H_    0.559515 0.921371 0.641935 0.149053
H6    H     H_    0.078970 0.559067 0.641924 0.149338
H7    H     H_    0.440489 0.078627 0.641936 0.149054
H8    H     H_    0.921029 0.440935 0.641923 0.149337
H9    H     H_    0.692137 0.953819 0.061879 0.174495
H10   H     H_    0.045868 0.692133 0.061934 0.174555
H11   H     H_    0.307867 0.046176 0.061881 0.174495
H12   H     H_    0.954134 0.307869 0.061934 0.174554
H13   H     H_    0.192136 0.454001 0.561913 0.174540
H14   H     H_    0.545997 0.192135 0.561911 0.174448
H15   H     H_    0.807867 0.546003 0.561913 0.174540
H16   H     H_    0.454013 0.807868 0.561912 0.174449
H17   H     H_    0.694098 0.882952 0.039285 0.219019
H18   H     H_    0.116844 0.694093 0.039413 0.219017
H19   H     H_    0.305905 0.117045 0.039288 0.219018
H20   H     H_    0.883157 0.305909 0.039412 0.219017
H21   H     H_    0.194095 0.383074 0.539358 0.219022
H22   H     H_    0.616929 0.194095 0.539359 0.219060
H23   H     H_    0.805908 0.616928 0.539358 0.219022
H24   H     H_    0.383078 0.805907 0.539363 0.219059
H25   H     H_    0.803064 0.957081 0.063087 0.118702
H26   H     H_    0.042600 0.803059 0.063138 0.118727
H27   H     H_    0.196940 0.042914 0.063089 0.118701
H28   H     H_    0.957401 0.196943 0.063138 0.118729
H29   H     H_    0.303064 0.457264 0.563117 0.118710
H30   H     H_    0.542735 0.303061 0.563116 0.118683
H31   H     H_    0.696940 0.542740 0.563118 0.118708
H32   H     H_    0.457276 0.696941 0.563118 0.118681
H33   H     H_    0.146291 0.551233 0.223181 0.203160
H34   H     H_    0.448408 0.146164 0.223180 0.203155
H35   H     H_    0.853713 0.448763 0.223178 0.203160
H36   H     H_    0.551589 0.853837 0.223179 0.203160
H37   H     H_    0.645311 0.053973 0.723184 0.203183
H38   H     H_    0.948238 0.646102 0.723179 0.203167
H39   H     H_    0.354697 0.946016 0.723182 0.203187
H40   H     H_    0.051763 0.353899 0.723178 0.203173
N1    N     N_R   0.000002 0.500000 0.175520 -0.462094
N2    N     N_R   0.499998 0.000001 0.175521 -0.462112
N3    N     N_R   0.500002 0.999998 0.675526 -0.462210
N4    N     N_R   0.999999 0.500001 0.675520 -0.462131
N5    N     N_R   0.500003 0.999996 0.823287 -0.459308
N6    N     N_R   0.999997 0.499999 0.823283 -0.459377
N7    N     N_R   0.000002 0.499997 0.323284 -0.459390
N8    N     N_R   0.499996 1.000000 0.323284 -0.459381
O1    O     O_R   0.000030 0.909910 0.023730 -0.574931
O2    O     O_R   0.090090 0.000030 0.023730 -0.574960
O3    O     O_R   0.999970 0.090090 0.023730 -0.574932
O4    O     O_R   0.909910 0.999970 0.023730 -0.574961
O5    O     O_R   0.500030 0.409910 0.523730 -0.574951
O6    O     O_R   0.590090 0.500030 0.523730 -0.574944
O7    O     O_R   0.499970 0.590090 0.523730 -0.574949
O8    O     O_R   0.409910 0.499970 0.523730 -0.574943
O9    O     O_R   0.000060 0.909970 0.976200 -0.579414
O10   O     O_R   0.090030 0.000060 0.976200 -0.579415
O11   O     O_R   0.999940 0.090030 0.976200 -0.579413
O12   O     O_R   0.909970 0.999940 0.976200 -0.579416
O13   O     O_R   0.500060 0.409970 0.476200 -0.579419
O14   O     O_R   0.590030 0.500060 0.476200 -0.579423
O15   O     O_R   0.499940 0.590030 0.476200 -0.579420
O16   O     O_R   0.409970 0.499940 0.476200 -0.579423
O17   O     O_R   0.500060 0.052300 0.958860 -0.551012
O18   O     O_R   0.947700 0.500060 0.958860 -0.550843
O19   O     O_R   0.499940 0.947700 0.958860 -0.551012
O20   O     O_R   0.052300 0.499940 0.958860 -0.550842
O21   O     O_R   0.000060 0.552300 0.458860 -0.550848
O22   O     O_R   0.447700 0.000060 0.458860 -0.550861
O23   O     O_R   0.999940 0.447700 0.458860 -0.550849
O24   O     O_R   0.552300 0.999940 0.458860 -0.550860
O25   O     O_R   0.590210 0.052300 0.999920 -0.550213
O26   O     O_R   0.947700 0.590210 0.999920 -0.550340
O27   O     O_R   0.409790 0.947700 0.999920 -0.550212
O28   O     O_R   0.052300 0.409790 0.999920 -0.550339
O29   O     O_R   0.090210 0.552300 0.499920 -0.550311
O30   O     O_R   0.447700 0.090210 0.499920 -0.550316
O31   O     O_R   0.909790 0.447700 0.499920 -0.550309
O32   O     O_R   0.552300 0.909790 0.499920 -0.550316
O33   O     O_R   0.590210 0.947930 0.999950 -0.593604
O34   O     O_R   0.052070 0.590210 0.999950 -0.593655
O35   O     O_R   0.409790 0.052070 0.999950 -0.593605
O36   O     O_R   0.947930 0.409790 0.999950 -0.593655
O37   O     O_R   0.090210 0.447930 0.499950 -0.593641
O38   O     O_R   0.552070 0.090210 0.499950 -0.593600
O39   O     O_R   0.909790 0.552070 0.499950 -0.593642
O40   O     O_R   0.447930 0.909790 0.499950 -0.593601
O41   O     O_R   0.500010 0.052300 0.040980 -0.577515
O42   O     O_R   0.947700 0.500010 0.040980 -0.577514
O43   O     O_R   0.499990 0.947700 0.040980 -0.577515
O44   O     O_R   0.052300 0.499990 0.040980 -0.577515
O45   O     O_R   0.000010 0.552300 0.540980 -0.577508
O46   O     O_R   0.447700 0.000010 0.540980 -0.577497
O47   O     O_R   0.999990 0.447700 0.540980 -0.577507
O48   O     O_R   0.552300 0.999990 0.540980 -0.577498
O49   O     O_2   0.897929 0.464174 0.175130 -0.529226
O50   O     O_2   0.536061 0.898014 0.175130 -0.529208
O51   O     O_2   0.102074 0.535826 0.175132 -0.529226
O52   O     O_2   0.463935 0.101987 0.175131 -0.529209
O53   O     O_2   0.398605 0.962324 0.675129 -0.529077
O54   O     O_2   0.036180 0.398056 0.675129 -0.529172
O55   O     O_2   0.601400 0.037672 0.675131 -0.529077
O56   O     O_2   0.963819 0.601946 0.675129 -0.529174
O57   O     O_2   0.600591 0.038388 0.824251 -0.487106
O58   O     O_2   0.963048 0.601126 0.824246 -0.487026
O59   O     O_2   0.399415 0.961604 0.824249 -0.487105
O60   O     O_2   0.036943 0.398871 0.824246 -0.487034
O61   O     O_2   0.101253 0.536608 0.324248 -0.487038
O62   O     O_2   0.463152 0.101164 0.324247 -0.487042
O63   O     O_2   0.898751 0.463385 0.324246 -0.487036
O64   O     O_2   0.536839 0.898834 0.324247 -0.487048
O65   O     O_3   0.657379 0.060481 0.777799 -0.528401
C193  C     C_3   0.659976 0.125278 0.776990 -0.209349
H41   H     H_    0.700171 0.140639 0.789594 0.203053
H42   H     H_    0.618179 0.146289 0.786604 0.157021
H43   H     H_    0.666480 0.142368 0.755012 0.140982
O66   O     O_3   0.941933 0.658273 0.777797 -0.528408
C194  C     C_3   0.877189 0.661921 0.776959 -0.209290
H44   H     H_    0.862459 0.702333 0.789574 0.203079
H45   H     H_    0.855476 0.620449 0.786542 0.156945
H46   H     H_    0.860260 0.668750 0.754976 0.141016
O67   O     O_3   0.342631 0.939501 0.777797 -0.528400
C195  C     C_3   0.340047 0.874703 0.776989 -0.209350
H47   H     H_    0.299852 0.859337 0.789591 0.203053
H48   H     H_    0.381846 0.853702 0.786605 0.157022
H49   H     H_    0.333551 0.857610 0.755011 0.140980
O68   O     O_3   0.058068 0.341728 0.777795 -0.528411
C196  C     C_3   0.122813 0.338095 0.776965 -0.209283
H50   H     H_    0.137545 0.297680 0.789578 0.203076
H51   H     H_    0.144511 0.379567 0.786556 0.156955
H52   H     H_    0.139755 0.331281 0.754983 0.141009
O69   O     O_3   0.158486 0.557492 0.277799 -0.528488
C197  C     C_3   0.162374 0.622221 0.276961 -0.209173
H53   H     H_    0.202840 0.636802 0.289577 0.203105
H54   H     H_    0.120983 0.644087 0.286543 0.156963
H55   H     H_    0.169268 0.639124 0.254978 0.141051
O70   O     O_3   0.442114 0.158343 0.277798 -0.528482
C198  C     C_3   0.377375 0.162074 0.276957 -0.209190
H56   H     H_    0.362693 0.202503 0.289573 0.203101
H57   H     H_    0.355607 0.120629 0.286538 0.156967
H58   H     H_    0.360459 0.168929 0.254973 0.141048
O71   O     O_3   0.841519 0.442501 0.277796 -0.528487
C199  C     C_3   0.837632 0.377772 0.276956 -0.209177
H59   H     H_    0.797165 0.363189 0.289572 0.203105
H60   H     H_    0.879023 0.355905 0.286539 0.156962
H61   H     H_    0.830738 0.360871 0.254973 0.141051
O72   O     O_3   0.557883 0.841658 0.277797 -0.528484
C200  C     C_3   0.622624 0.837938 0.276962 -0.209185
H62   H     H_    0.637307 0.797507 0.289575 0.203099
H63   H     H_    0.644380 0.879383 0.286548 0.156974
H64   H     H_    0.639549 0.831094 0.254979 0.141043
C201  C     C_1   0.543488 0.895475 0.853219 0.347792
N9    N     N_1   0.562388 0.853645 0.840830 -0.271551
C202  C     C_1   0.104760 0.542903 0.853213 0.348142
N10   N     N_1   0.146698 0.561558 0.840823 -0.271252
C203  C     C_1   0.456517 0.104519 0.853217 0.347794
N11   N     N_1   0.437618 0.146349 0.840828 -0.271549
C204  C     C_1   0.895235 0.457093 0.853213 0.348152
N12   N     N_1   0.853296 0.438438 0.840822 -0.271248
C205  C     C_1   0.042901 0.395233 0.353214 0.348206
N13   N     N_1   0.061551 0.353293 0.340824 -0.271151
C206  C     C_1   0.604739 0.042955 0.353214 0.348143
N14   N     N_1   0.646669 0.061629 0.340823 -0.271207
C207  C     C_1   0.957102 0.604762 0.353213 0.348206
N15   N     N_1   0.938453 0.646702 0.340823 -0.271152
C208  C     C_1   0.395255 0.957044 0.353213 0.348149
N16   N     N_1   0.353325 0.938371 0.340823 -0.271205
O73   O     O_3   0.536403 0.894160 0.912664 -0.558744
C209  C     C_3   0.487222 0.851748 0.913515 -0.206066
H65   H     H_    0.501102 0.812134 0.926847 0.185163
H66   H     H_    0.476260 0.833644 0.892121 0.149261
H67   H     H_    0.445239 0.872162 0.923182 0.168825
O74   O     O_3   0.106024 0.535880 0.912653 -0.558509
C210  C     C_3   0.148171 0.486475 0.913529 -0.206250
H68   H     H_    0.187907 0.500210 0.926816 0.185267
H69   H     H_    0.166140 0.475294 0.892134 0.149027
H70   H     H_    0.127558 0.444662 0.923260 0.169138
O75   O     O_3   0.463600 0.105838 0.912663 -0.558743
C211  C     C_3   0.512782 0.148249 0.913515 -0.206068
H71   H     H_    0.498901 0.187864 0.926846 0.185165
H72   H     H_    0.523746 0.166351 0.892121 0.149261
H73   H     H_    0.554764 0.127834 0.923184 0.168827
O76   O     O_3   0.893974 0.464117 0.912653 -0.558511
C212  C     C_3   0.851826 0.513522 0.913528 -0.206255
H74   H     H_    0.812089 0.499785 0.926814 0.185266
H75   H     H_    0.833858 0.524705 0.892134 0.149027
H76   H     H_    0.872438 0.555334 0.923262 0.169144
O77   O     O_3   0.035895 0.393979 0.412654 -0.558494
C213  C     C_3   0.986495 0.351824 0.413531 -0.206284
H77   H     H_    0.000240 0.312090 0.426816 0.185300
H78   H     H_    0.975311 0.333855 0.392137 0.148991
H79   H     H_    0.944682 0.372430 0.423266 0.169110
O78   O     O_3   0.606003 0.035942 0.412655 -0.558526
C214  C     C_3   0.648183 0.986564 0.413529 -0.206250
H80   H     H_    0.687908 0.000324 0.426818 0.185286
H81   H     H_    0.666162 0.975399 0.392135 0.149028
H82   H     H_    0.627597 0.944736 0.423259 0.169091
O79   O     O_3   0.964107 0.606019 0.412653 -0.558493
C215  C     C_3   0.013507 0.648173 0.413531 -0.206286
H83   H     H_    0.999763 0.687907 0.426817 0.185301
H84   H     H_    0.024692 0.666143 0.392138 0.148992
H85   H     H_    0.055320 0.627566 0.423266 0.169112
O80   O     O_3   0.393995 0.964058 0.412654 -0.558528
C216  C     C_3   0.351815 0.013435 0.413530 -0.206249
H86   H     H_    0.312091 0.999676 0.426818 0.185286
H87   H     H_    0.333833 0.024599 0.392135 0.149030
H88   H     H_    0.372402 0.055264 0.423259 0.169090
C217  C     C_1   0.812823 0.076001 0.957933 0.317139
N17   N     N_1   0.837822 0.106859 0.941633 -0.262685
C218  C     C_1   0.924195 0.812806 0.957855 0.317283
N18   N     N_1   0.893412 0.837797 0.941522 -0.262714
C219  C     C_1   0.187175 0.923998 0.957933 0.317141
N19   N     N_1   0.162175 0.893140 0.941633 -0.262684
C220  C     C_1   0.075808 0.187193 0.957857 0.317280
N20   N     N_1   0.106592 0.162201 0.941526 -0.262717
C221  C     C_1   0.312813 0.575886 0.457888 0.317240
N21   N     N_1   0.337808 0.606700 0.441569 -0.262764
C222  C     C_1   0.424109 0.312814 0.457889 0.317227
N22   N     N_1   0.393291 0.337809 0.441571 -0.262750
C223  C     C_1   0.687184 0.424109 0.457889 0.317230
N23   N     N_1   0.662188 0.393292 0.441571 -0.262767
C224  C     C_1   0.575887 0.687184 0.457888 0.317230
N24   N     N_1   0.606702 0.662189 0.441570 -0.262749
O81   O     O_3   0.683853 0.068364 0.957834 -0.575902
C225  C     C_3   0.671886 0.029633 0.934531 -0.271882
H89   H     H_    0.642474 0.989913 0.940641 0.156492
H90   H     H_    0.715296 0.013053 0.924647 0.177330
H91   H     H_    0.646510 0.056307 0.918295 0.185895
O82   O     O_3   0.931878 0.683844 0.957754 -0.576130
C226  C     C_3   0.970749 0.671918 0.934496 -0.272347
H92   H     H_    0.010413 0.642470 0.940646 0.156611
H93   H     H_    0.987416 0.715342 0.924656 0.177442
H94   H     H_    0.944165 0.646600 0.918209 0.185827
O83   O     O_3   0.316144 0.931637 0.957834 -0.575902
C227  C     C_3   0.328109 0.970368 0.934531 -0.271884
H95   H     H_    0.357521 0.010087 0.940641 0.156493
H96   H     H_    0.284697 0.986948 0.924648 0.177328
H97   H     H_    0.353483 0.943694 0.918294 0.185901
O84   O     O_3   0.068122 0.316154 0.957755 -0.576129
C228  C     C_3   0.029251 0.328077 0.934496 -0.272352
H98   H     H_    0.989586 0.357524 0.940645 0.156614
H99   H     H_    0.012586 0.284651 0.924656 0.177442
H100  H     H_    0.055835 0.353395 0.918210 0.185825
O85   O     O_3   0.183849 0.568192 0.457777 -0.576078
C229  C     C_3   0.171935 0.529360 0.434503 -0.272348
H101  H     H_    0.142482 0.489687 0.440636 0.156570
H102  H     H_    0.215364 0.512708 0.424663 0.177407
H103  H     H_    0.146626 0.555970 0.418224 0.185796
O86   O     O_3   0.431796 0.183851 0.457780 -0.576064
C230  C     C_3   0.470624 0.171927 0.434505 -0.272286
H104  H     H_    0.510297 0.142475 0.440639 0.156565
H105  H     H_    0.487275 0.215352 0.424661 0.177393
H106  H     H_    0.444008 0.146614 0.418228 0.185810
O87   O     O_3   0.816148 0.431804 0.457779 -0.576076
C231  C     C_3   0.828060 0.470634 0.434504 -0.272350
H107  H     H_    0.857512 0.510308 0.440636 0.156567
H108  H     H_    0.784629 0.487285 0.424664 0.177405
H109  H     H_    0.853367 0.444022 0.418224 0.185799
O88   O     O_3   0.568199 0.816148 0.457779 -0.576064
C232  C     C_3   0.529370 0.828070 0.434505 -0.272294
H110  H     H_    0.489697 0.857521 0.440639 0.156569
H111  H     H_    0.512719 0.784644 0.424661 0.177394
H112  H     H_    0.555985 0.853383 0.418228 0.185814
O89   O     O_3   0.813173 0.871798 0.042501 -0.557557
C233  C     C_3   0.814357 0.847384 0.014787 -0.210378
H113  H     H_    0.847292 0.873188 0.001343 0.144513
H114  H     H_    0.767912 0.846616 0.004990 0.161756
H115  H     H_    0.830889 0.799182 0.015887 0.188615
O90   O     O_3   0.127985 0.813166 0.042639 -0.557547
C234  C     C_3   0.152531 0.814354 0.014951 -0.210209
H116  H     H_    0.126793 0.847294 0.001483 0.144480
H117  H     H_    0.153342 0.767912 0.005153 0.161734
H118  H     H_    0.200729 0.830882 0.016100 0.188628
O91   O     O_3   0.186829 0.128199 0.042504 -0.557557
C235  C     C_3   0.185645 0.152615 0.014791 -0.210376
H119  H     H_    0.152710 0.126812 0.001346 0.144514
H120  H     H_    0.232090 0.153384 0.004995 0.161756
H121  H     H_    0.169112 0.200816 0.015892 0.188615
O92   O     O_3   0.872015 0.186836 0.042639 -0.557546
C236  C     C_3   0.847468 0.185647 0.014951 -0.210212
H122  H     H_    0.873206 0.152706 0.001483 0.144481
H123  H     H_    0.846657 0.232089 0.005153 0.161735
H124  H     H_    0.799270 0.169119 0.016100 0.188628
O93   O     O_3   0.313169 0.371925 0.542578 -0.557568
C237  C     C_3   0.314352 0.347439 0.514878 -0.210348
H125  H     H_    0.347293 0.373203 0.501421 0.144502
H126  H     H_    0.267909 0.346651 0.505081 0.161755
H127  H     H_    0.330879 0.299238 0.516005 0.188600
O94   O     O_3   0.628077 0.313168 0.542581 -0.557523
C238  C     C_3   0.652567 0.314354 0.514882 -0.210282
H128  H     H_    0.626803 0.347295 0.501424 0.144488
H129  H     H_    0.653358 0.267912 0.505084 0.161745
H130  H     H_    0.700768 0.330883 0.516010 0.188613
O95   O     O_3   0.686833 0.628077 0.542578 -0.557569
C239  C     C_3   0.685649 0.652562 0.514877 -0.210350
H131  H     H_    0.652708 0.626796 0.501420 0.144502
H132  H     H_    0.732092 0.653349 0.505080 0.161755
H133  H     H_    0.669123 0.700763 0.516004 0.188600
O96   O     O_3   0.371931 0.686832 0.542584 -0.557522
C240  C     C_3   0.347435 0.685647 0.514886 -0.210280
H134  H     H_    0.373197 0.652707 0.501426 0.144486
H135  H     H_    0.346642 0.732090 0.505089 0.161742
H136  H     H_    0.299235 0.669118 0.516015 0.188610
C241  C     C_1   0.066997 0.406860 0.086271 0.255205
N25   N     N_1   0.093538 0.368162 0.074716 -0.262151
C242  C     C_1   0.593116 0.067030 0.086274 0.255292
N26   N     N_1   0.631805 0.093584 0.074718 -0.262129
C243  C     C_1   0.933005 0.593140 0.086272 0.255205
N27   N     N_1   0.906464 0.631838 0.074716 -0.262149
C244  C     C_1   0.406882 0.932971 0.086272 0.255289
N28   N     N_1   0.368193 0.906418 0.074715 -0.262130
C245  C     C_1   0.567493 0.907211 0.586287 0.255579
N29   N     N_1   0.594233 0.868645 0.574735 -0.261909
C246  C     C_1   0.093139 0.566997 0.586273 0.255238
N30   N     N_1   0.131837 0.593536 0.574716 -0.262145
C247  C     C_1   0.432510 0.092789 0.586288 0.255583
N31   N     N_1   0.405769 0.131355 0.574737 -0.261907
C248  C     C_1   0.906859 0.433005 0.586271 0.255237
N32   N     N_1   0.868162 0.406466 0.574714 -0.262142

loop_
_geom_bond_atom_site_label_1
_geom_bond_atom_site_label_2
_ccdc_geom_bond_type
C28   H12   S    
Cu2   Cu4   S    
O87   C231  S    
C5    O13   A    
C201  N9    T    
C76   C86   A    
C38   O94   S    
Cu8   O44   S    
C5    C174  S    
C108  C120  A    
C7    O7    A    
C238  H128  S    
C71   N3    A    
C224  N24   T    
C235  H119  S    
C79   C87   A    
O69   C197  S    
C57   O37   A    
C196  H50   S    
C55   O27   A    
C177  C217  S    
C52   C144  S    
C170  C178  A    
Cu7   O19   S    
Cu3   O9    S    
C120  N6    A    
C112  C124  A    
C95   C99   A    
C121  N7    A    
C56   O28   A    
C10   C54   S    
C232  H112  S    
C30   C38   S    
C176  C184  A    
C26   H10   S    
C223  N23   T    
Cu5   Cu7   S    
C96   H40   S    
C135  O75   S    
Cu12  O38   S    
C50   O18   A    
O88   C232  S    
C64   O48   A    
C62   O44   A    
C34   O90   S    
C132  C208  S    
C2    C171  S    
C97   C105  A    
C54   O26   A    
C106  C118  A    
Cu10  O40   S    
C160  N4    S    
C2    O2    A    
C181  C221  S    
C200  H63   S    
C200  H62   S    
Cu6   O36   S    
Cu7   O33   S    
Cu5   O41   S    
C122  O62   S    
C240  H135  S    
C90   H34   S    
C194  H44   S    
C188  O84   S    
C118  N6    A    
O70   C198  S    
C58   O30   A    
C68   N2    A    
O89   C233  S    
C21   C29   S    
C35   C163  S    
C67   O51   S    
Cu1   O1    S    
C33   C161  S    
C24   C32   S    
C83   C131  A    
C178  C218  S    
C234  H117  S    
C145  C157  A    
C53   O33   A    
C36   H28   S    
C66   C76   A    
O72   C200  S    
C12   C20   A    
C97   O65   S    
C13   C21   A    
O68   C196  S    
C139  O79   S    
Cu10  Cu12  S    
C23   C167  A    
C49   O19   A    
C231  H108  S    
C179  C219  S    
Cu11  O47   S    
C212  H74   S    
C132  C140  A    
C237  H125  S    
Cu5   O17   S    
O75   C211  S    
C130  C138  A    
C235  H121  S    
C110  C116  A    
C222  N22   T    
C99   C107  A    
O96   C240  S    
Cu10  O30   S    
C175  C183  A    
C66   N2    A    
C196  H52   S    
C99   O67   S    
Cu8   O20   S    
C15   C191  A    
C193  H43   S    
C89   C101  A    
C91   C103  A    
C211  H72   S    
C52   O22   A    
C37   H29   S    
C51   C143  S    
O77   C213  S    
C27   H19   S    
C98   C106  A    
Cu11  O37   S    
C182  C222  S    
C17   C25   S    
C72   N4    A    
C119  N5    A    
C44   C154  A    
C80   C88   A    
C205  N13   T    
C74   C90   A    
O90   C234  S    
C2    O10   A    
C10   C18   A    
C84   C130  A    
C199  H59   S    
C62   O42   A    
C228  H98   S    
C225  H90   S    
C87   C113  A    
C213  H77   S    
C92   C104  A    
C122  N8    A    
C178  C186  A    
C59   O39   A    
C126  C134  A    
C36   O92   S    
C202  N10   T    
C230  H105  S    
Cu6   Cu8   S    
C182  C190  A    
O74   C210  S    
Cu9   O45   S    
Cu9   O21   S    
C226  H93   S    
C136  O76   S    
C229  H102  S    
C221  N21   T    
C35   O91   S    
C30   H22   S    
Cu4   O14   S    
C220  N20   T    
C109  C121  A    
C174  C182  A    
C145  H1    S    
C21   C165  A    
O81   C225  S    
C123  N7    A    
C100  O68   S    
C190  O86   S    
Cu1   O3    S    
C105  C113  A    
C42   C154  A    
C78   C94   A    
C83   C129  A    
C229  H103  S    
C13   C57   S    
C68   C74   A    
C214  H80   S    
C43   C243  S    
C239  H131  S    
Cu2   O7    S    
C16   C60   S    
C209  H65   S    
C90   C102  A    
C72   C78   A    
C139  C143  A    
C69   N3    A    
C107  C113  A    
O76   C212  S    
C6    O14   A    
C212  H76   S    
O86   C230  S    
Cu2   O8    S    
C4    O12   A    
C30   H14   S    
Cu5   O25   S    
Cu7   O43   S    
Cu9   Cu11  S    
C171  C179  A    
C57   O29   A    
C33   H25   S    
C169  C177  A    
O92   C236  S    
C75   C85   A    
C5    O5    A    
C41   C153  A    
C117  O57   S    
C100  C108  A    
C215  H83   S    
C104  C112  A    
C72   O56   S    
C233  H113  S    
C210  H70   S    
C37   C165  S    
C65   O49   S    
C84   C132  A    
C199  H61   S    
O84   C228  S    
C194  H45   S    
C209  H67   S    
C151  C159  A    
C8    O8    A    
C228  H100  S    
C147  H3    S    
C236  H122  S    
C28   H20   S    
C73   C85   A    
C7    C176  S    
C55   O35   A    
C129  C137  A    
C56   O36   A    
C19   C163  A    
C231  H107  S    
C216  H88   S    
C7    O15   A    
C82   C128  A    
C32   H16   S    
C17   C161  A    
C197  H54   S    
C198  H57   S    
C123  O63   S    
C69   C79   A    
C70   N4    A    
C4    O4    A    
C242  N26   T    
C93   C97   A    
C71   C77   A    
C167  C175  A    
C168  C176  A    
C164  C172  A    
C59   O31   A    
C92   H36   S    
C22   C30   S    
C81   C125  A    
C82   N6    S    
C195  H47   S    
C34   C162  S    
C233  H115  S    
C235  H120  S    
C248  N32   T    
C146  C158  A    
C197  H55   S    
C46   C156  A    
C140  O80   S    
C63   O47   A    
C62   C153  S    
C51   O23   A    
Cu2   O5    S    
C14   C22   A    
Cu6   O42   S    
Cu3   O12   S    
C216  H86   S    
C124  N8    A    
C93   H37   S    
C192  O88   S    
C191  O87   S    
C96   C100  A    
C232  H111  S    
C238  H130  S    
C48   C156  A    
Cu12  O24   S    
Cu6   O18   S    
Cu4   O16   S    
C14   C190  A    
Cu11  O31   S    
C135  C141  A    
C77   C87   A    
Cu9   O39   S    
O85   C229  S    
C33   O89   S    
C48   C248  S    
C46   C246  S    
C157  N1    S    
C244  N28   T    
C25   C33   S    
C217  N17   T    
O91   C235  S    
C18   C26   S    
C215  H85   S    
C112  C116  A    
C61   C154  S    
O82   C226  S    
C210  H68   S    
C52   O24   A    
C53   O25   A    
C64   C155  S    
C11   C19   A    
C150  C160  A    
C149  H5    S    
C63   C156  S    
C236  H124  S    
C128  C136  A    
C241  N25   T    
C3    C172  S    
C127  C203  S    
C179  C187  A    
C6    C175  S    
C94   C98   A    
C101  C109  A    
C208  N16   T    
C20   C164  A    
C1    C170  S    
C177  C185  A    
C227  H95   S    
C103  C111  A    
C108  C114  A    
Cu12  O48   S    
C82   C126  A    
C136  C142  A    
C180  C188  A    
Cu5   O35   S    
C181  C189  A    
Cu10  O22   S    
Cu7   O27   S    
C32   H24   S    
Cu8   O28   S    
C49   C141  S    
C204  N12   T    
C184  C192  A    
C67   C73   A    
C163  C171  A    
C40   O96   S    
C8    O16   A    
C245  N29   T    
C83   N7    S    
C172  C180  A    
O66   C194  S    
C152  H8    S    
C173  C181  A    
C230  H104  S    
C119  O59   S    
C81   C127  A    
C27   H11   S    
C120  O60   S    
C105  C117  A    
C237  H126  S    
C195  H49   S    
C107  C119  A    
C1    O1    A    
C219  N19   T    
C31   H15   S    
C196  H51   S    
C14   C58   S    
C63   O45   A    
C166  C174  A    
C51   O21   A    
C111  C123  A    
C89   H33   S    
C85   C115  A    
Cu3   O10   S    
C71   O55   S    
O71   C199  S    
C117  N5    A    
C129  C205  S    
C70   C80   A    
C237  H127  S    
O83   C227  S    
C79   C95   A    
C134  C142  A    
C162  C170  A    
C199  H60   S    
C225  H91   S    
C213  H78   S    
C60   O40   A    
C47   C151  A    
C61   O41   A    
C48   C152  A    
C102  C110  A    
C9    C53   S    
C180  C220  S    
C42   C146  A    
C150  H6    S    
C200  H64   S    
C11   C55   S    
C131  C207  S    
C78   C88   A    
C38   C166  S    
C65   N1    A    
C66   O50   S    
C15   C59   S    
C140  C144  A    
C133  O73   S    
C213  H79   S    
C38   H30   S    
C239  H133  S    
C54   O34   A    
C20   C28   S    
C133  C141  A    
C227  H97   S    
C6    O6    A    
C27   C35   S    
Cu1   O2    S    
C73   C89   A    
O67   C195  S    
C110  C122  A    
C234  H118  S    
C18   C162  A    
C77   C93   A    
C239  H132  S    
C35   H27   S    
C88   C114  A    
C209  H66   S    
C148  H4    S    
C58   O38   A    
C41   C145  A    
O80   C216  S    
C28   C36   S    
C29   C37   S    
C212  H75   S    
C138  C144  A    
C69   O53   S    
C43   C153  A    
C165  C173  A    
C102  O70   S    
C23   C31   S    
C214  H82   S    
C198  H56   S    
C152  C160  A    
C31   H23   S    
C84   N8    S    
C67   N1    A    
C45   C245  S    
O79   C215  S    
C50   C142  S    
C29   H21   S    
C40   H32   S    
C211  H71   S    
C128  C204  S    
C126  C202  S    
Cu8   O34   S    
C246  N30   T    
C214  H81   S    
C240  H134  S    
C151  H7    S    
C25   H9    S    
C106  C114  A    
C11   C187  A    
C24   C168  A    
C215  H84   S    
C9    C185  A    
C233  H114  S    
C210  H69   S    
C121  O61   S    
O95   C239  S    
C12   C188  A    
C13   C189  A    
C86   C116  A    
C243  N27   T    
C124  O64   S    
C225  H89   S    
C16   C192  A    
C10   C186  A    
C26   C34   S    
C31   C39   S    
C61   O43   A    
Cu6   O26   S    
C230  H106  S    
C193  H42   S    
C60   O32   A    
C25   H17   S    
C45   C155  A    
C22   C166  A    
C80   C96   A    
C19   C27   S    
O93   C237  S    
C45   C149  A    
C226  H94   S    
C15   C23   A    
C229  H101  S    
C137  C143  A    
C186  O82   S    
C44   C244  S    
C187  O83   S    
Cu4   O13   S    
C34   H26   S    
C42   C242  S    
C185  O81   S    
C104  O72   S    
C125  C201  S    
C184  C224  S    
C36   C164  S    
Cu10  O46   S    
C4    C169  S    
Cu1   O4    S    
C189  O85   S    
C131  C139  A    
C195  H48   S    
Cu9   O29   S    
C234  H116  S    
C109  C115  A    
C8    C173  S    
Cu11  O23   S    
Cu12  O32   S    
Cu2   O6    S    
Cu3   O11   S    
C26   H18   S    
C193  H41   S    
C206  N14   T    
C218  N18   T    
C231  H109  S    
Cu1   Cu3   S    
C232  H110  S    
C146  H2    S    
C238  H129  S    
C148  C158  A    
C74   C86   A    
C37   O93   S    
C149  C159  A    
C159  N3    S    
C12   C56   S    
C76   C92   A    
C1    O9    A    
C9    C17   A    
C46   C150  A    
C50   O20   A    
C3    O11   A    
C64   O46   A    
C130  C206  S    
C216  H87   S    
C147  C157  A    
C211  H73   S    
C41   C241  S    
C207  N15   T    
C247  N31   T    
C125  C133  A    
O94   C238  S    
C240  H136  S    
C101  O69   S    
C183  C223  S    
C103  O71   S    
C81   N5    S    
C183  C191  A    
C75   C91   A    
C228  H99   S    
C203  N11   T    
C65   C75   A    
C194  H46   S    
C47   C247  S    
C118  O58   S    
C94   H38   S    
C161  C169  A    
C236  H123  S    
O73   C209  S    
C39   H31   S    
C127  C135  A    
C47   C155  A    
C29   H13   S    
C44   C148  A    
C227  H96   S    
C39   O95   S    
C32   C40   S    
C39   C167  S    
O65   C193  S    
C68   O52   S    
C3    O3    A    
C40   C168  S    
C43   C147  A    
C134  O74   S    
C226  H92   S    
C70   O54   S    
C98   O66   S    
C16   C24   A    
C197  H53   S    
C138  O78   S    
C198  H58   S    
C91   H35   S    
O78   C214  S    
Cu4   O15   S    
C111  C115  A    
C158  N2    S    
C137  O77   S    
C95   H39   S    
C49   O17   A    
