data_mof_unit_15272.cif
_audit_creation_date              2012-12-11T20:30:25-0500
_audit_creation_method            fapswitch 2.2
_symmetry_space_group_name_H-M    P1
_symmetry_Int_Tables_number       1
_space_group_crystal_system       triclinic
_cell_length_a                    8.235449
_cell_length_b                    17.296694
_cell_length_c                    18.723202
_cell_angle_alpha                 102.716381
_cell_angle_beta                  91.450777
_cell_angle_gamma                 98.326092
_cell_volume                      2569.68305924

loop_
_atom_site_label
_atom_site_type_symbol
_atom_type_description
_atom_site_fract_x
_atom_site_fract_y
_atom_site_fract_z
_atom_type_partial_charge
Ba1   Ba    Ba6+2 0.853800 0.535410 0.467450 1.660542
Ba2   Ba    Ba6+2 0.336030 0.464660 0.532560 1.671614
C1    C     C_3   0.706433 0.818364 0.289384 -0.282591
C2    C     C_R   0.887790 0.429150 0.092606 0.033672
C3    C     C_R   0.724956 0.395794 0.067919 -0.078749
C4    C     C_3   0.106740 0.697309 0.278456 0.307943
C5    C     C_R   0.662553 0.401361 0.999407 -0.103784
C6    C     C_R   0.763175 0.438387 0.953288 0.037006
C7    C     C_R   0.926707 0.472331 0.977476 0.040273
C8    C     C_R   0.703598 0.439920 0.882821 -0.108598
C9    C     C_R   0.807621 0.470828 0.833602 -0.034775
C10   C     C_R   0.970553 0.507491 0.858564 0.025860
C11   C     C_R   0.029023 0.508481 0.930949 0.039111
C12   C     C_3   0.646745 0.737825 0.307546 0.326876
C13   C     C_R   0.755851 0.463884 0.759470 -0.004786
C14   C     C_R   0.864125 0.494572 0.712324 -0.280397
C15   C     C_R   0.022494 0.534538 0.736648 0.023511
C16   C     C_3   0.084743 0.723055 0.206364 -0.193391
C17   C     C_R   0.076521 0.541686 0.811013 -0.058081
C18   C     C_R   0.150348 0.504757 0.073355 -0.000205
C19   C     C_R   0.209313 0.503803 0.145048 -0.005514
C20   C     C_R   0.106444 0.464962 0.190895 -0.050751
C21   C     C_R   0.950188 0.423730 0.161520 -0.036306
C22   C     C_R   0.234866 0.579939 0.838978 0.004267
C23   C     C_3   0.460162 0.337025 0.304896 0.309510
C24   C     C_R   0.294404 0.578421 0.909322 0.023889
C25   C     C_R   0.191804 0.543062 0.955901 0.011780
C26   C     C_R   0.252580 0.542034 0.027179 0.014083
C27   C     C_R   0.456750 0.611635 0.933230 -0.089245
C28   C     C_3   0.253725 0.708090 0.627612 0.302979
C29   C     C_R   0.517734 0.613595 0.004136 -0.024190
C30   C     C_R   0.415927 0.577597 0.051769 -0.008628
C31   C     C_R   0.371817 0.540691 0.170242 -0.043078
C32   C     C_R   0.474134 0.574714 0.122344 -0.064161
C33   C     C_R   0.427143 0.542780 0.242909 -0.012931
C34   C     C_3   0.438429 0.311339 0.221745 -0.388663
C35   C     C_R   0.320479 0.510166 0.289391 -0.291285
C36   C     C_R   0.162686 0.469791 0.264721 0.044883
C37   C     C_2   0.447567 0.714729 0.474135 -0.265545
C38   C     C_3   0.369642 0.762046 0.427562 -0.053121
C39   C     C_2   0.427724 0.850550 0.449456 -0.098366
C40   C     C_3   0.315148 0.797969 0.650330 -0.334487
C41   C     C_2   0.568191 0.879421 0.491563 -0.011629
C42   C     C_2   0.652386 0.823048 0.523806 -0.121468
C43   C     C_1   0.583017 0.747228 0.516106 0.074629
C44   C     C_R   0.813389 0.135571 0.525222 -0.112581
C45   C     C_3   0.070383 0.315510 0.723426 0.383103
C46   C     C_R   0.865363 0.218261 0.540471 -0.007142
C47   C     C_R   0.622700 0.235769 0.472853 0.049040
C48   C     C_R   0.572839 0.152775 0.455661 -0.040052
C49   C     C_R   0.665448 0.102321 0.483273 0.063377
C50   C     C_2   0.637631 0.965964 0.508498 -0.039656
C51   C     C_2   0.606937 0.015156 0.464757 -0.057737
C52   C     C_3   0.953358 0.286608 0.365527 0.305212
C53   C     C_R   0.766838 0.268360 0.516772 -0.264651
C54   C     C_3   0.928723 0.195560 0.341531 -0.379095
C55   C     C_3   0.788653 0.704253 0.707177 0.295760
C56   C     C_3   0.091826 0.302444 0.800819 -0.357442
C57   C     C_3   0.711602 0.689097 0.778232 -0.264005
C58   C     C_2   0.923421 0.775839 0.726542 0.896674
C59   C     C_2   0.632606 0.759100 0.817907 0.898732
C60   C     C_2   0.450730 0.188130 0.672496 0.964949
C61   C     C_2   0.684424 0.658660 0.027091 0.857947
C62   C     C_2   0.204229 0.796363 0.203590 0.889864
C63   C     C_3   0.565647 0.263639 0.709482 0.235555
C64   C     C_3   0.668232 0.245774 0.771474 -0.474159
C65   C     C_R   0.988189 0.469183 0.048003 0.003312
H1    H     H_    0.683017 0.742397 0.366072 0.044915
H2    H     H_    0.840627 0.650022 0.680172 -0.085647
H3    H     H_    0.840492 0.836124 0.303048 0.151318
H4    H     H_    0.806349 0.677204 0.816060 0.073261
H5    H     H_    0.617223 0.634306 0.764138 0.073676
H6    H     H_    0.511161 0.725235 0.297926 0.001215
H7    H     H_    0.342428 0.353288 0.326380 0.015402
H8    H     H_    0.558042 0.390206 0.319472 0.062968
H9    H     H_    0.336059 0.260422 0.205370 0.133696
H10   H     H_    0.409692 0.361973 0.198674 0.052540
H11   H     H_    0.553470 0.292512 0.199008 0.121560
H12   H     H_    0.399827 0.812204 0.700616 0.164105
H13   H     H_    0.681273 0.814824 0.230141 0.196082
H14   H     H_    0.102143 0.673431 0.159614 0.029984
H15   H     H_    0.157002 0.369609 0.719597 0.091199
H16   H     H_    0.942747 0.326125 0.713685 -0.096052
H17   H     H_    0.223175 0.302397 0.815512 0.138626
H18   H     H_    0.048511 0.351321 0.840928 0.053699
H19   H     H_    0.020399 0.244196 0.804975 0.134269
H20   H     H_    0.650670 0.281351 0.668211 -0.028225
H21   H     H_    0.754828 0.300203 0.798226 0.119121
H22   H     H_    0.739757 0.196726 0.749461 0.110234
H23   H     H_    0.380629 0.819097 0.605723 0.056127
H24   H     H_    0.026091 0.639115 0.274741 0.095332
H25   H     H_    0.589010 0.227896 0.814255 0.125836
H26   H     H_    0.645128 0.365938 0.101910 0.066916
H27   H     H_    0.536238 0.375298 0.981911 0.072363
H28   H     H_    0.822776 0.488887 0.655826 0.078385
H29   H     H_    0.577392 0.413769 0.866047 0.103060
H30   H     H_    0.872736 0.388906 0.192419 0.100984
H31   H     H_    0.316189 0.609246 0.805776 0.152828
H32   H     H_    0.536287 0.637971 0.896973 0.101869
H33   H     H_    0.600772 0.598178 0.139386 0.131849
H34   H     H_    0.210204 0.831771 0.661186 0.154962
H35   H     H_    0.236081 0.687349 0.284750 -0.079913
H36   H     H_    0.363893 0.513265 0.345134 0.066436
H37   H     H_    0.530821 0.991895 0.414322 0.062384
H38   H     H_    0.767764 0.845742 0.556108 0.129226
H39   H     H_    0.891983 0.097593 0.543068 0.084727
H40   H     H_    0.715452 0.989201 0.558502 0.093519
H41   H     H_    0.358006 0.889332 0.427224 0.085718
H42   H     H_    0.462386 0.127587 0.420745 0.060476
H43   H     H_    0.405562 0.650609 0.463076 0.076579
H44   H     H_    0.808098 0.332393 0.528119 0.061837
H45   H     H_    0.836702 0.306379 0.383649 -0.001271
H46   H     H_    0.958236 0.735924 0.200588 0.127520
H47   H     H_    0.355826 0.676752 0.606276 0.029632
H48   H     H_    0.154329 0.696769 0.583751 0.062375
H49   H     H_    0.122956 0.831486 0.792842 0.325614
H50   H     H_    0.425115 0.799000 0.855659 0.326001
H51   H     H_    0.641340 0.865086 0.321707 0.061976
H52   H     H_    0.328875 0.179463 0.764341 0.278053
H53   H     H_    0.823093 0.750579 0.097403 0.319347
H54   H     H_    0.239034 0.914184 0.203805 0.315995
H55   H     H_    0.047983 0.305763 0.411647 0.071416
H56   H     H_    0.825240 0.174288 0.299275 0.130744
H57   H     H_    0.901044 0.168308 0.388851 0.053196
H58   H     H_    0.042614 0.175647 0.318363 0.134607
O1    O     O_2   0.871520 0.445720 0.321500 -0.466111
O2    O     O_2   0.205559 0.223815 0.539253 -0.433651
O3    O     O_3   0.103825 0.247755 0.672477 -0.562211
O4    O     O_3   0.121030 0.451930 0.411150 -0.494921
O5    O     O_3   0.581210 0.598010 0.542960 -0.479667
O6    O     O_2   0.335820 0.303580 0.452320 -0.463465
O7    O     O_3   0.504115 0.273291 0.332487 -0.643494
O8    O     O_2   0.423418 0.469636 0.753952 -0.505468
O9    O     O_3   0.470218 0.323091 0.738884 -0.622608
O10   O     O_3   0.662190 0.593100 0.375060 -0.481596
O11   O     O_2   0.758297 0.529495 0.244881 -0.495492
O12   O     O_3   0.663390 0.720553 0.663323 -0.651324
O13   O     O_3   0.002170 0.318093 0.305552 -0.638906
O14   O     O_3   0.718618 0.677810 0.262327 -0.590728
O15   O     O_2   0.853880 0.696450 0.547730 -0.476830
O16   O     O_3   0.085100 0.636210 0.413950 -0.485288
O17   O     O_2   0.054267 0.784916 0.482079 -0.472285
O18   O     O_2   0.923445 0.832047 0.696965 -0.603332
O19   O     O_R   0.041987 0.779932 0.782529 -0.732342
O20   O     O_2   0.716453 0.825711 0.840257 -0.565748
O21   O     O_R   0.463632 0.747765 0.829063 -0.760546
O22   O     O_2   0.461011 0.158850 0.607129 -0.595868
O23   O     O_3   0.062336 0.755337 0.337320 -0.594796
O24   O     O_R   0.331791 0.150280 0.711037 -0.688757
O25   O     O_2   0.797537 0.647883 0.986747 -0.620451
O26   O     O_R   0.709191 0.717958 0.092068 -0.737090
O27   O     O_2   0.350514 0.792114 0.198223 -0.617350
O28   O     O_R   0.147103 0.869049 0.206144 -0.747742
O29   O     O_2   0.318180 0.554310 0.678550 -0.457804
O30   O     O_3   0.068680 0.548140 0.588860 -0.499793
O31   O     O_3   0.527520 0.406960 0.624950 -0.454109
O32   O     O_3   0.195683 0.681759 0.689125 -0.592674
O33   O     O_3   0.608500 0.402060 0.457050 -0.483472
O34   O     O_3   0.104610 0.363860 0.586060 -0.505841
P1    P     P_3+3 0.038810 0.422920 0.331160 0.970600
P2    P     P_3+3 0.678260 0.686080 0.568600 1.009437
P3    P     P_3+3 0.141903 0.737376 0.418476 0.968147
P4    P     P_3+3 0.150900 0.577150 0.668860 1.005164
P5    P     P_3+3 0.070073 0.261825 0.583822 0.998104
P6    P     P_3+3 0.639171 0.585318 0.280859 0.936070
P7    P     P_3+3 0.517516 0.301270 0.428414 0.954357
P8    P     P_3+3 0.547800 0.415918 0.719731 0.950526

loop_
_geom_bond_atom_site_label_1
_geom_bond_atom_site_label_2
_ccdc_geom_bond_type
H52   O24   S    
C46   C53   A    
C56   H18   S    
O2    P5    D    
C60   O24   S    
C28   O32   S    
C18   C65   A    
C41   C42   S    
C16   H14   S    
C45   O3    S    
C42   H38   S    
C42   C43   D    
C24   C25   A    
Ba2   O30   S    
H54   O28   S    
C62   O27   D    
C22   H31   S    
C54   H57   S    
Ba1   O33   S    
C39   H41   S    
O7    P7    S    
C23   H7    S    
Ba1   O4    S    
C34   H10   S    
O8    P8    D    
C58   O18   D    
C64   H21   S    
C41   C50   S    
C55   C57   S    
C19   C31   A    
O11   P6    D    
C51   H37   S    
C4    H24   S    
C20   C36   A    
C44   H39   S    
O3    P5    S    
Ba2   O4    S    
Ba1   O30   S    
Ba1   Ba2   S    
C45   H15   S    
O14   P6    S    
C43   P2    S    
C7    C11   A    
C34   H9    S    
C15   C17   A    
H49   O19   S    
C9    C13   A    
C37   H43   S    
C50   H40   S    
C14   C15   A    
H53   O26   S    
C32   H33   S    
C45   H16   S    
C15   P4    S    
O32   P4    S    
C63   O9    S    
C57   H5    S    
C37   C43   D    
C53   H44   S    
C52   H55   S    
Ba1   P2    S    
O16   P3    S    
Ba2   O29   S    
C19   C20   A    
C39   C41   D    
C13   P8    S    
C1    H13   S    
C56   H19   S    
C16   H46   S    
C63   H20   S    
C64   H22   S    
C44   C46   A    
C28   H48   S    
C4    C16   S    
C52   C54   S    
C57   C59   S    
Ba2   O6    S    
C27   H32   S    
C52   H45   S    
C54   H56   S    
C29   C61   S    
O29   P4    D    
C26   C30   A    
C1    H3    S    
Ba1   O16   S    
Ba1   O1    S    
O6    P7    D    
Ba1   O5    S    
C37   C38   S    
C3    C5    A    
C2    C21   A    
C6    C7    A    
C55   C58   S    
C64   H25   S    
C18   C26   A    
O31   P8    S    
O30   P4    S    
O15   P2    D    
C47   C53   A    
C44   C49   A    
C48   H42   S    
H50   O21   S    
C49   C51   S    
C30   C32   A    
C59   O21   S    
C7    C65   A    
C61   O25   D    
C38   P3    S    
C35   C36   A    
C1    H51   S    
C56   H17   S    
C4    O23   S    
C12   H6    S    
C29   C30   A    
O34   P5    S    
C8    H29   S    
Ba2   O33   S    
C48   C49   A    
O10   P6    S    
C55   O12   S    
C54   H58   S    
C10   C11   A    
Ba1   O15   S    
C61   O26   S    
C1    C12   S    
O5    P2    S    
C38   C39   S    
C21   H30   S    
C63   C64   S    
C60   O22   D    
Ba2   O34   S    
C23   H8    S    
C40   H34   S    
Ba2   O5    S    
C50   C51   D    
O33   P7    S    
C35   H36   S    
C28   H47   S    
C5    H27   S    
C14   H28   S    
Ba2   O31   S    
C60   C63   S    
C33   C35   A    
O9    P8    S    
Ba1   P1    S    
C28   C40   S    
C22   C24   A    
C2    C3    A    
Ba2   P4    S    
O17   P3    D    
C2    C65   A    
C3    H26   S    
C9    C10   A    
C46   P5    S    
O1    P1    D    
C55   H2    S    
C17   C22   A    
O23   P3    S    
C47   P7    S    
C27   C29   A    
C34   H11   S    
C58   O19   S    
C45   C56   S    
O12   P2    S    
C16   C62   S    
C52   O13   S    
C62   O28   S    
C10   C17   A    
C59   O20   D    
C31   C33   A    
C31   C32   A    
C4    H35   S    
C12   H1    S    
C12   O14   S    
C5    C6    A    
C8    C9    A    
C23   C34   S    
C36   P1    S    
O13   P1    S    
C40   H12   S    
C18   C19   A    
C24   C27   A    
C6    C8    A    
C47   C48   A    
C25   C26   A    
C33   P6    S    
C20   C21   A    
C11   C25   A    
C40   H23   S    
Ba1   O10   S    
C23   O7    S    
O4    P1    S    
C13   C14   A    
C57   H4    S    
