data_mof_unit_15838.cif
_audit_creation_date              2012-12-11T16:14:54-0500
_audit_creation_method            fapswitch 2.2
_symmetry_space_group_name_H-M    P1
_symmetry_Int_Tables_number       1
_space_group_crystal_system       triclinic
_cell_length_a                    13.553675
_cell_length_b                    13.562347
_cell_length_c                    28.431935
_cell_angle_alpha                 90.384602
_cell_angle_beta                  90.343116
_cell_angle_gamma                 60.12545
_cell_volume                      4531.73782046

loop_
_atom_site_label
_atom_site_type_symbol
_atom_type_description
_atom_site_fract_x
_atom_site_fract_y
_atom_site_fract_z
_atom_type_partial_charge
C1    C     C_R   0.279535 0.620669 0.566458 0.544114
C2    C     C_1   0.638987 0.633272 0.612493 -0.017344
C3    C     C_3   0.697334 0.749711 0.759036 -0.099558
C4    C     C_3   0.668353 0.683748 0.794952 0.053640
C5    C     C_3   0.765623 0.638680 0.730271 -0.105859
C6    C     C_3   0.656304 0.666635 0.703444 0.049896
C7    C     C_3   0.736862 0.573057 0.766961 -0.103593
C8    C     C_3   0.627345 0.600701 0.739395 -0.107081
C9    C     C_1   0.680511 0.692917 0.845444 -0.057457
C10   C     C_1   0.648615 0.652239 0.653023 -0.064352
C11   C     C_1   0.634107 0.229099 0.611318 -0.004559
C12   C     C_R   0.621849 0.600877 0.566750 0.544344
C13   C     C_R   0.766200 0.167402 0.724500 0.277909
C14   C     C_R   0.778565 0.146991 0.773332 0.276246
C15   C     C_R   0.593861 0.158281 0.775077 -0.180841
C16   C     C_R   0.585154 0.170866 0.726402 -0.180162
C17   C     C_R   0.670927 0.175177 0.701005 -0.002866
C18   C     C_R   0.689527 0.147499 0.798701 -0.003272
C19   C     C_1   0.699238 0.127073 0.848422 -0.017793
C20   C     C_1   0.654335 0.199428 0.651628 -0.018470
C21   C     C_1   0.707906 0.101138 0.889187 -0.004398
C22   C     C_1   0.232126 0.636789 0.612473 -0.009998
C23   C     C_R   0.600838 0.279029 0.565828 0.541153
C24   C     C_R   0.083392 0.670275 0.721127 -0.112556
C25   C     C_R   0.066919 0.676810 0.769755 -0.118382
C26   C     C_R   0.256331 0.649483 0.782050 -0.115262
C27   C     C_R   0.272791 0.642970 0.733464 -0.107967
C28   C     C_R   0.186296 0.653655 0.702969 0.039668
C29   C     C_R   0.153407 0.666317 0.800226 0.031389
C30   C     C_1   0.132522 0.680066 0.849847 -0.067184
C31   C     C_1   0.205644 0.646111 0.653223 -0.056130
C32   C     C_1   0.105416 0.698030 0.890524 -0.015803
C33   C     C_1   0.635977 0.632975 0.388301 -0.000607
C34   C     C_R   0.277191 0.620821 0.434156 0.540802
C35   C     C_R   0.757666 0.604986 0.275837 -0.084647
C36   C     C_R   0.764674 0.608470 0.226704 0.297328
C37   C     C_R   0.560537 0.739639 0.223109 -0.158822
C38   C     C_R   0.553877 0.733431 0.271925 -0.115030
C39   C     C_R   0.652553 0.666702 0.298307 -0.013395
C40   C     C_R   0.665646 0.677622 0.200477 0.038292
C41   C     C_1   0.674541 0.690070 0.150807 -0.012728
C42   C     C_1   0.644657 0.652284 0.347797 -0.045150
C43   C     C_1   0.691725 0.701251 0.110282 0.006768
C44   C     C_1   0.633385 0.226861 0.388613 -0.012821
C45   C     C_R   0.620226 0.600402 0.434066 0.546500
C46   C     C_R   0.569573 0.190597 0.273202 -0.106705
C47   C     C_R   0.574944 0.182829 0.224387 -0.107453
C48   C     C_R   0.767624 0.151712 0.226959 -0.109397
C49   C     C_R   0.762111 0.159817 0.275890 -0.109176
C50   C     C_R   0.663301 0.178377 0.298891 0.043583
C51   C     C_R   0.673826 0.163571 0.201327 0.041607
C52   C     C_1   0.684198 0.140090 0.152197 -0.060498
C53   C     C_1   0.651842 0.198374 0.348268 -0.061175
C54   C     C_1   0.695676 0.108960 0.112151 -0.011833
C55   C     C_1   0.230529 0.635791 0.388277 0.011104
C56   C     C_R   0.600312 0.277364 0.433755 0.546401
C57   C     C_R   0.216507 0.716304 0.270950 0.221303
C58   C     C_R   0.210315 0.714224 0.222027 -0.163315
C59   C     C_R   0.160507 0.564747 0.225985 0.313945
C60   C     C_R   0.167840 0.565710 0.275270 0.269640
C61   C     C_R   0.193662 0.643146 0.297500 -0.002571
C62   C     C_R   0.179030 0.641923 0.199720 -0.056489
C63   C     C_1   0.147111 0.662427 0.151372 -0.022910
C64   C     C_1   0.207002 0.641485 0.347409 0.022908
C65   C     C_1   0.110373 0.687992 0.112282 0.000767
C66   C     C_R   0.720716 0.055016 0.935236 0.539528
C67   C     C_3   0.587688 0.777445 0.731374 -0.094293
C68   C     C_R   0.730564 0.717839 0.932176 0.543189
C69   C     C_R   0.057379 0.729354 0.936454 0.541321
C70   C     C_R   0.714495 0.056373 0.067340 0.548426
C71   C     C_R   0.725452 0.717173 0.064760 0.545661
C72   C     C_R   0.054029 0.727392 0.068503 0.546429
C73   C     C_3   0.558972 0.711713 0.768184 -0.098167
C74   C     C_1   0.698482 0.702353 0.886117 -0.013230
Cr1   Cr    Cr6+3 0.413560 0.417690 0.499580 1.030712
Cr2   Cr    Cr6+3 0.418030 0.668340 0.500400 1.035660
Cr3   Cr    Cr6+3 0.668390 0.413960 0.499990 1.031311
Cr4   Cr    Cr6+3 0.919710 0.916540 0.003080 1.029236
Cr5   Cr    Cr6+3 0.665300 0.919470 0.999630 1.028656
Cr6   Cr    Cr6+3 0.916060 0.665490 0.000390 1.040711
H1    H     H_    0.474416 0.741210 0.784381 0.101499
H2    H     H_    0.510322 0.179465 0.708628 0.132791
H3    H     H_    0.016134 0.678589 0.697827 0.106596
H4    H     H_    0.986446 0.691145 0.783587 0.107445
H5    H     H_    0.323071 0.642631 0.805308 0.106430
H6    H     H_    0.352754 0.630092 0.719644 0.107593
H7    H     H_    0.833915 0.553550 0.296341 0.139413
H8    H     H_    0.484056 0.793081 0.203085 0.119636
H9    H     H_    0.471906 0.780090 0.289057 0.162597
H10   H     H_    0.492343 0.206722 0.290909 0.091888
H11   H     H_    0.526869 0.861324 0.716024 0.109060
H12   H     H_    0.503043 0.189731 0.204717 0.097546
H13   H     H_    0.845176 0.134537 0.209221 0.100916
H14   H     H_    0.834138 0.152271 0.295670 0.100806
H15   H     H_    0.225477 0.772555 0.201572 0.131919
H16   H     H_    0.598318 0.539297 0.730643 0.093080
H17   H     H_    0.797882 0.489451 0.782442 0.109958
H18   H     H_    0.850248 0.608955 0.714103 0.100804
H19   H     H_    0.726155 0.811250 0.767891 0.105061
H20   H     H_    0.526348 0.155767 0.794301 0.133417
O1    O     O_R   0.503010 0.303330 0.550820 -0.508822
O2    O     O_R   0.522480 0.657560 0.452870 -0.493046
O3    O     O_R   0.693670 0.502790 0.448900 -0.506403
O4    O     O_R   0.656970 0.319650 0.452000 -0.494209
O5    O     O_3   0.499990 0.499990 0.499990 -0.252580
O6    O     O_R   0.035380 0.825870 0.952240 -0.512284
O7    O     O_R   0.818010 0.012400 0.954990 -0.493884
O8    O     O_R   0.644810 0.033340 0.949080 -0.510244
O9    O     O_R   0.674910 0.816000 0.950960 -0.497255
O10   O     O_R   0.827060 0.642880 0.947470 -0.506510
O11   O     O_R   0.013800 0.673690 0.954100 -0.495251
O12   O     O_R   0.320040 0.522690 0.547470 -0.495361
O13   O     O_R   0.031250 0.825430 0.055080 -0.511721
O14   O     O_R   0.814180 0.011990 0.050320 -0.494054
O15   O     O_R   0.640680 0.032900 0.051920 -0.508742
O16   O     O_R   0.671090 0.815590 0.046300 -0.498947
O17   O     O_R   0.822940 0.642440 0.050310 -0.495202
O18   O     O_R   0.009970 0.673280 0.049430 -0.488498
O19   O     O_3   0.833690 0.833830 0.001040 -0.251612
O20   O     O_R   0.303930 0.694040 0.551750 -0.505212
O21   O     O_R   0.523510 0.657900 0.548240 -0.494230
O22   O     O_R   0.694770 0.503160 0.551780 -0.511515
O23   O     O_R   0.657990 0.319990 0.547370 -0.494371
O24   O     O_R   0.501900 0.302960 0.447930 -0.510594
O25   O     O_R   0.319020 0.522350 0.452090 -0.497499
O26   O     O_R   0.302820 0.693680 0.448870 -0.504257
O27   O     O_3   0.868989 0.551228 0.204363 -0.513382
C75   C     C_3   0.907888 0.433514 0.205360 -0.078224
H21   H     H_    0.842990 0.413586 0.191108 0.092279
H22   H     H_    0.933707 0.399054 0.241499 0.116607
H23   H     H_    0.984172 0.389462 0.182663 0.161126
O28   O     O_3   0.250351 0.786018 0.292854 -0.556915
C76   C     C_3   0.156321 0.897427 0.295073 -0.010513
H24   H     H_    0.083847 0.898961 0.314095 0.137282
H25   H     H_    0.127984 0.933141 0.259169 0.122659
C77   C     C_3   0.190910 0.973183 0.321665 -0.372092
H26   H     H_    0.262076 0.974822 0.303205 0.147353
H27   H     H_    0.117539 0.061141 0.323733 0.093755
H28   H     H_    0.218544 0.940451 0.357890 0.171795
O29   O     O_3   0.125075 0.495305 0.204835 -0.500090
C78   C     C_3   0.215560 0.409109 0.178621 -0.113386
H29   H     H_    0.299977 0.375787 0.196164 0.078437
H30   H     H_    0.218438 0.439752 0.142852 0.130667
H31   H     H_    0.199986 0.336621 0.174436 0.125132
O30   O     O_3   0.140915 0.497195 0.301752 -0.533834
C79   C     C_3   0.241197 0.392852 0.309941 -0.110992
H32   H     H_    0.308379 0.404929 0.327247 0.108830
H33   H     H_    0.274046 0.343583 0.276799 0.116123
H34   H     H_    0.220880 0.341394 0.333981 0.142033
O31   O     O_3   0.848532 0.176789 0.699662 -0.550181
C80   C     C_3   0.823723 0.290929 0.702458 0.004507
H35   H     H_    0.831189 0.314248 0.739396 0.156539
H36   H     H_    0.736519 0.350311 0.688954 0.121003
C81   C     C_3   0.907975 0.305755 0.672547 -0.357498
H37   H     H_    0.901321 0.284694 0.635264 0.172462
H38   H     H_    0.889003 0.395336 0.674699 0.099928
H39   H     H_    0.996019 0.249010 0.685398 0.160376
O32   O     O_3   0.875311 0.131435 0.796441 -0.553872
C82   C     C_3   0.959268 0.015413 0.792902 0.007873
H40   H     H_    0.985001 0.990954 0.755596 0.168282
H41   H     H_    0.928301 0.959702 0.807613 0.123938
C83   C     C_3   0.063854 0.994812 0.820802 -0.359084
H42   H     H_    0.041533 0.015593 0.858486 0.170027
H43   H     H_    0.131000 0.904140 0.817726 0.106046
H44   H     H_    0.097359 0.048780 0.806979 0.160007

loop_
_geom_bond_atom_site_label_1
_geom_bond_atom_site_label_2
_ccdc_geom_bond_type
C58   C62   A    
C15   C18   A    
C59   C60   A    
C63   C65   T    
Cr2   O5    S    
Cr5   O15   S    
C21   C66   S    
C27   H6    S    
Cr2   O26   S    
C47   H12   S    
C14   C18   A    
C37   H8    S    
C35   C36   A    
C8    H16   S    
C66   O7    A    
C2    C12   S    
C75   H21   S    
C78   H30   S    
O30   C79   S    
C7    C8    S    
C70   O14   A    
C38   H9    S    
Cr1   O12   S    
Cr2   O20   S    
C14   O32   S    
C33   C42   T    
C56   O24   A    
C19   C21   T    
C24   H3    S    
C13   O31   S    
C79   H32   S    
C37   C40   A    
C4    C7    S    
C1    O12   A    
C5    C6    S    
C68   C74   S    
C15   C16   A    
C79   H34   S    
C17   C20   S    
C33   C45   S    
C18   C19   S    
C80   C81   S    
C49   C50   A    
Cr3   O22   S    
C57   O28   S    
C46   C47   A    
C35   H7    S    
C44   C53   T    
C48   C51   A    
C47   C51   A    
C12   O21   A    
O28   C76   S    
Cr5   O19   S    
Cr5   O8    S    
C25   H4    S    
C80   H35   S    
C82   H41   S    
C67   C73   S    
C49   H14   S    
C45   O3    A    
C15   H20   S    
C34   O25   A    
C79   H33   S    
Cr6   O19   S    
C1    C22   S    
Cr5   O16   S    
Cr2   O2    S    
C41   C43   T    
Cr4   O14   S    
C77   H28   S    
C73   H1    S    
C52   C54   T    
C39   C42   S    
C83   H43   S    
C25   C29   A    
C38   C39   A    
Cr6   O18   S    
C11   C20   T    
C50   C53   S    
C22   C31   T    
C71   O17   A    
Cr1   O24   S    
C36   C40   A    
O29   C78   S    
C56   O4    A    
C81   H39   S    
C77   H27   S    
C48   H13   S    
C78   H31   S    
C5    C7    S    
Cr5   O9    S    
C16   C17   A    
C6    C8    S    
C72   O13   A    
C51   C52   S    
Cr4   O7    S    
Cr1   O25   S    
C1    O20   A    
O32   C82   S    
C37   C38   A    
C61   C64   S    
C35   C39   A    
C58   H15   S    
C29   C30   S    
Cr3   O23   S    
C76   C77   S    
C83   H44   S    
C44   C56   S    
C82   H40   S    
C54   C70   S    
C34   O26   A    
C55   C64   T    
C62   C63   S    
C67   H11   S    
C4    C73   S    
C82   C83   S    
C68   O10   A    
C24   C25   A    
C81   H37   S    
C40   C41   S    
Cr1   O5    S    
C26   C27   A    
C76   H24   S    
Cr3   O3    S    
C36   O27   S    
C9    C74   T    
Cr2   O21   S    
Cr6   O10   S    
C3    C4    S    
C2    C10   T    
C75   H23   S    
Cr1   O1    S    
C83   H42   S    
Cr6   O17   S    
C48   C49   A    
C59   C62   A    
C43   C71   S    
C7    H17   S    
C81   H38   S    
C28   C31   S    
C3    C67   S    
C24   C28   A    
C66   O8    A    
C77   H26   S    
C3    C5    S    
C75   H22   S    
C6    C10   S    
C23   O23   A    
C69   O6    A    
C57   C61   A    
C32   C69   S    
C46   H10   S    
C70   O15   A    
C65   C72   S    
C46   C50   A    
C13   C17   A    
Cr4   O6    S    
Cr3   O5    S    
Cr4   O19   S    
C6    C67   S    
C78   H29   S    
C30   C32   T    
C69   O11   A    
C57   C58   A    
C23   O1    A    
C59   O29   S    
C26   H5    S    
Cr6   O11   S    
C11   C23   S    
C8    C73   S    
C71   O16   A    
C68   O9    A    
C80   H36   S    
C45   O2    A    
Cr4   O13   S    
C3    H19   S    
C34   C55   S    
C12   O22   A    
C5    H18   S    
C26   C29   A    
C16   H2    S    
C60   O30   S    
C72   O18   A    
C27   C28   A    
C76   H25   S    
O31   C80   S    
C60   C61   A    
Cr3   O4    S    
C4    C9    S    
C13   C14   A    
O27   C75   S    
