data_mof_unit_10666.cif
_audit_creation_date              2012-12-10T17:26:20-0500
_audit_creation_method            fapswitch 2.2
_symmetry_space_group_name_H-M    P1
_symmetry_Int_Tables_number       1
_space_group_crystal_system       triclinic
_cell_length_a                    25.734611
_cell_length_b                    25.890989
_cell_length_c                    22.001475
_cell_angle_alpha                 90.002123
_cell_angle_beta                  125.140148
_cell_angle_gamma                 89.919324
_cell_volume                      11987.7083606

loop_
_atom_site_label
_atom_site_type_symbol
_atom_type_description
_atom_site_fract_x
_atom_site_fract_y
_atom_site_fract_z
_atom_type_partial_charge
Br1   Br    Br    0.768264 0.801721 0.348213 -0.592513
Br2   Br    Br    0.247585 0.234346 0.683994 -0.580779
Br3   Br    Br    0.247337 0.765074 0.683965 -0.580138
Br4   Br    Br    0.752806 0.233641 0.316345 -0.581484
Br5   Br    Br    0.252237 0.265324 0.316043 -0.580450
Br6   Br    Br    0.712966 0.704864 0.665329 -0.596407
Br7   Br    Br    0.747425 0.265903 0.683710 -0.581124
Br8   Br    Br    0.252449 0.735232 0.316078 -0.580366
C1    C     C_R   0.900354 0.750150 0.300457 0.852222
C2    C     C_3   0.809351 0.240006 0.023091 0.228918
C3    C     C_R   0.742834 0.268846 0.435353 -0.037842
C4    C     C_R   0.243089 0.230730 0.435868 -0.037848
C5    C     C_R   0.762501 0.740025 0.580646 -0.029788
C6    C     C_R   0.757068 0.231029 0.564338 -0.038312
C7    C     C_R   0.243088 0.769414 0.435934 -0.038796
C8    C     C_R   0.702208 0.732821 0.512860 -0.138064
C9    C     C_R   0.295571 0.262142 0.486466 -0.133210
C10   C     C_R   0.295601 0.737897 0.486468 -0.132597
C11   C     C_R   0.704334 0.262219 0.513419 -0.133654
C12   C     C_R   0.204479 0.237712 0.513737 -0.133027
C13   C     C_3   0.795015 0.713742 0.023806 0.232292
C14   C     C_R   0.806939 0.745704 0.507430 -0.111700
C15   C     C_R   0.795602 0.237757 0.486370 -0.133088
C16   C     C_R   0.204454 0.762256 0.513754 -0.133073
C17   C     C_R   0.883230 0.946385 0.410380 -0.133669
C18   C     C_R   0.116771 0.053674 0.590291 -0.157923
C19   C     C_R   0.116739 0.946014 0.590394 -0.157855
C20   C     C_R   0.883321 0.054044 0.410008 -0.158649
C21   C     C_R   0.383157 0.446308 0.411236 -0.157772
C22   C     C_R   0.617111 0.553717 0.586131 -0.147288
C23   C     C_R   0.617034 0.446063 0.587636 -0.158073
C24   C     C_3   0.190701 0.240076 0.977007 0.228976
C25   C     C_R   0.383130 0.553964 0.411074 -0.158813
C26   C     C_R   0.826234 0.973464 0.366395 -0.125220
C27   C     C_R   0.173725 0.026605 0.634667 -0.150434
C28   C     C_R   0.173707 0.972916 0.634736 -0.149751
C29   C     C_R   0.826291 0.027157 0.366116 -0.158022
C30   C     C_R   0.326117 0.473356 0.367447 -0.151364
C31   C     C_R   0.674249 0.526681 0.628935 -0.130950
C32   C     C_R   0.674194 0.472994 0.629907 -0.155222
C33   C     C_R   0.326105 0.527044 0.367351 -0.150900
C34   C     C_R   0.941820 0.027367 0.455281 0.070756
C35   C     C_3   0.690632 0.259953 0.976903 0.228944
C36   C     C_R   0.058262 0.972677 0.544905 0.070964
C37   C     C_R   0.058276 0.027182 0.544878 0.070893
C38   C     C_R   0.941792 0.972862 0.455377 0.059883
C39   C     C_R   0.441703 0.527323 0.455870 0.070476
C40   C     C_R   0.558396 0.472693 0.543391 0.070340
C41   C     C_R   0.558408 0.527198 0.542953 0.062016
C42   C     C_R   0.441720 0.472819 0.455939 0.071032
C43   C     C_R   0.000061 0.053993 0.500009 -0.156470
C44   C     C_R   0.000031 0.946039 0.500057 -0.159709
C45   C     C_R   0.500013 0.553982 0.499749 -0.161274
C46   C     C_3   0.309704 0.746319 0.023082 0.231684
C47   C     C_R   0.500038 0.446029 0.499995 -0.157782
C48   C     C_R   0.000022 0.890042 0.500024 0.808221
C49   C     C_R   0.000055 0.109969 0.500033 0.804227
C50   C     C_R   0.500047 0.390039 0.500043 0.804676
C51   C     C_R   0.499981 0.609966 0.499941 0.811595
C52   C     C_R   0.000032 0.610095 0.500041 0.783131
C53   C     C_R   0.999948 0.389918 0.500005 0.784494
C54   C     C_R   0.500040 0.110086 0.500046 0.784180
C55   C     C_R   0.499953 0.889913 0.499970 0.783167
C56   C     C_R   0.982071 0.553834 0.376947 -0.146038
C57   C     C_3   0.309333 0.259882 0.023000 0.229040
C58   C     C_R   0.017588 0.446231 0.622957 -0.146708
C59   C     C_R   0.017541 0.553833 0.622916 -0.146725
C60   C     C_R   0.981839 0.446245 0.376825 -0.146320
C61   C     C_R   0.478559 0.053828 0.375119 -0.145775
C62   C     C_R   0.521354 0.946167 0.624869 -0.146234
C63   C     C_R   0.521603 0.053741 0.625017 -0.146275
C64   C     C_R   0.478287 0.946256 0.374959 -0.145253
C65   C     C_R   0.973272 0.526883 0.316866 -0.142336
C66   C     C_R   0.026045 0.473203 0.682851 -0.139926
C67   C     C_R   0.025997 0.526866 0.682821 -0.142660
C68   C     C_3   0.705331 0.785166 0.976188 0.231422
C69   C     C_R   0.973159 0.473222 0.316807 -0.141155
C70   C     C_R   0.468015 0.026890 0.314146 -0.141577
C71   C     C_R   0.531865 0.973103 0.685827 -0.142503
C72   C     C_R   0.531986 0.026757 0.685899 -0.141196
C73   C     C_R   0.467876 0.973237 0.314064 -0.140992
C74   C     C_R   0.990401 0.472771 0.438333 0.070939
C75   C     C_R   0.009315 0.527282 0.561599 0.072024
C76   C     C_R   0.009277 0.472764 0.561582 0.070927
C77   C     C_R   0.990519 0.527285 0.438394 0.071532
C78   C     C_R   0.488582 0.972766 0.437385 0.071373
C79   C     C_1   0.138835 0.750035 0.778890 -0.120362
C80   C     C_R   0.511348 0.027232 0.562613 0.071243
C81   C     C_R   0.511223 0.972721 0.562537 0.072044
C82   C     C_R   0.488714 0.027276 0.437463 0.071357
C83   C     C_R   0.999858 0.445994 0.499966 -0.154505
C84   C     C_R   0.000053 0.554042 0.500066 -0.152884
C85   C     C_R   0.499864 0.945977 0.499934 -0.154204
C86   C     C_R   0.500103 0.054021 0.500079 -0.155023
C87   C     C_3   0.729996 0.213181 0.025538 -0.200444
C88   C     C_3   0.263846 0.790470 0.974512 -0.202720
C89   C     C_3   0.270083 0.213114 0.974556 -0.200387
C90   C     C_1   0.860854 0.249640 0.221076 -0.125043
C91   C     C_3   0.777397 0.796383 0.024161 -0.207574
C92   C     C_3   0.234983 0.708324 0.025395 -0.202690
C93   C     C_3   0.769988 0.286779 0.974458 -0.200331
C94   C     C_3   0.722929 0.702543 0.975788 -0.204295
C95   C     C_3   0.229951 0.286845 0.025449 -0.200506
C96   C     C_3   0.119208 0.755927 0.948119 -0.434062
C97   C     C_3   0.111693 0.758504 0.011955 -0.853335
C98   C     C_3   0.878122 0.228621 0.051514 -0.423070
C99   C     C_3   0.884748 0.220689 0.987556 -0.858345
C100  C     C_3   0.847308 0.673080 0.053123 -0.431279
C101  C     C_1   0.860992 0.750281 0.221087 -0.139684
C102  C     C_3   0.840492 0.642195 0.989880 -0.852200
C103  C     C_3   0.121985 0.228769 0.948713 -0.423372
C104  C     C_3   0.115465 0.220913 0.012762 -0.857604
C105  C     C_3   0.621856 0.271333 0.948457 -0.422896
C106  C     C_3   0.615203 0.279242 0.012397 -0.858998
C107  C     C_3   0.379531 0.742781 0.051495 -0.431716
C108  C     C_3   0.386828 0.740011 0.987498 -0.851939
C109  C     C_3   0.378056 0.271184 0.051315 -0.423431
C110  C     C_3   0.384601 0.279023 0.987284 -0.858207
C111  C     C_3   0.653056 0.825827 0.947033 -0.433082
C112  C     C_R   0.099637 0.249847 0.699541 0.850320
C113  C     C_1   0.139071 0.249582 0.778907 -0.124357
C114  C     C_3   0.657729 0.854526 0.010552 -0.847874
C115  C     C_3   0.654596 0.727845 0.228492 -0.373471
C116  C     C_3   0.602426 0.768440 0.186772 -0.840774
C117  C     C_3   0.337530 0.333788 0.756034 -0.370648
C118  C     C_3   0.397050 0.304252 0.815324 -0.835669
C119  C     C_3   0.336258 0.664851 0.755042 -0.371768
C120  C     C_3   0.394794 0.694768 0.815167 -0.833156
C121  C     C_3   0.661349 0.332349 0.242644 -0.370128
C122  C     C_3   0.602119 0.302424 0.183920 -0.836225
C123  C     C_3   0.162877 0.165518 0.244590 -0.370555
C124  C     C_1   0.639137 0.250345 0.778922 -0.125031
C125  C     C_3   0.103247 0.194843 0.185088 -0.835372
C126  C     C_3   0.839748 0.765346 0.788020 -0.375891
C127  C     C_3   0.871523 0.720179 0.842195 -0.840018
C128  C     C_3   0.837949 0.166580 0.756347 -0.369570
C129  C     C_3   0.897265 0.196248 0.815449 -0.835598
C130  C     C_3   0.164030 0.835770 0.245536 -0.371995
C131  C     C_3   0.105331 0.806075 0.185275 -0.832191
C132  C     C_3   0.627858 0.637652 0.410080 -0.313211
C133  C     C_3   0.650794 0.586614 0.398237 -0.913697
C134  C     C_3   0.348945 0.372227 0.541166 -0.334828
C135  C     C_1   0.360622 0.749444 0.221054 -0.125947
C136  C     C_3   0.314635 0.423857 0.526378 -0.903214
C137  C     C_3   0.349112 0.627657 0.540903 -0.334874
C138  C     C_3   0.314738 0.576104 0.525713 -0.903095
C139  C     C_3   0.649868 0.372155 0.457093 -0.335343
C140  C     C_3   0.683371 0.423970 0.470571 -0.901908
C141  C     C_3   0.151140 0.127642 0.459395 -0.334875
C142  C     C_3   0.185500 0.075992 0.474614 -0.903142
C143  C     C_3   0.935325 0.710642 0.659236 -0.371994
C144  C     C_3   0.958654 0.665586 0.714214 -0.919387
C145  C     C_3   0.849556 0.127802 0.541657 -0.341682
C146  C     C_1   0.360944 0.250402 0.221095 -0.124727
C147  C     C_3   0.815203 0.076284 0.526718 -0.884531
C148  C     C_3   0.150981 0.872477 0.459682 -0.335027
C149  C     C_3   0.185394 0.924050 0.475282 -0.903206
C150  C     C_1   0.639161 0.749423 0.778901 -0.131140
C151  C     C_3   0.258524 0.705365 0.974372 -0.208335
C152  C     C_3   0.747410 0.296649 0.025513 -0.209685
C153  C     C_3   0.715046 0.738942 0.026146 -0.206469
C154  C     C_3   0.252435 0.296609 0.974293 -0.209710
C155  C     C_3   0.752573 0.203310 0.974481 -0.209718
C156  C     C_R   0.099625 0.750082 0.699557 0.840749
C157  C     C_3   0.240284 0.793432 0.025503 -0.208378
C158  C     C_3   0.247600 0.203350 0.025714 -0.209572
C159  C     C_3   0.785313 0.759966 0.973830 -0.206769
C160  C     C_3   0.212581 0.749556 0.926724 0.107957
C161  C     C_3   0.786853 0.249764 0.073222 0.108373
C162  C     C_3   0.787033 0.749757 0.073217 0.110477
C163  C     C_3   0.213106 0.249728 0.926775 0.108364
C164  C     C_3   0.713132 0.250196 0.926774 0.108344
C165  C     C_3   0.286259 0.749251 0.073179 0.108233
C166  C     C_3   0.286927 0.250230 0.073229 0.108323
C167  C     C_R   0.900326 0.249867 0.300431 0.851581
C168  C     C_3   0.713321 0.749189 0.926755 0.110683
C169  C     C_1   0.172026 0.749832 0.845638 -0.066611
C170  C     C_1   0.827502 0.249622 0.154318 -0.067174
C171  C     C_1   0.827682 0.750127 0.154322 -0.072717
C172  C     C_1   0.172422 0.249562 0.845671 -0.067058
C173  C     C_1   0.672486 0.250349 0.845679 -0.067175
C174  C     C_1   0.327070 0.749263 0.154291 -0.067383
C175  C     C_1   0.327602 0.250408 0.154332 -0.067255
C176  C     C_1   0.672615 0.749172 0.845657 -0.069556
C177  C     C_R   0.728143 0.747391 0.368031 0.242530
C178  C     C_R   0.400365 0.250150 0.300459 0.850269
C179  C     C_R   0.273747 0.280258 0.636780 0.265579
C180  C     C_R   0.273557 0.719312 0.636572 0.266437
C181  C     C_R   0.725970 0.279671 0.362817 0.264792
C182  C     C_R   0.226357 0.219390 0.363531 0.265735
C183  C     C_R   0.771188 0.740306 0.650718 0.229191
C184  C     C_R   0.773871 0.219929 0.636778 0.265050
C185  C     C_R   0.226526 0.781029 0.363745 0.266596
C186  C     C_R   0.674314 0.722072 0.307513 0.150450
C187  C     C_R   0.318249 0.319608 0.678994 0.137298
C188  C     C_R   0.317776 0.679640 0.678508 0.137353
C189  C     C_R   0.599545 0.749925 0.699546 0.871074
C190  C     C_R   0.680908 0.318654 0.319957 0.137546
C191  C     C_R   0.182038 0.179882 0.321526 0.137117
C192  C     C_R   0.830557 0.754227 0.714920 0.146403
C193  C     C_R   0.818583 0.180630 0.679218 0.137344
C194  C     C_R   0.182467 0.820842 0.322006 0.137164
C195  C     C_R   0.639991 0.688116 0.321467 -0.247247
C196  C     C_R   0.343983 0.347667 0.647885 -0.244280
C197  C     C_R   0.343701 0.651735 0.647439 -0.244813
C198  C     C_R   0.654823 0.346812 0.350628 -0.243610
C199  C     C_R   0.156378 0.151851 0.352748 -0.244301
C200  C     C_R   0.599672 0.250130 0.699568 0.851350
C201  C     C_R   0.883611 0.753271 0.712749 -0.212391
C202  C     C_R   0.844449 0.152498 0.648256 -0.243929
C203  C     C_R   0.156637 0.848733 0.353202 -0.244561
C204  C     C_R   0.653675 0.683892 0.392800 0.173194
C205  C     C_R   0.331189 0.334025 0.578833 0.181427
C206  C     C_R   0.331216 0.665728 0.578622 0.181511
C207  C     C_R   0.667931 0.333655 0.419990 0.181256
C208  C     C_R   0.169030 0.165678 0.421673 0.181318
C209  C     C_R   0.877979 0.737872 0.648195 0.163050
C210  C     C_R   0.831601 0.166050 0.579141 0.180796
C211  C     C_R   0.400301 0.749850 0.300423 0.849642
C212  C     C_R   0.169004 0.834571 0.421905 0.181474
C213  C     C_R   0.699629 0.717618 0.449311 -0.018933
C214  C     C_R   0.295308 0.288608 0.542898 -0.012124
C215  C     C_R   0.295373 0.711298 0.542853 -0.011812
C216  C     C_R   0.704333 0.288469 0.456625 -0.011881
C217  C     C_R   0.204806 0.211172 0.457417 -0.011940
C218  C     C_R   0.816925 0.741302 0.578667 -0.019403
C219  C     C_R   0.795493 0.211420 0.542970 -0.010893
C220  C     C_R   0.204749 0.788929 0.457487 -0.011631
C221  C     C_R   0.142971 0.754135 0.505066 0.840889
C222  C     C_3   0.189103 0.752473 0.976779 0.234268
C223  C     C_R   0.857041 0.245881 0.494966 0.842072
C224  C     C_R   0.860024 0.749974 0.500822 0.863946
C225  C     C_R   0.142964 0.245842 0.505050 0.840834
C226  C     C_R   0.642959 0.254134 0.505016 0.842446
C227  C     C_R   0.357036 0.745896 0.494983 0.839443
C228  C     C_R   0.357042 0.254128 0.494994 0.840888
C229  C     C_R   0.642001 0.746105 0.503544 0.868016
C230  C     C_R   0.745404 0.738307 0.441446 -0.037659
C231  C     C_R   0.256995 0.269044 0.564403 -0.037654
C232  C     C_R   0.256999 0.730818 0.564356 -0.038724
H1    H     H_    0.032264 0.547697 0.729269 0.133612
H2    H     H_    0.781955 0.048099 0.331958 0.155531
H3    H     H_    0.695561 0.738256 0.226803 0.242162
H4    H     H_    0.636738 0.690321 0.198850 0.188620
H5    H     H_    0.388127 0.261997 0.808646 0.287135
H6    H     H_    0.437154 0.313266 0.811258 0.252704
H7    H     H_    0.410651 0.315700 0.871331 0.243609
H8    H     H_    0.347269 0.375915 0.765513 0.188728
H9    H     H_    0.298483 0.326122 0.762432 0.242956
H10   H     H_    0.435606 0.686513 0.812098 0.252214
H11   H     H_    0.385105 0.736936 0.808524 0.288178
H12   H     H_    0.407736 0.682898 0.870770 0.241880
H13   H     H_    0.781858 0.952675 0.332347 0.162676
H14   H     H_    0.296423 0.671686 0.760335 0.242191
H15   H     H_    0.346860 0.622808 0.764562 0.188621
H16   H     H_    0.611535 0.260218 0.191233 0.287039
H17   H     H_    0.561990 0.311416 0.187995 0.252773
H18   H     H_    0.588262 0.313546 0.127692 0.243880
H19   H     H_    0.651139 0.374412 0.232513 0.189583
H20   H     H_    0.700404 0.324665 0.236233 0.243065
H21   H     H_    0.063139 0.185743 0.189111 0.252655
H22   H     H_    0.111964 0.237127 0.191565 0.287115
H23   H     H_    0.089777 0.183294 0.129168 0.243632
H24   H     H_    0.218062 0.047404 0.668948 0.154564
H25   H     H_    0.201923 0.173235 0.238208 0.242934
H26   H     H_    0.153327 0.123357 0.235347 0.188819
H27   H     H_    0.841677 0.684972 0.818670 0.288652
H28   H     H_    0.919096 0.712064 0.854533 0.249000
H29   H     H_    0.877687 0.730058 0.895079 0.234809
H30   H     H_    0.869733 0.800379 0.813375 0.190111
H31   H     H_    0.793722 0.774188 0.779481 0.240914
H32   H     H_    0.937436 0.187254 0.811454 0.252939
H33   H     H_    0.888060 0.238486 0.808491 0.286984
H34   H     H_    0.910935 0.184896 0.871527 0.243900
H35   H     H_    0.718639 0.452081 0.663221 0.154699
H36   H     H_    0.798843 0.174227 0.762681 0.242923
H37   H     H_    0.847979 0.124476 0.766110 0.190408
H38   H     H_    0.114797 0.763874 0.191715 0.288122
H39   H     H_    0.064569 0.814445 0.188394 0.252284
H40   H     H_    0.092443 0.818029 0.129723 0.241864
H41   H     H_    0.153646 0.877851 0.236238 0.188764
H42   H     H_    0.203814 0.828835 0.240180 0.242144
H43   H     H_    0.631509 0.581153 0.338740 0.256577
H44   H     H_    0.703552 0.585725 0.432013 0.273790
H45   H     H_    0.634239 0.554029 0.415839 0.260068
H46   H     H_    0.281717 0.547959 0.333488 0.154598
H47   H     H_    0.644399 0.637844 0.469173 0.227871
H48   H     H_    0.575051 0.638599 0.374185 0.227798
H49   H     H_    0.262370 0.417901 0.491532 0.272529
H50   H     H_    0.329241 0.442939 0.579159 0.256518
H51   H     H_    0.326806 0.450039 0.496446 0.264944
H52   H     H_    0.401099 0.378837 0.576919 0.232726
H53   H     H_    0.335575 0.357758 0.486447 0.212655
H54   H     H_    0.329080 0.556859 0.578318 0.256580
H55   H     H_    0.262473 0.582215 0.490607 0.272424
H56   H     H_    0.327127 0.549972 0.495922 0.265108
H57   H     H_    0.281738 0.452541 0.333661 0.154657
H58   H     H_    0.335903 0.642325 0.486325 0.212389
H59   H     H_    0.401259 0.620886 0.576780 0.232461
H60   H     H_    0.735730 0.418423 0.505911 0.271825
H61   H     H_    0.668776 0.442345 0.417347 0.257649
H62   H     H_    0.670487 0.450643 0.499380 0.266194
H63   H     H_    0.597621 0.378411 0.421402 0.233146
H64   H     H_    0.663652 0.358133 0.512189 0.212994
H65   H     H_    0.170944 0.056690 0.421987 0.256411
H66   H     H_    0.237760 0.081977 0.509457 0.272666
H67   H     H_    0.173319 0.050009 0.504737 0.264749
H68   H     H_    0.718728 0.547501 0.661586 0.157224
H69   H     H_    0.164346 0.142277 0.513972 0.212922
H70   H     H_    0.098993 0.121011 0.423526 0.232653
H71   H     H_    0.978131 0.679422 0.771275 0.256001
H72   H     H_    0.919202 0.638107 0.696395 0.278701
H73   H     H_    0.997288 0.644785 0.716028 0.237478
H74   H     H_    0.924669 0.693022 0.607510 0.186180
H75   H     H_    0.974418 0.738811 0.680574 0.228401
H76   H     H_    0.829366 0.057345 0.579444 0.258215
H77   H     H_    0.762936 0.082399 0.491369 0.269715
H78   H     H_    0.827767 0.049920 0.497270 0.267876
H79   H     H_    0.880856 0.904629 0.408647 0.153416
H80   H     H_    0.836349 0.142270 0.486991 0.213689
H81   H     H_    0.901709 0.121062 0.577589 0.233629
H82   H     H_    0.237654 0.917913 0.510333 0.272537
H83   H     H_    0.171057 0.943522 0.422819 0.256490
H84   H     H_    0.173033 0.949975 0.505310 0.264913
H85   H     H_    0.098840 0.879266 0.423700 0.232500
H86   H     H_    0.164039 0.857646 0.514124 0.212618
H87   H     H_    0.119141 0.095430 0.591991 0.132512
H88   H     H_    0.119087 0.904251 0.592178 0.131255
H89   H     H_    0.966624 0.452374 0.270222 0.133817
H90   H     H_    0.880993 0.095808 0.408116 0.133778
H91   H     H_    0.380803 0.404553 0.409556 0.132513
H92   H     H_    0.619495 0.595470 0.587317 0.151749
H93   H     H_    0.619373 0.404304 0.589908 0.133245
H94   H     H_    0.380762 0.595726 0.409241 0.131461
H95   H     H_    0.982524 0.595561 0.374744 0.124376
H96   H     H_    0.017230 0.404502 0.625210 0.123821
H97   H     H_    0.017142 0.595566 0.625111 0.123126
H98   H     H_    0.982106 0.404515 0.374520 0.124236
H99   H     H_    0.479075 0.095547 0.372888 0.125568
H100  H     H_    0.966820 0.547748 0.270325 0.133272
H101  H     H_    0.520848 0.904448 0.627100 0.124237
H102  H     H_    0.521305 0.095463 0.627373 0.125584
H103  H     H_    0.478576 0.904534 0.372594 0.125358
H104  H     H_    0.713818 0.183276 0.047296 0.150323
H105  H     H_    0.275512 0.823905 0.952844 0.149281
H106  H     H_    0.286318 0.183149 0.952878 0.150283
H107  H     H_    0.799755 0.834898 0.044756 0.145615
H108  H     H_    0.223321 0.674889 0.047068 0.148875
H109  H     H_    0.786166 0.316683 0.952700 0.150360
H110  H     H_    0.700488 0.664060 0.955147 0.145553
H111  H     H_    0.032342 0.452348 0.729314 0.133569
H112  H     H_    0.213716 0.316809 0.047127 0.150197
H113  H     H_    0.745419 0.334744 0.047257 0.145252
H114  H     H_    0.265830 0.669470 0.952573 0.145331
H115  H     H_    0.254293 0.334673 0.952394 0.145077
H116  H     H_    0.686646 0.730666 0.048412 0.144492
H117  H     H_    0.232947 0.829325 0.047277 0.145559
H118  H     H_    0.754562 0.165215 0.952736 0.145243
H119  H     H_    0.813720 0.768176 0.951555 0.144876
H120  H     H_    0.245744 0.165286 0.047614 0.145129
H121  H     H_    0.930357 0.758323 0.764016 0.156729
H122  H     H_    0.539804 0.047597 0.733152 0.133687
H123  H     H_    0.126089 0.118972 0.323044 0.155123
H124  H     H_    0.126483 0.881795 0.323688 0.155090
H125  H     H_    0.875016 0.119734 0.678283 0.156701
H126  H     H_    0.374395 0.380456 0.677745 0.155099
H127  H     H_    0.602639 0.664652 0.276709 0.154345
H128  H     H_    0.623932 0.379336 0.320201 0.155840
H129  H     H_    0.373963 0.618753 0.677101 0.155115
H130  H     H_    0.131919 0.723339 0.047115 0.268572
H131  H     H_    0.136155 0.793138 0.046769 0.261304
H132  H     H_    0.060462 0.761013 0.989206 0.246421
H133  H     H_    0.460030 0.952396 0.266798 0.133446
H134  H     H_    0.097853 0.791006 0.912994 0.208907
H135  H     H_    0.093670 0.721519 0.913311 0.203684
H136  H     H_    0.855368 0.187488 0.952656 0.260307
H137  H     H_    0.869577 0.255951 0.952487 0.269390
H138  H     H_    0.935205 0.212545 0.010205 0.246969
H139  H     H_    0.908583 0.261423 0.086381 0.208127
H140  H     H_    0.894394 0.193264 0.086501 0.208980
H141  H     H_    0.794678 0.620975 0.958678 0.260388
H142  H     H_    0.842475 0.668242 0.951211 0.261913
H143  H     H_    0.879884 0.613769 0.012965 0.250061
H144  H     H_    0.460279 0.047763 0.266943 0.133761
H145  H     H_    0.894275 0.692585 0.085289 0.208118
H146  H     H_    0.844788 0.646384 0.090872 0.207193
H147  H     H_    0.144949 0.187697 0.047742 0.260198
H148  H     H_    0.130577 0.256185 0.047727 0.269377
H149  H     H_    0.065043 0.212834 0.990208 0.246965
H150  H     H_    0.091411 0.261582 0.913759 0.208056
H151  H     H_    0.105783 0.193401 0.913840 0.209250
H152  H     H_    0.630360 0.243971 0.047446 0.269477
H153  H     H_    0.644578 0.312436 0.047320 0.260279
H154  H     H_    0.564740 0.287384 0.989725 0.246883
H155  H     H_    0.539591 0.952228 0.733025 0.132753
H156  H     H_    0.605593 0.306698 0.913487 0.208950
H157  H     H_    0.591399 0.238537 0.913568 0.208113
H158  H     H_    0.362340 0.705312 0.952870 0.260348
H159  H     H_    0.366508 0.775102 0.952190 0.268753
H160  H     H_    0.438024 0.737490 0.010088 0.247121
H161  H     H_    0.405135 0.777230 0.086126 0.205959
H162  H     H_    0.400929 0.707746 0.086712 0.208134
H163  H     H_    0.369499 0.243745 0.952333 0.269512
H164  H     H_    0.355122 0.312235 0.952287 0.260171
H165  H     H_    0.435027 0.287099 0.009858 0.246854
H166  H     H_    0.218031 0.951986 0.669069 0.154501
H167  H     H_    0.394250 0.306558 0.086177 0.208929
H168  H     H_    0.408625 0.238376 0.086287 0.208131
H169  H     H_    0.652425 0.827202 0.045566 0.260979
H170  H     H_    0.704234 0.874496 0.045559 0.260518
H171  H     H_    0.619273 0.883837 0.987466 0.249254
H172  H     H_    0.657246 0.853861 0.911855 0.206376
H173  H     H_    0.606027 0.806595 0.912233 0.208010
H174  H     H_    0.559746 0.757001 0.184520 0.251202
H175  H     H_    0.619502 0.806550 0.214644 0.284822
H176  H     H_    0.588841 0.772088 0.129042 0.241614
O1    O     O_3   0.000000 0.750000 0.500000 -0.481679
O2    O     O_R   0.612550 0.780360 0.664400 -0.612731
O3    O     O_R   0.612550 0.219640 0.664400 -0.610291
O4    O     O_R   0.387450 0.780360 0.335600 -0.609773
O5    O     O_R   0.094250 0.780350 0.456890 -0.666359
O6    O     O_R   0.905750 0.219650 0.543110 -0.665708
O7    O     O_R   0.905750 0.780350 0.543110 -0.642705
O8    O     O_R   0.094250 0.219650 0.456890 -0.666043
O9    O     O_R   0.594250 0.280350 0.456890 -0.666336
O10   O     O_R   0.405750 0.719650 0.543110 -0.667565
O11   O     O_R   0.405750 0.280350 0.543110 -0.666109
O12   O     O_3   0.000000 0.250000 0.500000 -0.480314
O13   O     O_R   0.594250 0.719650 0.456890 -0.672622
O14   O     O_R   0.008810 0.865800 0.456890 -0.654640
O15   O     O_R   0.991190 0.134200 0.543110 -0.651073
O16   O     O_R   0.991190 0.865800 0.543110 -0.624519
O17   O     O_R   0.008810 0.134200 0.456890 -0.652237
O18   O     O_R   0.508810 0.365800 0.456890 -0.651902
O19   O     O_R   0.491190 0.634200 0.543110 -0.648898
O20   O     O_R   0.491190 0.365800 0.543110 -0.651785
O21   O     O_R   0.508810 0.634200 0.456890 -0.646756
O22   O     O_R   0.948090 0.634190 0.456900 -0.643327
O23   O     O_3   0.500000 0.250000 0.500000 -0.480153
O24   O     O_R   0.051910 0.365810 0.543100 -0.639742
O25   O     O_R   0.051910 0.634190 0.543100 -0.640281
O26   O     O_R   0.948090 0.365810 0.456900 -0.640086
O27   O     O_R   0.448090 0.134190 0.456900 -0.640241
O28   O     O_R   0.551910 0.865810 0.543100 -0.640591
O29   O     O_R   0.551910 0.134190 0.543100 -0.640128
O30   O     O_R   0.448090 0.865810 0.456900 -0.641478
O31   O     O_R   0.137350 0.719630 0.543100 -0.603058
O32   O     O_R   0.862650 0.280370 0.456900 -0.603335
O33   O     O_R   0.862650 0.719630 0.456900 -0.620159
O34   O     O_3   0.500000 0.750000 0.500000 -0.476735
O35   O     O_R   0.137350 0.280370 0.543100 -0.603090
O36   O     O_R   0.637350 0.219630 0.543100 -0.602958
O37   O     O_R   0.362650 0.780370 0.456900 -0.603685
O38   O     O_R   0.362650 0.219630 0.456900 -0.602970
O39   O     O_R   0.637350 0.780370 0.543100 -0.601603
O40   O     O_R   0.948170 0.780360 0.335600 -0.639801
O41   O     O_R   0.051830 0.219640 0.664400 -0.646373
O42   O     O_R   0.051830 0.780360 0.664400 -0.664990
O43   O     O_R   0.948170 0.219640 0.335600 -0.646373
O44   O     O_R   0.448170 0.280360 0.335600 -0.646581
O45   O     O_R   0.887450 0.719640 0.335600 -0.620904
O46   O     O_R   0.551830 0.719640 0.664400 -0.639477
O47   O     O_R   0.551830 0.280360 0.664400 -0.646326
O48   O     O_R   0.448170 0.719640 0.335600 -0.653508
O49   O     O_R   0.112550 0.280360 0.664400 -0.609832
O50   O     O_R   0.112550 0.719640 0.664400 -0.607356
O51   O     O_R   0.887450 0.280360 0.335600 -0.610105
O52   O     O_R   0.387450 0.219640 0.335600 -0.609967
Zn1   Zn    Zn3+2 0.074160 0.706620 0.561580 0.989870
Zn2   Zn    Zn3+2 0.987410 0.206630 0.561590 0.957955
Zn3   Zn    Zn3+2 0.987410 0.793370 0.561590 0.978499
Zn4   Zn    Zn3+2 0.012590 0.206630 0.438410 0.957292
Zn5   Zn    Zn3+2 0.512590 0.293370 0.438410 0.957167
Zn6   Zn    Zn3+2 0.487410 0.706630 0.561590 0.968263
Zn7   Zn    Zn3+2 0.487410 0.293370 0.561590 0.957455
Zn8   Zn    Zn3+2 0.512590 0.706630 0.438410 0.959104
Zn9   Zn    Zn3+2 0.925840 0.293380 0.438420 0.995916
Zn10  Zn    Zn3+2 0.925840 0.706620 0.438420 0.987130
Zn11  Zn    Zn3+2 0.074160 0.293380 0.561580 0.995460
Zn12  Zn    Zn3+2 0.574160 0.206620 0.561580 0.996030
Zn13  Zn    Zn3+2 0.425840 0.793380 0.438420 0.993861
Zn14  Zn    Zn3+2 0.425840 0.206620 0.438420 0.995262
Zn15  Zn    Zn3+2 0.574160 0.793380 0.561580 0.999493
Zn16  Zn    Zn3+2 0.012590 0.793370 0.438410 0.965538

loop_
_geom_bond_atom_site_label_1
_geom_bond_atom_site_label_2
_ccdc_geom_bond_type
C108  H159  S    
C24   C158  S    
C190  C198  A    
C63   H102  S    
C121  H20   S    
O2    Zn15  S    
O29   Zn12  S    
O34   Zn6   S    
O3    Zn12  S    
C203  C212  A    
C26   H13   S    
C131  H39   S    
C115  H4    S    
C114  H169  S    
C106  H153  S    
C118  H6    S    
C98   C99   S    
C13   C162  S    
C26   C29   A    
C116  H176  S    
O45   Zn10  S    
C64   H103  S    
C92   H108  S    
O40   Zn16  S    
C112  O49   A    
O13   Zn8   S    
O14   Zn16  S    
C89   H106  S    
C128  C193  S    
C94   C168  S    
C97   H131  S    
C154  C163  S    
C142  H67   S    
C143  H74   S    
C88   C160  S    
C43   C49   S    
C76   C83   A    
C39   C42   A    
C55   O30   A    
C58   H96   S    
C16   C232  A    
C209  C218  A    
C39   C45   A    
C155  H118  S    
C153  H116  S    
C51   O19   A    
C221  O5    A    
O17   Zn4   S    
C103  H151  S    
C204  C213  A    
C96   C97   S    
C105  H157  S    
C182  C191  A    
C137  C138  S    
C113  C172  T    
C91   C159  S    
C106  H154  S    
C136  H51   S    
C226  O9    A    
C139  H63   S    
O22   Zn10  S    
C132  C133  S    
C16   C221  S    
C78   C82   A    
C225  O35   A    
C138  H56   S    
C74   C83   A    
C27   H24   S    
C166  C175  S    
C148  H86   S    
C67   H1    S    
C178  O52   A    
C124  C173  T    
C79   C169  T    
C205  C214  A    
C64   C78   A    
C112  O41   A    
O1    Zn10  S    
Br8   C185  S    
C148  C212  S    
C155  C164  S    
C140  H60   S    
C22   C41   A    
C165  C174  S    
C23   C40   A    
O19   Zn6   S    
C25   C39   A    
C201  H121  S    
Br7   C184  S    
C56   C77   A    
C200  O47   A    
C17   H79   S    
C68   C91   S    
C60   C69   A    
C168  C176  S    
O1    Zn1   S    
C62   C71   A    
C6    C11   A    
C11   C216  A    
C134  C205  S    
C137  H59   S    
C123  H25   S    
C147  H78   S    
Br1   C177  S    
C74   C77   A    
O44   Zn5   S    
C192  C201  A    
C102  H143  S    
C201  C209  A    
C117  H9    S    
C154  H115  S    
O31   Zn1   S    
O35   Zn11  S    
C90   C167  S    
C130  C194  S    
C94   C153  S    
C41   C45   A    
C130  H41   S    
C3    C15   A    
C199  C208  A    
C54   O29   A    
C96   H134  S    
C132  H47   S    
C52   O22   A    
C63   C80   A    
C18   C27   A    
C80   C81   A    
C93   H109  S    
C65   C69   A    
C54   O27   A    
C117  H8    S    
C141  C142  S    
O39   Zn15  S    
C15   C223  S    
C202  C210  A    
O10   Zn6   S    
O37   Zn13  S    
O48   Zn8   S    
C7    C10   A    
C224  O33   A    
C59   C75   A    
C61   H99   S    
C24   C103  S    
C144  H72   S    
C139  C140  S    
C194  C203  A    
C115  H3    S    
C138  H54   S    
C115  C116  S    
C104  H148  S    
C2    C161  S    
C125  H21   S    
C146  C178  S    
C52   O25   A    
C156  O42   A    
C119  H15   S    
O32   Zn9   S    
C139  C207  S    
C142  H65   S    
C117  C187  S    
C89   C158  S    
C58   C66   A    
C214  C231  A    
C127  H29   S    
C93   C164  S    
C227  O37   A    
Br2   C179  S    
C226  O36   A    
C18   C37   A    
C46   C151  S    
C164  C173  S    
C140  H62   S    
C140  H61   S    
C93   C152  S    
Br6   C183  S    
C56   C65   A    
C143  C209  S    
C200  O3    A    
C90   C170  T    
C107  H161  S    
C6    C184  A    
C36   C44   A    
C79   C156  S    
O1    Zn3   S    
C167  O43   A    
C1    O45   A    
C143  H75   S    
C68   C153  S    
O23   Zn14  S    
C133  H45   S    
C53   O26   A    
C122  H18   S    
C77   C84   A    
C109  H168  S    
C147  H76   S    
C52   C84   S    
C134  H52   S    
C141  H70   S    
C80   C86   A    
C120  H11   S    
C102  H141  S    
C88   H105  S    
C135  C174  T    
C183  C192  A    
C94   H110  S    
C30   C33   A    
C151  H114  S    
C31   C32   A    
O27   Zn14  S    
C136  H50   S    
C149  H83   S    
C95   C166  S    
C137  C206  S    
C144  H73   S    
O34   Zn15  S    
C133  H44   S    
C78   C85   A    
C75   C76   A    
C104  H149  S    
C152  C161  S    
C146  C175  T    
C119  H14   S    
O36   Zn12  S    
O6    Zn2   S    
C13   C94   S    
O33   Zn10  S    
O26   Zn9   S    
C228  O38   A    
C127  H28   S    
C25   H94   S    
C2    C98   S    
C62   C81   A    
C59   C67   A    
C11   C226  S    
C112  C113  S    
C223  O6    A    
C121  C122  S    
C9    C228  S    
C125  H23   S    
C223  O32   A    
C118  H7    S    
C156  O50   A    
C128  C129  S    
C121  H19   S    
C145  H80   S    
C98   H139  S    
C126  C127  S    
C14   C218  A    
C126  H30   S    
C17   C26   A    
C65   H100  S    
O47   Zn7   S    
C1    O40   A    
C162  C171  S    
C60   C74   A    
C31   H68   S    
C199  H123  S    
C109  C110  S    
C18   H87   S    
C114  H170  S    
C92   C151  S    
C189  O46   A    
C20   C29   A    
C110  H164  S    
C100  C102  S    
C22   C31   A    
C81   C85   A    
C163  C172  S    
C229  O13   A    
O41   Zn2   S    
C13   C100  S    
C206  C215  A    
C135  C211  S    
O38   Zn14  S    
C97   H130  S    
C12   C225  S    
C5    C8    A    
C57   C109  S    
C88   C157  S    
C198  C207  A    
C40   C47   A    
C49   O17   A    
C202  H125  S    
C2    C155  S    
C57   C166  S    
O30   Zn13  S    
C193  C202  A    
O18   Zn5   S    
C27   C28   A    
O7    Zn3   S    
C177  C186  A    
O28   Zn15  S    
C207  C216  A    
C105  H156  S    
C178  O44   A    
O52   Zn14  S    
C91   C162  S    
C87   H104  S    
C100  H145  S    
O34   Zn13  S    
C160  C169  S    
O51   Zn9   S    
C129  H34   S    
C23   C32   A    
C212  C220  A    
C34   C38   A    
C110  H165  S    
C198  H128  S    
O12   Zn9   S    
C195  H127  S    
C66   H111  S    
C103  C104  S    
C91   H107  S    
O23   Zn12  S    
C4    C9    A    
C35   C87   S    
C143  C144  S    
C21   H91   S    
C145  C147  S    
C64   C73   A    
C49   O15   A    
C118  H5    S    
C28   H166  S    
C8    C213  A    
O12   Zn2   S    
C82   C86   A    
C1    C101  S    
C229  O39   A    
C158  C166  S    
O15   Zn2   S    
C131  H40   S    
C68   C168  S    
C203  H124  S    
C50   O18   A    
C55   O28   A    
C5    C218  A    
C137  H58   S    
C158  H120  S    
C187  C196  A    
C147  H77   S    
C32   H35   S    
C227  O10   A    
O5    Zn16  S    
O46   Zn6   S    
C185  C194  A    
C3    C181  A    
C69   H89   S    
C213  C230  A    
C157  H117  S    
C197  C206  A    
C97   H132  S    
C96   C222  S    
C225  O8    A    
C142  H66   S    
C46   C107  S    
C130  H42   S    
O21   Zn8   S    
O16   Zn3   S    
C20   H90   S    
C132  H48   S    
C224  O7    A    
C40   C41   A    
C24   C163  S    
C54   C86   S    
C117  C118  S    
C108  H158  S    
C33   H46   S    
C12   C231  A    
C73   H133  S    
C210  C219  A    
C36   C37   A    
C132  C204  S    
C105  C106  S    
C228  O11   A    
C139  H64   S    
C95   C154  S    
O23   Zn7   S    
C10   C227  S    
C2    C93   S    
C116  H174  S    
C3    C216  A    
C50   O20   A    
C138  H55   S    
C19   C28   A    
O50   Zn1   S    
C55   C85   S    
C208  C217  A    
C13   C159  S    
C7    C220  A    
C25   C33   A    
O8    Zn4   S    
C92   C222  S    
C211  O48   A    
O12   Zn11  S    
C119  C188  S    
C70   C73   A    
O25   Zn1   S    
C23   H93   S    
C120  H10   S    
C179  C231  A    
C130  C131  S    
C19   H88   S    
C7    C185  A    
C47   C50   S    
C119  C120  S    
C99   H137  S    
C221  O31   A    
O12   Zn4   S    
C150  C176  T    
O11   Zn7   S    
C107  C108  S    
C48   O14   A    
C14   C230  A    
C181  C190  A    
O24   Zn11  S    
O9    Zn5   S    
C159  H119  S    
C22   H92   S    
C131  H38   S    
C71   H155  S    
C111  H173  S    
Br3   C180  S    
C45   C51   S    
C109  H167  S    
C123  H26   S    
C189  O2    A    
C134  H53   S    
C126  C192  S    
C75   C84   A    
C120  H12   S    
C102  H142  S    
C180  C232  A    
C46   C165  S    
C148  C149  S    
Br5   C182  S    
C59   H97   S    
C87   C155  S    
C215  C232  A    
C56   H95   S    
C37   C43   A    
C157  C165  S    
C149  H82   S    
C38   C44   A    
C99   H136  S    
C150  C189  S    
C151  C160  S    
C196  H126  S    
C20   C34   A    
C188  C197  A    
C133  H43   S    
C53   O24   A    
C9    C214  A    
C57   C154  S    
C103  H150  S    
O4    Zn13  S    
C95   H112  S    
C46   C88   S    
C121  C190  S    
C34   C43   A    
O1    Zn16  S    
C60   H98   S    
O23   Zn5   S    
C144  H71   S    
C127  H27   S    
C61   C70   A    
C128  H36   S    
C116  H175  S    
C89   C163  S    
C19   C36   A    
C63   C72   A    
C129  H32   S    
C21   C42   A    
C104  H147  S    
C125  H22   S    
C211  O4    A    
C24   C95   S    
C68   C111  S    
C66   C67   A    
O43   Zn4   S    
C152  H113  S    
C35   C152  S    
C98   H140  S    
C106  H152  S    
O34   Zn8   S    
C99   H138  S    
C126  H31   S    
C62   H101  S    
C160  C222  S    
C196  C205  A    
C12   C217  A    
C21   C30   A    
C123  C191  S    
C111  H172  S    
C10   C215  A    
C114  H171  S    
C101  C171  T    
C177  C230  A    
C70   H144  S    
C191  C199  A    
C115  C186  S    
C87   C161  S    
C107  H162  S    
C145  C210  S    
C48   O16   A    
C197  H129  S    
C153  C162  S    
C8    C229  S    
C124  C200  S    
O42   Zn3   S    
C195  C204  A    
C61   C82   A    
C72   H122  S    
C161  C170  S    
C122  H17   S    
C145  H81   S    
C111  C114  S    
C51   O21   A    
C110  H163  S    
C29   H2    S    
C179  C187  A    
C108  H160  S    
Br4   C181  S    
C148  H85   S    
C123  C125  S    
C141  H69   S    
C15   C219  A    
C35   C164  S    
C167  O51   A    
C136  H49   S    
C149  H84   S    
C4    C182  A    
C100  H146  S    
C42   C47   A    
C5    C183  A    
C96   H135  S    
C128  H37   S    
C141  C208  S    
C57   C89   S    
C6    C219  A    
C35   C105  S    
C4    C217  A    
C157  C222  S    
O49   Zn11  S    
C186  C195  A    
C129  H33   S    
C134  C136  S    
C184  C193  A    
C58   C76   A    
C71   C72   A    
C53   C83   S    
C14   C224  S    
C180  C188  A    
C30   H57   S    
C92   C165  S    
O20   Zn7   S    
C16   C220  A    
C17   C38   A    
C44   C48   S    
C159  C168  S    
C122  H16   S    
