data_mof_unit_18975.cif
_audit_creation_date              2012-12-10T17:35:01-0500
_audit_creation_method            fapswitch 2.2
_symmetry_space_group_name_H-M    P1
_symmetry_Int_Tables_number       1
_space_group_crystal_system       triclinic
_cell_length_a                    12.329882
_cell_length_b                    13.19148
_cell_length_c                    13.837308
_cell_angle_alpha                 105.090266
_cell_angle_beta                  73.668757
_cell_angle_gamma                 116.888539
_cell_volume                      1902.85946316

loop_
_atom_site_label
_atom_site_type_symbol
_atom_type_description
_atom_site_fract_x
_atom_site_fract_y
_atom_site_fract_z
_atom_type_partial_charge
C1    C     C_R   0.144899 0.713274 0.505501 0.784568
C2    C     C_1   0.979706 0.516024 0.792748 -0.215735
C3    C     C_R   0.741598 0.972213 0.371197 -0.191869
C4    C     C_R   0.775045 0.164313 0.461702 -0.053865
C5    C     C_R   0.178581 0.918072 0.547933 -0.240554
C6    C     C_R   0.254254 0.035729 0.554232 0.065974
C7    C     C_R   0.381947 0.070765 0.519277 -0.231038
C8    C     C_R   0.434719 0.989728 0.476383 0.060633
C9    C     C_R   0.355035 0.872302 0.455568 0.074889
C10   C     C_R   0.564612 0.022074 0.452562 0.087288
C11   C     C_R   0.613229 0.940930 0.394658 0.169630
C12   C     C_R   0.985225 0.506127 0.686640 0.828575
C13   C     C_R   0.533047 0.829996 0.360260 -0.242515
C14   C     C_R   0.405763 0.796185 0.389660 -0.193135
C15   C     C_R   0.647300 0.131797 0.488530 -0.251737
C16   C     C_R   0.822338 0.083744 0.404057 -0.207775
C17   C     C_R   0.227337 0.835645 0.500533 -0.121301
C18   C     C_R   0.642835 0.678608 0.657925 -0.308723
C19   C     C_R   0.246433 0.345061 0.369980 -0.055037
C20   C     C_R   0.339344 0.303986 0.347149 0.411998
C21   C     C_R   0.441530 0.364831 0.394961 -0.249299
C22   C     C_R   0.448436 0.461410 0.470676 -0.082904
C23   C     C_R   0.855958 0.286107 0.484699 0.790139
C24   C     C_R   0.347349 0.494740 0.495768 0.276578
C25   C     C_R   0.549913 0.524081 0.524337 -0.008790
C26   C     C_R   0.545966 0.616070 0.603636 0.176094
C27   C     C_R   0.445047 0.644838 0.628949 -0.287222
C28   C     C_R   0.347957 0.585381 0.576529 -0.154188
C29   C     C_R   0.656114 0.500180 0.503071 0.022280
C30   C     C_R   0.743955 0.650401 0.633597 0.068112
C31   C     C_R   0.015616 0.495414 0.313485 0.806265
C32   C     C_1   0.023438 0.491094 0.207940 -0.159761
C33   C     C_2   0.029962 0.484435 0.014632 -0.241068
C34   C     C_2   0.970825 0.534833 0.989773 0.491584
C35   C     C_1   0.975181 0.525040 0.882209 -0.179985
C36   C     C_1   0.027987 0.487542 0.119434 0.080849
Cu1   Cu    Cu3+1 0.899780 0.525060 0.522890 0.938890
Cu2   Cu    Cu3+1 0.100220 0.474940 0.477110 0.918310
H1    H     H_    0.348637 0.710767 0.357186 0.181191
H2    H     H_    0.819209 0.698446 0.675083 0.122907
H3    H     H_    0.440782 0.714238 0.690357 0.152007
H4    H     H_    0.640343 0.748915 0.718784 0.138923
H5    H     H_    0.667888 0.432978 0.443232 0.128200
H6    H     H_    0.168863 0.301457 0.330951 0.130884
H7    H     H_    0.512034 0.331895 0.373692 0.159445
H8    H     H_    0.274241 0.612747 0.603452 0.204405
H9    H     H_    0.079378 0.439122 0.956218 0.108607
H10   H     H_    0.921292 0.107626 0.382258 0.138262
H11   H     H_    0.568736 0.768454 0.311864 0.149229
H12   H     H_    0.779453 0.910880 0.326377 0.134508
H13   H     H_    0.614152 0.193586 0.538903 0.149309
H14   H     H_    0.081224 0.890641 0.582268 0.155713
H15   H     H_    0.438078 0.161881 0.522183 0.129185
N1    N     N_R   0.748810 0.563010 0.557590 -0.180314
N2    N     N_R   0.250540 0.437620 0.443020 -0.221261
O1    O     O_R   0.025040 0.682470 0.528790 -0.581804
O2    O     O_R   0.194310 0.640150 0.490130 -0.605035
O3    O     O_R   0.903380 0.524130 0.659910 -0.571584
O4    O     O_R   0.072660 0.481800 0.621240 -0.593008
O5    O     O_R   0.805690 0.359850 0.509870 -0.586471
O6    O     O_R   0.974960 0.317530 0.471210 -0.588007
O7    O     O_R   0.927340 0.518200 0.378760 -0.562876
O8    O     O_R   0.096620 0.475870 0.340090 -0.584553
O9    O     O_3   0.908216 0.591961 0.067650 -0.566883
C37   C     C_3   0.852930 0.643817 0.030694 0.098739
H16   H     H_    0.781412 0.577528 0.986698 0.153051
H17   H     H_    0.924202 0.708522 0.982129 0.143787
C38   C     C_3   0.789897 0.705514 0.120629 -0.808470
H18   H     H_    0.859138 0.773000 0.165745 0.244584
H19   H     H_    0.745838 0.746648 0.092695 0.197999
H20   H     H_    0.717507 0.643183 0.170495 0.253866
O10   O     O_3   0.336195 0.207419 0.275546 -0.573516
C39   C     C_3   0.221384 0.112512 0.295283 0.045789
H21   H     H_    0.154507 0.112012 0.255301 0.138533
H22   H     H_    0.180945 0.113249 0.378226 0.139854
C40   C     C_3   0.240277 0.001624 0.255277 -0.746710
H23   H     H_    0.306145 0.999740 0.294813 0.253864
H24   H     H_    0.150459 0.926508 0.269565 0.198864
H25   H     H_    0.277742 0.995482 0.172009 0.250100
C41   C     C_R   0.200418 0.121889 0.602009 0.115918
C42   C     C_R   0.083622 0.102345 0.587183 -0.197623
C43   C     C_R   0.031271 0.181377 0.635058 -0.110318
C44   C     C_R   0.094467 0.280313 0.698371 -0.076009
C45   C     C_R   0.211247 0.302067 0.712214 -0.139262
C46   C     C_R   0.264094 0.223374 0.664582 -0.148519
H26   H     H_    0.033026 0.026304 0.538205 0.124053
H27   H     H_    0.941200 0.165435 0.623703 0.132243
H28   H     H_    0.052515 0.339625 0.737506 0.136392
H29   H     H_    0.260125 0.379215 0.761056 0.132535
H30   H     H_    0.353242 0.240688 0.678910 0.123120

loop_
_geom_bond_atom_site_label_1
_geom_bond_atom_site_label_2
_ccdc_geom_bond_type
C2    C35   T    
C8    C9    A    
C39   H21   S    
C19   C20   A    
C18   C26   A    
C40   H25   S    
C2    C12   S    
C16   H10   S    
C42   C43   A    
C7    C8    A    
C24   N2    A    
C30   N1    A    
C28   H8    S    
C26   C27   A    
C41   C46   A    
C32   C36   T    
C1    O1    A    
C40   H24   S    
C10   C15   A    
C18   H4    S    
C5    C6    A    
C5    C17   A    
C29   N1    A    
C43   H27   S    
C33   C36   S    
C34   C35   S    
C14   H1    S    
C12   O4    A    
Cu2   N2    S    
C44   C45   A    
C38   H18   S    
C37   H17   S    
C22   C25   A    
C5    H14   S    
C18   C30   A    
C15   H13   S    
C24   C28   A    
Cu1   O3    S    
Cu2   O6    S    
C12   O3    A    
C44   H28   S    
Cu1   O1    S    
C21   C22   A    
C29   H5    S    
C39   H22   S    
C31   O7    A    
C3    H12   S    
Cu1   O7    S    
C21   H7    S    
C25   C29   A    
C23   O5    A    
C31   O8    A    
C40   H23   S    
C4    C23   S    
C41   C42   A    
C25   C26   A    
C4    C16   A    
C9    C14   A    
Cu1   Cu2   S    
C1    O2    A    
Cu2   O2    S    
C27   H3    S    
C6    C41   S    
C31   C32   S    
C37   C38   S    
C34   O9    S    
C33   C34   D    
C30   H2    S    
C45   C46   A    
C13   H11   S    
Cu1   N1    S    
C9    C17   A    
C43   C44   A    
C33   H9    S    
C39   C40   S    
C22   C24   A    
C45   H29   S    
C7    H15   S    
C19   H6    S    
Cu2   O8    S    
C19   N2    A    
C42   H26   S    
O10   C39   S    
C46   H30   S    
C6    C7    A    
C1    C17   S    
O9    C37   S    
C4    C15   A    
C11   C13   A    
C38   H20   S    
Cu1   O5    S    
C3    C11   A    
C10   C11   A    
Cu2   O4    S    
C23   O6    A    
C20   C21   A    
C8    C10   A    
C37   H16   S    
C27   C28   A    
C38   H19   S    
C20   O10   S    
C13   C14   A    
C3    C16   A    
