data_mof_unit_18891.cif
_audit_creation_date              2012-12-11T15:44:49-0500
_audit_creation_method            fapswitch 2.2
_symmetry_space_group_name_H-M    P1
_symmetry_Int_Tables_number       1
_space_group_crystal_system       triclinic
_cell_length_a                    19.009964
_cell_length_b                    11.032272
_cell_length_c                    18.76628
_cell_angle_alpha                 90.255982
_cell_angle_beta                  90.223627
_cell_angle_gamma                 90.313246
_cell_volume                      3935.59384318

loop_
_atom_site_label
_atom_site_type_symbol
_atom_type_description
_atom_site_fract_x
_atom_site_fract_y
_atom_site_fract_z
_atom_type_partial_charge
C1    C     C_R   0.760886 0.533572 0.646341 0.546504
C2    C     C_R   0.224630 0.482297 0.361801 0.546058
C3    C     C_R   0.260886 0.033572 0.646341 0.546504
C4    C     C_R   0.724630 0.982297 0.361801 0.546058
C5    C     C_R   0.738070 0.966762 0.560601 0.243580
C6    C     C_R   0.166175 0.115662 0.481126 0.220914
C7    C     C_R   0.238070 0.466762 0.560601 0.243581
C8    C     C_R   0.666175 0.615662 0.481126 0.220914
C9    C     C_R   0.721512 0.936628 0.489932 -0.128813
C10   C     C_R   0.177237 0.097344 0.553955 -0.144016
C11   C     C_R   0.221512 0.436628 0.489932 -0.128813
C12   C     C_R   0.677237 0.597344 0.553955 -0.144016
C13   C     C_3   0.738631 0.255913 0.428560 -0.262133
C14   C     C_3   0.373096 0.102093 0.526541 -0.244353
C15   C     C_3   0.238631 0.755913 0.428560 -0.262134
C16   C     C_3   0.873096 0.602093 0.526541 -0.244352
C17   C     C_3   0.747301 0.294303 0.506114 -0.272603
C18   C     C_3   0.360469 0.125966 0.447816 -0.278528
C19   C     C_3   0.247301 0.794303 0.506114 -0.272604
C20   C     C_3   0.860469 0.625966 0.447816 -0.278527
C21   C     C_R   0.754590 0.087984 0.576303 0.036024
C22   C     C_R   0.223514 0.141787 0.436364 0.001113
C23   C     C_R   0.254590 0.587984 0.576303 0.036024
C24   C     C_R   0.723514 0.641787 0.436364 0.001113
C25   C     C_R   0.000609 0.351583 0.426833 -0.026220
C26   C     C_R   0.002873 0.328042 0.576042 -0.055131
C27   C     C_R   0.500609 0.851584 0.426833 -0.026220
C28   C     C_R   0.502873 0.828042 0.576042 -0.055131
C29   C     C_R   0.940610 0.155603 0.415199 -0.068038
C30   C     C_R   0.963215 0.112533 0.559329 -0.050309
C31   C     C_R   0.440610 0.655603 0.415199 -0.068037
C32   C     C_R   0.463215 0.612533 0.559329 -0.050308
C33   C     C_R   0.918179 0.046905 0.445281 -0.129685
C34   C     C_R   0.930868 0.024309 0.516864 -0.126516
C35   C     C_R   0.418179 0.546905 0.445281 -0.129685
C36   C     C_R   0.430868 0.524309 0.516864 -0.126516
C37   C     C_R   0.979891 0.228919 0.531958 0.039044
C38   C     C_R   0.973691 0.245613 0.457532 0.047059
C39   C     C_R   0.479891 0.728919 0.531958 0.039043
C40   C     C_R   0.473691 0.745613 0.457532 0.047059
C41   C     C_R   0.030869 0.432849 0.544764 0.000949
C42   C     C_R   0.020208 0.451826 0.471751 0.010062
C43   C     C_R   0.530869 0.932849 0.544764 0.000949
C44   C     C_R   0.520208 0.951826 0.471751 0.010062
C45   C     C_R   0.773341 0.125819 0.646496 0.570470
C46   C     C_R   0.210674 0.165936 0.361590 0.571325
C47   C     C_R   0.273340 0.625819 0.646496 0.570470
C48   C     C_R   0.710674 0.665936 0.361590 0.571325
C49   C     C_R   0.063531 0.524882 0.586551 -0.086392
C50   C     C_R   0.027963 0.572629 0.446956 -0.073889
C51   C     C_R   0.563531 0.024882 0.586551 -0.086392
C52   C     C_R   0.527963 0.072629 0.446956 -0.073889
C53   C     C_R   0.078325 0.637899 0.558234 -0.127775
C54   C     C_R   0.058529 0.662205 0.488899 -0.140068
C55   C     C_R   0.578325 0.137899 0.558234 -0.127775
C56   C     C_R   0.558529 0.162205 0.488899 -0.140068
C57   C     C_R   0.742346 0.049331 0.069037 0.015867
C58   C     C_R   0.265914 0.020542 0.934596 0.018394
C59   C     C_R   0.242346 0.549331 0.069037 0.015867
C60   C     C_R   0.765914 0.520542 0.934596 0.018394
C61   C     C_R   0.793462 0.987614 0.030456 0.033278
C62   C     C_R   0.221767 0.950838 0.977264 0.023084
C63   C     C_R   0.293463 0.487614 0.030456 0.033278
C64   C     C_R   0.721766 0.450838 0.977264 0.023084
C65   C     C_R   0.797860 0.998057 0.957725 0.027663
C66   C     C_R   0.215470 0.974816 0.049391 0.023294
C67   C     C_R   0.297860 0.498057 0.957725 0.027663
C68   C     C_R   0.715470 0.474816 0.049391 0.023294
C69   C     C_R   0.690669 0.111924 0.955933 -0.154988
C70   C     C_R   0.300639 0.137066 0.039038 -0.169318
C71   C     C_R   0.190669 0.611924 0.955933 -0.154988
C72   C     C_R   0.800639 0.637066 0.039038 -0.169318
C73   C     C_R   0.687275 0.103923 0.030625 -0.149550
C74   C     C_R   0.306370 0.113128 0.966222 -0.168723
C75   C     C_R   0.187275 0.603923 0.030625 -0.149550
C76   C     C_R   0.806370 0.613128 0.966222 -0.168723
C77   C     C_3   0.871198 0.987252 0.040740 -0.278469
C78   C     C_3   0.144149 0.932700 0.968595 -0.264608
C79   C     C_3   0.371198 0.487252 0.040740 -0.278469
C80   C     C_3   0.644149 0.432700 0.968595 -0.264608
C81   C     C_3   0.876591 0.998907 0.960763 -0.268421
C82   C     C_3   0.137910 0.951025 0.047778 -0.267252
C83   C     C_3   0.376591 0.498907 0.960763 -0.268421
C84   C     C_3   0.637910 0.451025 0.047778 -0.267252
C85   C     C_R   0.750592 0.071184 0.920044 0.016106
C86   C     C_R   0.251925 0.072542 0.080579 0.016173
C87   C     C_R   0.250592 0.571184 0.920044 0.016106
C88   C     C_R   0.751925 0.572542 0.080579 0.016173
C89   C     C_R   0.971657 0.343958 0.647307 0.513679
C90   C     C_R   0.028782 0.348396 0.353378 0.530909
C91   C     C_R   0.471657 0.843958 0.647307 0.513679
C92   C     C_R   0.528782 0.848396 0.353378 0.530909
C93   C     C_R   0.018246 0.341366 0.068670 0.020312
C94   C     C_R   0.009711 0.341194 0.919705 0.017540
C95   C     C_R   0.518246 0.841366 0.068670 0.020312
C96   C     C_R   0.509711 0.841194 0.919705 0.017540
C97   C     C_R   0.028375 0.447532 0.030055 0.046281
C98   C     C_R   0.025522 0.448302 0.957076 0.027049
C99   C     C_R   0.528375 0.947532 0.030055 0.046281
C100  C     C_R   0.525522 0.948302 0.957076 0.027049
C101  C     C_R   0.014139 0.230715 0.956475 -0.168210
C102  C     C_R   0.016079 0.230953 0.031138 -0.168763
C103  C     C_R   0.514139 0.730715 0.956475 -0.168210
C104  C     C_R   0.516079 0.730953 0.031138 -0.168763
C105  C     C_3   0.992609 0.566648 0.037812 -0.276781
C106  C     C_3   0.991051 0.570424 0.957447 -0.271676
C107  C     C_3   0.492609 0.066648 0.037812 -0.276781
C108  C     C_3   0.491051 0.070424 0.957447 -0.271676
C109  C     C_R   0.772743 0.487899 0.859915 0.563565
C110  C     C_R   0.237634 0.525177 0.145121 0.555166
C111  C     C_R   0.272743 0.987899 0.859915 0.563565
C112  C     C_R   0.737634 0.025177 0.145121 0.555166
C113  C     C_R   0.771887 0.123912 0.852182 0.538192
C114  C     C_R   0.228078 0.124580 0.147581 0.557093
C115  C     C_R   0.271887 0.623912 0.852182 0.538192
C116  C     C_R   0.728078 0.624580 0.147581 0.557093
C117  C     C_R   0.971736 0.347353 0.852475 0.534431
C118  C     C_R   0.032905 0.346859 0.144429 0.543480
C119  C     C_R   0.471736 0.847353 0.852475 0.534431
C120  C     C_R   0.532905 0.846859 0.144429 0.543480
C121  C     C_R   0.731462 0.020391 0.434899 -0.011185
C122  C     C_R   0.245871 0.098913 0.581522 0.001407
C123  C     C_R   0.231462 0.520391 0.434899 -0.011185
C124  C     C_R   0.745871 0.598913 0.581522 0.001406
C125  C     C_R   0.760666 0.132727 0.450915 0.029326
C126  C     C_R   0.299907 0.144768 0.539092 0.061034
C127  C     C_R   0.260666 0.632727 0.450915 0.029326
C128  C     C_R   0.799907 0.644768 0.539092 0.061034
C129  C     C_R   0.769404 0.167329 0.520622 -0.012778
C130  C     C_R   0.288690 0.166680 0.467793 -0.023850
C131  C     C_R   0.269404 0.667329 0.520622 -0.012778
C132  C     C_R   0.788690 0.666680 0.467793 -0.023850
Cr1   Cr    Cr6+3 0.885860 0.491680 0.749630 1.009950
Cr2   Cr    Cr6+3 0.114140 0.491680 0.250370 0.995460
Cr3   Cr    Cr6+3 0.385860 0.991680 0.749630 1.009950
Cr4   Cr    Cr6+3 0.614140 0.991680 0.250370 0.995460
Cr5   Cr    Cr6+3 0.730490 0.332970 0.748720 0.989405
Cr6   Cr    Cr6+3 0.269510 0.332970 0.251280 0.994633
Cr7   Cr    Cr6+3 0.230490 0.832970 0.748720 0.989405
Cr8   Cr    Cr6+3 0.769510 0.832970 0.251280 0.994633
Cr9   Cr    Cr6+3 0.887570 0.179310 0.750150 1.001083
Cr10  Cr    Cr6+3 0.112430 0.179310 0.249850 1.011719
Cr11  Cr    Cr6+3 0.387570 0.679310 0.750150 1.001083
Cr12  Cr    Cr6+3 0.612430 0.679310 0.249850 1.011719
H1    H     H_    0.101831 0.708070 0.591161 0.118057
H2    H     H_    0.065555 0.750669 0.467088 0.075136
H3    H     H_    0.601831 0.208070 0.591161 0.118057
H4    H     H_    0.565555 0.250669 0.467088 0.075136
H5    H     H_    0.649520 0.156371 0.926628 0.116484
H6    H     H_    0.329246 0.213529 0.061049 0.134629
H7    H     H_    0.149520 0.656371 0.926628 0.116484
H8    H     H_    0.829246 0.713529 0.061049 0.134629
H9    H     H_    0.643372 0.143360 0.058306 0.124989
H10   H     H_    0.339019 0.171974 0.934174 0.128858
H11   H     H_    0.143372 0.643360 0.058306 0.124989
H12   H     H_    0.839019 0.671974 0.934174 0.128858
H13   H     H_    0.891077 0.899396 0.060963 0.133148
H14   H     H_    0.128607 0.841071 0.951260 0.126939
H15   H     H_    0.391077 0.399396 0.060963 0.133148
H16   H     H_    0.628607 0.341071 0.951260 0.126939
H17   H     H_    0.890415 0.068605 0.070242 0.137797
H18   H     H_    0.119109 0.006451 0.937393 0.148771
H19   H     H_    0.390416 0.568605 0.070242 0.137797
H20   H     H_    0.619109 0.506451 0.937393 0.148771
H21   H     H_    0.898499 0.087485 0.944516 0.166686
H22   H     H_    0.106196 0.031239 0.061311 0.161263
H23   H     H_    0.398499 0.587485 0.944516 0.166686
H24   H     H_    0.606196 0.531239 0.061311 0.161263
H25   H     H_    0.899893 0.918086 0.934502 0.131294
H26   H     H_    0.123454 0.867095 0.076937 0.126398
H27   H     H_    0.399893 0.418086 0.934502 0.131294
H28   H     H_    0.623454 0.367095 0.076937 0.126398
H29   H     H_    0.026209 0.638178 0.062101 0.131295
H30   H     H_    0.937204 0.567941 0.935947 0.168868
H31   H     H_    0.526209 0.138178 0.062101 0.131295
H32   H     H_    0.437204 0.067941 0.935947 0.168868
H33   H     H_    0.939674 0.557462 0.062139 0.142500
H34   H     H_    0.025155 0.642521 0.934818 0.120179
H35   H     H_    0.439674 0.057462 0.062139 0.142500
H36   H     H_    0.525155 0.142521 0.934818 0.120179
H37   H     H_    0.700036 0.849488 0.478284 0.110002
H38   H     H_    0.133206 0.070118 0.586823 0.129462
H39   H     H_    0.200036 0.349488 0.478284 0.110002
H40   H     H_    0.633206 0.570118 0.586823 0.129461
H41   H     H_    0.183713 0.755046 0.408592 0.141227
H42   H     H_    0.880249 0.504648 0.539028 0.143107
H43   H     H_    0.683712 0.255045 0.408592 0.141227
H44   H     H_    0.380249 0.004648 0.539028 0.143107
H45   H     H_    0.777655 0.299041 0.392561 0.141093
H46   H     H_    0.412745 0.164199 0.550870 0.161732
H47   H     H_    0.277655 0.799041 0.392561 0.141093
H48   H     H_    0.912745 0.664199 0.550870 0.161732
H49   H     H_    0.791073 0.359741 0.514416 0.133014
H50   H     H_    0.392731 0.202019 0.426760 0.134602
H51   H     H_    0.291074 0.859741 0.514416 0.133014
H52   H     H_    0.892731 0.702019 0.426760 0.134602
H53   H     H_    0.697000 0.318650 0.532268 0.141645
H54   H     H_    0.359884 0.042168 0.414620 0.136036
H55   H     H_    0.197001 0.818650 0.532268 0.141645
H56   H     H_    0.859884 0.542168 0.414620 0.136036
H57   H     H_    0.894035 0.977559 0.412367 0.141028
H58   H     H_    0.917197 0.936980 0.539164 0.129091
H59   H     H_    0.394035 0.477559 0.412368 0.141028
H60   H     H_    0.417197 0.436980 0.539164 0.129090
H61   H     H_    0.931460 0.169320 0.358839 0.116428
H62   H     H_    0.977669 0.085340 0.612532 0.137039
H63   H     H_    0.431460 0.669319 0.358839 0.116428
H64   H     H_    0.477670 0.585341 0.612532 0.137038
H65   H     H_    0.006749 0.603180 0.396797 0.140781
H66   H     H_    0.075702 0.511225 0.642181 0.114411
H67   H     H_    0.506749 0.103179 0.396797 0.140781
H68   H     H_    0.575702 0.011225 0.642181 0.114411
O1    O     O_R   0.957020 0.451640 0.669920 -0.517726
O2    O     O_R   0.042980 0.451640 0.330080 -0.546264
O3    O     O_R   0.457020 0.951640 0.669920 -0.517726
O4    O     O_R   0.542980 0.951640 0.330080 -0.546264
O5    O     O_R   0.736470 0.210100 0.823360 -0.520100
O6    O     O_R   0.263530 0.210100 0.176640 -0.504890
O7    O     O_R   0.236470 0.710100 0.823360 -0.520100
O8    O     O_R   0.763530 0.710100 0.176640 -0.504890
O9    O     O_R   0.831960 0.093290 0.830130 -0.519948
O10   O     O_R   0.168040 0.093290 0.169870 -0.523293
O11   O     O_R   0.331960 0.593290 0.830130 -0.519948
O12   O     O_R   0.668040 0.593290 0.169870 -0.523293
O13   O     O_R   0.945600 0.250580 0.824860 -0.512305
O14   O     O_R   0.054400 0.250580 0.175140 -0.511166
O15   O     O_R   0.445600 0.750580 0.824860 -0.512305
O16   O     O_R   0.554400 0.750580 0.175140 -0.511166
O17   O     O_3   0.834640 0.334650 0.749500 -0.260763
O18   O     O_3   0.165360 0.334650 0.250500 -0.283580
O19   O     O_3   0.334640 0.834650 0.749500 -0.260763
O20   O     O_3   0.665360 0.834650 0.250500 -0.283580
O21   O     O_R   0.821450 0.543440 0.674610 -0.482218
O22   O     O_R   0.178550 0.543440 0.325390 -0.495164
O23   O     O_R   0.321450 0.043440 0.674610 -0.482218
O24   O     O_R   0.678550 0.043440 0.325390 -0.495164
O25   O     O_R   0.715320 0.458650 0.668100 -0.536766
O26   O     O_R   0.284680 0.458650 0.331900 -0.530192
O27   O     O_R   0.215320 0.958650 0.668100 -0.536766
O28   O     O_R   0.784680 0.958650 0.331900 -0.530192
O29   O     O_R   0.737170 0.209590 0.674530 -0.525327
O30   O     O_R   0.262830 0.209590 0.325470 -0.524957
O31   O     O_R   0.237170 0.709590 0.674530 -0.525327
O32   O     O_R   0.762830 0.709590 0.325470 -0.524957
O33   O     O_R   0.832710 0.092740 0.669580 -0.490784
O34   O     O_R   0.167290 0.092740 0.330420 -0.486179
O35   O     O_R   0.332710 0.592740 0.669580 -0.490784
O36   O     O_R   0.667290 0.592740 0.330420 -0.486179
O37   O     O_R   0.946290 0.250060 0.676040 -0.516993
O38   O     O_R   0.053710 0.250060 0.323960 -0.479809
O39   O     O_R   0.446290 0.750060 0.676040 -0.516993
O40   O     O_R   0.553710 0.750060 0.323960 -0.479809
O41   O     O_R   0.956270 0.452200 0.830470 -0.533963
O42   O     O_R   0.043730 0.452200 0.169530 -0.519074
O43   O     O_R   0.456270 0.952200 0.830470 -0.533963
O44   O     O_R   0.543730 0.952200 0.169530 -0.519074
O45   O     O_R   0.820760 0.543950 0.823440 -0.509664
O46   O     O_R   0.179240 0.543950 0.176560 -0.501219
O47   O     O_R   0.320760 0.043950 0.823440 -0.509664
O48   O     O_R   0.679240 0.043950 0.176560 -0.501219
O49   O     O_R   0.714570 0.459210 0.828640 -0.518771
O50   O     O_R   0.285430 0.459210 0.171360 -0.515980
O51   O     O_R   0.214570 0.959210 0.828640 -0.518771
O52   O     O_R   0.785430 0.959210 0.171360 -0.515980
O53   O     O_3   0.750904 0.875822 0.609449 -0.563703
C133  C     C_3   0.692992 0.862129 0.655047 -0.117195
H69   H     H_    0.646166 0.829593 0.624977 0.114231
H70   H     H_    0.682054 0.946652 0.685308 0.106250
H71   H     H_    0.705785 0.791462 0.694825 0.151025
O54   O     O_3   0.099709 0.103261 0.452730 -0.546378
C134  C     C_3   0.084880 0.978806 0.446464 -0.093959
H72   H     H_    0.069328 0.942466 0.499210 0.100127
H73   H     H_    0.129673 0.927468 0.424201 0.116776
H74   H     H_    0.041332 0.965120 0.407999 0.141569
O55   O     O_3   0.250904 0.375822 0.609449 -0.563703
C135  C     C_3   0.192992 0.362129 0.655047 -0.117195
H75   H     H_    0.146166 0.329593 0.624977 0.114231
H76   H     H_    0.182054 0.446652 0.685308 0.106250
H77   H     H_    0.205785 0.291462 0.694825 0.151025
O56   O     O_3   0.599709 0.603260 0.452730 -0.546378
C136  C     C_3   0.584881 0.478805 0.446465 -0.093959
H78   H     H_    0.569329 0.442465 0.499211 0.100127
H79   H     H_    0.629673 0.427468 0.424200 0.116776
H80   H     H_    0.541331 0.465119 0.408000 0.141568
H81   H     H_    0.009069 0.145379 0.928322 0.118499
H82   H     H_    0.012689 0.146153 0.059388 0.116233
H83   H     H_    0.509070 0.645379 0.928322 0.118499
H84   H     H_    0.512689 0.646153 0.059388 0.116234

loop_
_geom_bond_atom_site_label_1
_geom_bond_atom_site_label_2
_ccdc_geom_bond_type
C5    O53   S    
C6    O54   S    
Cr9   O37   S    
C70   H6    S    
C47   O35   A    
C2    C123  S    
C136  H80   S    
C90   O38   A    
Cr11  O39   S    
C94   C117  S    
C95   C99   A    
C134  H72   S    
C29   C33   A    
Cr8   O28   S    
C91   O3    A    
C3    O23   A    
Cr8   O8    S    
C35   C36   A    
C50   H65   S    
C1    O21   A    
Cr10  O34   S    
C83   H27   S    
C70   C74   A    
C9    C121  A    
C17   H53   S    
C81   H25   S    
C87   C115  S    
C80   C84   S    
C97   C105  S    
C122  C126  A    
C15   C127  S    
C22   C130  A    
Cr9   O13   S    
C20   C132  S    
C41   C49   A    
Cr1   O41   S    
C30   C34   A    
C17   C129  S    
C60   C76   A    
Cr8   O32   S    
C93   C102  A    
C43   C44   A    
C31   H63   S    
C37   C38   A    
C84   H24   S    
C66   C82   S    
C15   H41   S    
C78   C82   S    
C16   C20   S    
C101  H81   S    
Cr4   O48   S    
C103  H83   S    
C112  O52   A    
C105  H33   S    
C10   H38   S    
C18   C130  S    
C124  C128  A    
C90   O2    A    
C15   H47   S    
C107  H35   S    
Cr11  O15   S    
C10   C122  A    
C14   C126  S    
C57   C61   A    
C59   C63   A    
C98   C106  S    
C60   C64   A    
C1    C124  S    
C48   O36   A    
C49   C53   A    
C51   C55   A    
Cr5   O25   S    
C127  C131  A    
C125  C129  A    
C5    C21   A    
Cr5   O5    S    
C126  C130  A    
Cr7   O19   S    
Cr9   O9    S    
C47   O31   A    
C88   C116  S    
C13   H43   S    
Cr7   O51   S    
C18   H50   S    
C97   C98   A    
C53   C54   A    
C118  O14   A    
C121  C125  A    
C25   C90   S    
C64   C68   A    
C110  O46   A    
Cr10  O18   S    
C29   H61   S    
C74   H10   S    
C57   C73   A    
C20   H56   S    
C60   C109  S    
C117  O41   A    
C27   C44   A    
C78   H14   S    
C61   C77   S    
C29   C38   A    
Cr9   O33   S    
C107  C108  S    
C32   H64   S    
Cr7   O31   S    
C44   C52   A    
C105  H29   S    
C4    O24   A    
C114  O6    A    
C21   C45   S    
C92   O40   A    
C100  C108  S    
C23   C47   S    
C62   C66   A    
C24   C48   S    
Cr6   O18   S    
O56   C136  S    
C46   O34   A    
C39   C40   A    
C1    O25   A    
C83   H23   S    
C5    C9    A    
C61   C65   A    
C25   C38   A    
C123  C127  A    
C27   C40   A    
C8    C12   A    
Cr2   O22   S    
C23   C131  A    
C21   C129  A    
C133  H70   S    
C104  H84   S    
C42   C50   A    
C93   C97   A    
C69   C85   A    
C58   C74   A    
C62   C78   S    
C84   H28   S    
C133  H71   S    
C66   C86   A    
C75   H11   S    
C136  H79   S    
Cr3   O47   S    
C13   C17   S    
C102  H82   S    
C85   C113  S    
Cr5   O29   S    
C112  O48   A    
C34   H58   S    
C7    C23   A    
C96   C100  A    
C8    C24   A    
C28   C91   S    
Cr2   O18   S    
C9    H37   S    
C14   H46   S    
Cr7   O7    S    
C135  H75   S    
Cr8   O52   S    
Cr11  O19   S    
C106  H34   S    
Cr5   O49   S    
C58   C62   A    
C134  H74   S    
C55   C56   A    
C101  C102  A    
C59   C75   A    
C41   C42   A    
C96   C119  S    
O55   C135  S    
C48   O32   A    
C91   O39   A    
C15   C19   S    
C50   C54   A    
C89   O37   A    
C115  O11   A    
C79   H15   S    
C80   H16   S    
C94   C98   A    
Cr9   O17   S    
C6    C22   A    
C31   C40   A    
C32   C39   A    
C80   H20   S    
C51   H68   S    
C2    O22   A    
C71   H7    S    
Cr6   O50   S    
C72   H8    S    
C18   H54   S    
C69   C73   A    
C120  O16   A    
C54   H2    S    
Cr1   O45   S    
Cr3   O19   S    
C64   C80   S    
C111  O47   A    
Cr10  O14   S    
C77   H17   S    
C58   C111  S    
C68   C84   S    
C49   H66   S    
Cr5   O17   S    
C45   O33   A    
C28   C39   A    
C76   H12   S    
C30   C37   A    
C116  O12   A    
C14   H44   S    
C24   C132  A    
C65   C81   S    
C135  H77   S    
C77   C81   S    
C53   H1    S    
C4    O28   A    
C8    O56   S    
Cr1   O21   S    
C114  O10   A    
C71   C87   A    
C22   C46   S    
Cr8   O20   S    
C31   C35   A    
C46   O30   A    
C109  O49   A    
C32   C36   A    
C89   O1    A    
C82   H22   S    
C19   H55   S    
Cr12  O20   S    
C11   C123  A    
C119  O43   A    
C25   C42   A    
C6    C10   A    
C26   C37   A    
C95   C120  S    
C99   C107  S    
C105  C106  S    
C28   C43   A    
Cr2   O2    S    
C69   H5    S    
C79   C83   S    
C43   C51   A    
C12   H40   S    
C107  H31   S    
C108  H32   S    
Cr11  O35   S    
C4    C121  S    
C92   O4    A    
Cr1   O17   S    
C96   C103  A    
C103  C104  A    
O54   C134  S    
Cr3   O43   S    
C13   C125  S    
C3    O27   A    
C106  H30   S    
C82   H26   S    
C19   H51   S    
Cr10  O38   S    
C14   C18   S    
C17   H49   S    
C72   C76   A    
C119  O15   A    
C63   C79   S    
C26   C89   S    
C7    C11   A    
Cr4   O20   S    
C117  O13   A    
C7    O55   S    
Cr11  O11   S    
C57   C112  S    
C30   H62   S    
Cr4   O24   S    
C59   C110  S    
C13   H45   S    
C108  H36   S    
C118  O42   A    
Cr3   O3    S    
C94   C101  A    
C52   H67   S    
C16   H48   S    
O53   C133  S    
Cr6   O30   S    
C3    C122  S    
Cr2   O46   S    
Cr12  O40   S    
C115  O7    A    
C128  C132  A    
C113  O5    A    
C72   C88   A    
C19   C131  S    
C63   C67   A    
Cr12  O12   S    
Cr7   O27   S    
C11   H39   S    
Cr2   O42   S    
C2    O26   A    
C136  H78   S    
C56   H4    S    
C120  O44   A    
C55   H3    S    
C99   C100  A    
C12   C124  A    
C113  O9    A    
C33   C34   A    
C27   C92   S    
C67   C83   S    
C16   C128  S    
C111  O51   A    
C135  H76   S    
C78   H18   S    
Cr12  O36   S    
C68   C88   A    
C116  O8    A    
C93   C118  S    
C70   C86   A    
C45   O29   A    
C95   C104  A    
C134  H73   S    
Cr4   O44   S    
C79   H19   S    
C65   C85   A    
C67   C87   A    
C86   C114  S    
Cr1   O1    S    
C16   H42   S    
C71   C75   A    
C35   H59   S    
C33   H57   S    
Cr10  O10   S    
Cr6   O26   S    
Cr3   O23   S    
C109  O45   A    
C110  O50   A    
C133  H69   S    
Cr6   O6    S    
C73   H9    S    
C81   H21   S    
Cr12  O16   S    
C36   H60   S    
C20   H52   S    
C52   C56   A    
C26   C41   A    
C77   H13   S    
Cr4   O4    S    
