data_mof_unit_29489.cif
_audit_creation_date              2012-12-10T21:10:48-0500
_audit_creation_method            fapswitch 2.2
_symmetry_space_group_name_H-M    P1
_symmetry_Int_Tables_number       1
_space_group_crystal_system       triclinic
_cell_length_a                    17.443932
_cell_length_b                    16.729064
_cell_length_c                    10.65217
_cell_angle_alpha                 91.086599
_cell_angle_beta                  90.235261
_cell_angle_gamma                 89.833811
_cell_volume                      3107.92564849

loop_
_atom_site_label
_atom_site_type_symbol
_atom_type_description
_atom_site_fract_x
_atom_site_fract_y
_atom_site_fract_z
_atom_type_partial_charge
C1    C     C_R   0.352618 0.500099 0.497866 0.889538
C2    C     C_R   0.114084 0.507448 0.420014 0.054540
C3    C     C_1   0.965753 0.508153 0.402362 -0.032722
C4    C     C_1   0.033842 0.507878 0.403450 -0.027288
C5    C     C_R   0.460836 0.831429 0.407027 -0.277331
C6    C     C_R   0.538526 0.833269 0.594329 -0.277186
C7    C     C_R   0.462048 0.747201 0.407944 0.016330
C8    C     C_R   0.538162 0.748976 0.592067 0.035019
C9    C     C_R   0.499331 0.875611 0.501145 0.161980
C10   C     C_1   0.498725 0.963482 0.501857 -0.049944
C11   C     C_1   0.498240 0.036660 0.502247 -0.054182
C12   C     C_R   0.647533 0.500093 0.498580 0.936218
C13   C     C_R   0.499705 0.499134 0.259944 0.995801
C14   C     C_R   0.499280 0.500712 0.739928 0.962430
C15   C     C_R   0.457899 0.166737 0.410158 -0.286036
C16   C     C_R   0.537932 0.168742 0.594718 -0.266551
C17   C     C_R   0.459566 0.250955 0.410721 -0.016856
C18   C     C_R   0.538324 0.252942 0.591795 0.000261
C19   C     C_R   0.497917 0.124504 0.502465 0.166647
C20   C     C_R   0.365072 0.554856 0.132388 -0.127581
C21   C     C_R   0.365124 0.557071 0.871015 -0.136867
C22   C     C_R   0.300935 0.582701 0.067962 -0.137854
C23   C     C_R   0.731024 0.501275 0.481039 -0.250838
C24   C     C_R   0.300897 0.583657 0.937418 -0.139792
C25   C     C_R   0.430997 0.529274 0.935182 0.028242
C26   C     C_R   0.430851 0.527768 0.066365 0.027749
C27   C     C_R   0.495852 0.496743 0.127758 -0.277107
C28   C     C_R   0.497052 0.501917 0.871994 -0.267618
C29   C     C_R   0.558334 0.463085 0.063472 0.346693
C30   C     C_R   0.561439 0.472119 0.934222 0.318739
C31   C     C_R   0.850421 0.575109 0.470631 -0.192303
C32   C     C_R   0.147809 0.570709 0.485782 -0.233205
C33   C     C_R   0.772860 0.573158 0.503594 0.181775
C34   C     C_R   0.269418 0.500471 0.478972 -0.207087
C35   C     C_R   0.225753 0.568796 0.513534 0.136617
C36   C     C_3   0.634494 0.351443 0.098850 0.146073
C37   C     C_3   0.589228 0.296464 0.184086 -0.324699
C38   C     C_3   0.609846 0.208875 0.159169 -1.015233
C39   C     C_3   0.683465 0.505727 0.879481 0.088515
C40   C     C_3   0.758095 0.470695 0.827457 -0.339791
C41   C     C_3   0.824094 0.530050 0.839514 -0.965075
C42   C     C_3   0.772933 0.718768 0.561957 -0.801114
C43   C     C_3   0.270279 0.704665 0.504341 -0.730723
C44   C     C_3   0.748484 0.306996 0.502224 0.067585
C45   C     C_R   0.768804 0.432651 0.431289 0.455358
C46   C     C_3   0.725698 0.223026 0.457709 -0.313969
C47   C     C_3   0.741869 0.161390 0.558273 -0.981376
C48   C     C_3   0.250299 0.297500 0.437249 0.078638
C49   C     C_3   0.276794 0.293088 0.574677 -0.337882
C50   C     C_3   0.254326 0.213705 0.632069 -0.965708
C51   C     C_R   0.233455 0.434155 0.418574 0.456391
C52   C     C_R   0.845382 0.437682 0.396496 -0.264020
C53   C     C_R   0.156098 0.440038 0.385072 -0.277647
C54   C     C_R   0.885416 0.508187 0.416802 0.035391
H1    H     H_    0.425831 0.134928 0.337804 0.141108
H2    H     H_    0.113536 0.621760 0.515701 0.147436
H3    H     H_    0.874095 0.385518 0.356820 0.151201
H4    H     H_    0.128439 0.391910 0.332796 0.144754
H5    H     H_    0.430056 0.861751 0.333267 0.140369
H6    H     H_    0.569169 0.865058 0.668377 0.137357
H7    H     H_    0.432341 0.713778 0.334826 0.124330
H8    H     H_    0.568555 0.716909 0.664223 0.119503
H9    H     H_    0.696682 0.340210 0.113361 0.172671
H10   H     H_    0.621871 0.334789 0.999421 0.157771
H11   H     H_    0.601784 0.312130 0.283730 0.282498
H12   H     H_    0.569050 0.138453 0.668111 0.140989
H13   H     H_    0.526930 0.304799 0.166554 0.211674
H14   H     H_    0.594828 0.191232 0.061083 0.266765
H15   H     H_    0.577520 0.170449 0.224023 0.279717
H16   H     H_    0.672100 0.198889 0.174656 0.266969
H17   H     H_    0.693509 0.523736 0.979473 0.179066
H18   H     H_    0.667343 0.559602 0.825646 0.117467
H19   H     H_    0.773122 0.415874 0.879685 0.222015
H20   H     H_    0.750005 0.453539 0.727196 0.206288
H21   H     H_    0.810297 0.585983 0.789755 0.266691
H22   H     H_    0.876587 0.503370 0.797332 0.267462
H23   H     H_    0.428276 0.282959 0.339561 0.155898
H24   H     H_    0.835687 0.544523 0.939995 0.268903
H25   H     H_    0.707714 0.628982 0.644471 0.216833
H26   H     H_    0.731455 0.764799 0.595571 0.237692
H27   H     H_    0.790106 0.733907 0.464971 0.252482
H28   H     H_    0.823483 0.719812 0.625706 0.225040
H29   H     H_    0.231386 0.648394 0.662544 0.209559
H30   H     H_    0.305064 0.749216 0.557894 0.236892
H31   H     H_    0.214091 0.732078 0.480546 0.214050
H32   H     H_    0.300972 0.688656 0.416188 0.242559
H33   H     H_    0.716213 0.322997 0.589125 0.152490
H34   H     H_    0.569772 0.286419 0.662868 0.143687
H35   H     H_    0.811029 0.305953 0.524751 0.123093
H36   H     H_    0.663767 0.221957 0.433812 0.242614
H37   H     H_    0.758505 0.206690 0.371717 0.217618
H38   H     H_    0.804331 0.158288 0.578344 0.263414
H39   H     H_    0.722171 0.101621 0.524714 0.271060
H40   H     H_    0.710934 0.177363 0.646186 0.258682
H41   H     H_    0.275649 0.246030 0.384488 0.159188
H42   H     H_    0.187104 0.289805 0.430644 0.120628
H43   H     H_    0.340030 0.299068 0.580189 0.255074
H44   H     H_    0.250501 0.342667 0.630632 0.205921
H45   H     H_    0.361965 0.553561 0.233658 0.129287
H46   H     H_    0.191079 0.206261 0.629467 0.262049
H47   H     H_    0.273856 0.212503 0.731364 0.269334
H48   H     H_    0.281789 0.163193 0.579884 0.267581
H49   H     H_    0.362380 0.558072 0.769647 0.141684
H50   H     H_    0.250907 0.602893 0.119494 0.135326
H51   H     H_    0.250818 0.604670 0.887498 0.123299
H52   H     H_    0.884996 0.627547 0.490175 0.153792
N1    N     N_R   0.500000 0.707230 0.500000 -0.083078
N2    N     N_R   0.500000 0.292770 0.500000 -0.103054
N3    N     N_2   0.736828 0.641003 0.563050 -0.272348
N4    N     N_2   0.259313 0.634606 0.579749 -0.288206
O1    O     O_R   0.389110 0.566570 0.499990 -0.607685
O2    O     O_3   0.625343 0.447550 0.866633 -0.664170
O3    O     O_3   0.730141 0.361929 0.407278 -0.626994
O4    O     O_3   0.276402 0.368190 0.379815 -0.636919
O5    O     O_R   0.610890 0.566570 0.500010 -0.609663
O6    O     O_R   0.389090 0.433480 0.499980 -0.596028
O7    O     O_R   0.610910 0.433480 0.500020 -0.577506
O8    O     O_R   0.500000 0.566560 0.316760 -0.637798
O9    O     O_R   0.500000 0.566560 0.683240 -0.645454
O10   O     O_R   0.499970 0.433470 0.316760 -0.620424
O11   O     O_R   0.500030 0.433470 0.683240 -0.612111
O12   O     O_3   0.620384 0.432960 0.130401 -0.640442
Zn1   Zn    Zn3+2 0.500000 0.588860 0.500000 0.949735
Zn2   Zn    Zn3+2 0.500000 0.411140 0.500000 0.961375

loop_
_geom_bond_atom_site_label_1
_geom_bond_atom_site_label_2
_ccdc_geom_bond_type
C38   H16   S    
C42   H26   S    
C23   C45   A    
C48   H41   S    
C27   C29   A    
C47   H38   S    
C36   O12   S    
C42   H28   S    
N1    Zn1   S    
C6    C9    A    
C13   O8    A    
C25   C28   A    
C15   C19   A    
C12   C23   S    
C11   C19   S    
C34   C51   A    
C29   C30   A    
C39   O2    S    
C36   C37   S    
C42   N3    S    
C3    C54   S    
C22   H50   S    
C40   H19   S    
C2    C32   A    
C34   C35   A    
C49   C50   S    
C7    H7    S    
O11   Zn2   S    
C49   H44   S    
C44   C46   S    
C23   C33   A    
C37   H11   S    
C39   H18   S    
C31   C33   A    
C1    O6    A    
C44   H33   S    
O6    Zn2   S    
C9    C10   S    
C12   O5    A    
C38   H15   S    
C14   O11   A    
C43   H30   S    
C42   H27   S    
N2    Zn2   S    
C52   C54   A    
C1    C34   S    
C51   O4    S    
O5    Zn1   S    
H25   N3    S    
O1    Zn1   S    
C43   H31   S    
C32   C35   A    
C6    H6    S    
C52   H3    S    
C17   N2    A    
C41   H24   S    
C5    C7    A    
C5    H5    S    
C6    C8    A    
C46   H37   S    
C45   C52   A    
C25   C26   A    
C18   H34   S    
C30   O2    S    
C51   C53   A    
C15   H1    S    
C2    C4    S    
C5    C9    A    
C37   C38   S    
C41   H21   S    
C29   O12   S    
C17   H23   S    
C47   H39   S    
H29   N4    S    
C35   N4    S    
C48   C49   S    
C43   N4    S    
C38   H14   S    
C44   O3    S    
C50   H48   S    
C26   C27   A    
C31   H52   S    
C7    N1    A    
C16   H12   S    
C3    C4    T    
C36   H9    S    
C8    N1    A    
C39   C40   S    
C13   O10   A    
C48   O4    S    
C15   C17   A    
C21   C25   A    
C46   C47   S    
C40   C41   S    
C48   H42   S    
C43   H32   S    
O7    Zn2   S    
C20   C22   A    
C2    C53   A    
C53   H4    S    
C46   H36   S    
O9    Zn1   S    
C50   H46   S    
C28   C30   A    
C1    O1    A    
C41   H22   S    
C20   H45   S    
C20   C26   A    
C16   C19   A    
C37   H13   S    
C47   H40   S    
C40   H20   S    
C22   C24   A    
O8    Zn1   S    
C31   C54   A    
C18   N2    A    
C10   C11   T    
C49   H43   S    
C12   O7    A    
C21   H49   S    
C45   O3    S    
C33   N3    S    
C50   H47   S    
C16   C18   A    
C14   O9    A    
C21   C24   A    
C39   H17   S    
C13   C27   S    
C24   H51   S    
C14   C28   S    
C36   H10   S    
C32   H2    S    
C44   H35   S    
O10   Zn2   S    
C8    H8    S    
