data_mof_unit_66668.cif
_audit_creation_date              2012-12-11T17:48:43-0500
_audit_creation_method            fapswitch 2.2
_symmetry_space_group_name_H-M    P1
_symmetry_Int_Tables_number       1
_space_group_crystal_system       triclinic
_cell_length_a                    8.172911
_cell_length_b                    12.6557
_cell_length_c                    14.88577
_cell_angle_alpha                 96.823315
_cell_angle_beta                  97.371826
_cell_angle_gamma                 98.42104
_cell_volume                      1495.57287399

loop_
_atom_site_label
_atom_site_type_symbol
_atom_type_description
_atom_site_fract_x
_atom_site_fract_y
_atom_site_fract_z
_atom_type_partial_charge
Ba1   Ba    Ba6+2 0.843750 0.550210 0.455600 1.632178
Ba2   Ba    Ba6+2 0.346090 0.449880 0.544410 1.631326
C1    C     C_3   0.518725 0.928533 0.210029 -0.390266
C2    C     C_R   0.894805 0.437518 0.922462 -0.035934
C3    C     C_R   0.037954 0.451969 0.109361 -0.031471
C4    C     C_3   0.051140 0.765872 0.202604 0.344271
C5    C     C_R   0.877313 0.393572 0.076360 -0.044632
C6    C     C_R   0.806057 0.388394 0.985485 -0.106330
C7    C     C_R   0.108290 0.463859 0.203343 0.045145
C8    C     C_R   0.271448 0.517800 0.230993 -0.299403
C9    C     C_R   0.082566 0.531556 0.795732 0.044468
C10   C     C_R   0.152215 0.543510 0.889875 -0.032151
C11   C     C_R   0.059735 0.493367 0.952656 0.006247
C12   C     C_3   0.540604 0.824448 0.248810 0.318452
C13   C     C_R   0.311679 0.603381 0.923390 -0.042437
C14   C     C_R   0.384066 0.606874 0.013849 -0.102906
C15   C     C_R   0.296452 0.555928 0.076421 -0.037896
C16   C     C_3   0.094610 0.788388 0.108389 -0.208504
C17   C     C_R   0.131291 0.500577 0.046245 0.005041
C18   C     C_R   0.367337 0.560897 0.168923 0.003591
C19   C     C_R   0.921738 0.473308 0.767441 -0.300569
C20   C     C_R   0.775656 0.180553 0.534041 -0.276463
C21   C     C_R   0.418616 0.809951 0.468271 -0.305543
C22   C     C_R   0.386962 0.988081 0.436378 -0.101338
C23   C     C_3   0.414243 0.282614 0.264971 0.307253
C24   C     C_R   0.320124 0.880354 0.433359 0.004087
C25   C     C_R   0.579696 0.848295 0.514906 0.068281
C26   C     C_R   0.647417 0.959869 0.523506 -0.054226
C27   C     C_R   0.549842 0.029791 0.481256 -0.061843
C28   C     C_3   0.267499 0.782535 0.655648 0.275416
C29   C     C_R   0.616628 0.139975 0.486168 0.045893
C30   C     C_R   0.874411 0.112906 0.573703 -0.012908
C31   C     C_R   0.809560 0.003723 0.570888 -0.092964
C32   C     C_3   0.282283 0.904084 0.677343 -0.349659
C33   C     C_3   0.938557 0.214611 0.346600 0.267718
C34   C     C_3   0.371789 0.248890 0.162010 -0.403438
C35   C     C_3   0.993802 0.105422 0.332994 -0.325874
C36   C     C_3   0.773438 0.696336 0.730675 0.314874
C37   C     C_3   0.807535 0.728483 0.833993 -0.404332
C38   C     C_3   0.056346 0.896304 0.080519 -0.176802
C39   C     C_3   0.870394 0.903138 0.071176 -0.377305
C40   C     C_3   0.119963 0.228811 0.797462 0.371763
C41   C     C_3   0.158357 0.202890 0.894462 -0.371405
C42   C     C_3   0.609027 0.167256 0.756044 0.345277
C43   C     C_3   0.675731 0.088122 0.814894 -0.421738
C44   C     C_R   0.824618 0.431102 0.829742 -0.009456
H1    H     H_    0.617142 0.845162 0.317680 0.062946
H2    H     H_    0.888010 0.674808 0.706514 0.013590
H3    H     H_    0.671433 0.625707 0.714445 0.069109
H4    H     H_    0.637997 0.985503 0.222758 0.105032
H5    H     H_    0.913490 0.796662 0.852522 0.126700
H6    H     H_    0.839423 0.659757 0.868519 0.060076
H7    H     H_    0.694473 0.753471 0.858660 0.116718
H8    H     H_    0.414061 0.783146 0.255704 -0.046692
H9    H     H_    0.425035 0.967813 0.243485 0.113368
H10   H     H_    0.300570 0.303490 0.291459 0.016026
H11   H     H_    0.514256 0.354540 0.278264 0.061497
H12   H     H_    0.376530 0.934153 0.738800 0.117048
H13   H     H_    0.268649 0.178751 0.146522 0.119461
H14   H     H_    0.331686 0.316458 0.128407 0.061544
H15   H     H_    0.483339 0.226357 0.133849 0.121940
H16   H     H_    0.475717 0.911787 0.135182 0.120487
H17   H     H_    0.229684 0.787005 0.107942 0.073454
H18   H     H_    0.201166 0.305500 0.792131 0.094737
H19   H     H_    0.987109 0.239381 0.784982 -0.074219
H20   H     H_    0.292821 0.196956 0.910702 0.151186
H21   H     H_    0.128871 0.267529 0.944038 0.069925
H22   H     H_    0.082239 0.124992 0.901654 0.108085
H23   H     H_    0.321473 0.943450 0.619346 0.080775
H24   H     H_    0.712438 0.202790 0.721579 -0.052096
H25   H     H_    0.508087 0.122758 0.701960 0.079037
H26   H     H_    0.779439 0.131515 0.867860 0.111319
H27   H     H_    0.722673 0.024816 0.771675 0.097537
H28   H     H_    0.918053 0.731172 0.194599 0.123092
H29   H     H_    0.575512 0.049589 0.849834 0.127569
H30   H     H_    0.803348 0.351134 0.119957 0.101985
H31   H     H_    0.680745 0.344176 0.965491 0.104500
H32   H     H_    0.509281 0.651316 0.033907 0.104014
H33   H     H_    0.384538 0.647471 0.880293 0.101004
H34   H     H_    0.159845 0.925418 0.690791 0.140099
H35   H     H_    0.326064 0.524586 0.302028 0.073639
H36   H     H_    0.867824 0.465679 0.696240 0.072771
H37   H     H_    0.308829 0.037995 0.403791 0.100229
H38   H     H_    0.888177 0.954818 0.604958 0.098572
H39   H     H_    0.826125 0.265029 0.536680 0.061862
H40   H     H_    0.126209 0.704727 0.224713 -0.032254
H41   H     H_    0.366599 0.725312 0.462603 0.072720
H42   H     H_    0.027119 0.721307 0.055523 0.075720
H43   H     H_    0.388071 0.762370 0.639537 0.012744
H44   H     H_    0.167936 0.754180 0.596006 0.068597
H45   H     H_    0.805784 0.202862 0.355600 -0.000790
H46   H     H_    0.795565 0.831567 0.026129 0.132737
H47   H     H_    0.830069 0.907933 0.139436 0.180160
H48   H     H_    0.847310 0.976986 0.041464 0.108705
H49   H     H_    0.127909 0.964651 0.130775 0.143756
H50   H     H_    0.098804 0.904954 0.013360 0.099932
H51   H     H_    0.015533 0.260643 0.409679 0.073656
H52   H     H_    0.907073 0.050197 0.278484 0.113773
H53   H     H_    0.996781 0.070876 0.397870 0.107495
H54   H     H_    0.120277 0.114320 0.312501 0.127766
O1    O     O_2   0.827880 0.435260 0.277750 -0.467467
O2    O     O_2   0.215342 0.119077 0.568214 -0.487887
O3    O     O_3   0.151469 0.144213 0.735340 -0.598516
O4    O     O_3   0.100280 0.438960 0.391170 -0.496088
O5    O     O_3   0.587780 0.631850 0.546230 -0.489035
O6    O     O_2   0.332590 0.233690 0.456160 -0.470803
O7    O     O_3   0.468364 0.196665 0.305294 -0.651998
O8    O     O_2   0.483293 0.441184 0.826239 -0.493159
O9    O     O_3   0.541884 0.243142 0.811408 -0.596971
O10   O     O_3   0.625580 0.634130 0.333250 -0.473720
O11   O     O_2   0.713731 0.568267 0.172860 -0.505677
O12   O     O_3   0.728111 0.784294 0.690569 -0.642894
O13   O     O_3   0.953955 0.262578 0.267451 -0.639732
O14   O     O_3   0.621734 0.760004 0.190918 -0.620734
O15   O     O_2   0.857130 0.766340 0.543890 -0.476268
O16   O     O_3   0.056550 0.691050 0.379010 -0.483190
O17   O     O_2   0.976164 0.882627 0.426741 -0.491368
O18   O     O_3   0.079704 0.860796 0.265990 -0.628209
O19   O     O_2   0.361830 0.564780 0.722310 -0.470560
O20   O     O_3   0.089430 0.561130 0.608830 -0.496950
O21   O     O_3   0.564130 0.365960 0.666760 -0.466810
O22   O     O_3   0.230313 0.737263 0.733091 -0.640963
O23   O     O_3   0.601940 0.368240 0.453770 -0.475499
O24   O     O_3   0.133170 0.309040 0.621000 -0.483747
P1    P     P_3+3 0.998730 0.403530 0.291970 0.972997
P2    P     P_3+3 0.687380 0.751030 0.571310 0.969748
P3    P     P_3+3 0.105735 0.829181 0.378223 0.943109
P4    P     P_3+3 0.190990 0.596560 0.708040 0.970163
P5    P     P_3+3 0.092345 0.169998 0.623720 0.947855
P6    P     P_3+3 0.582696 0.627248 0.215068 0.933289
P7    P     P_3+3 0.508070 0.232959 0.424206 0.932353
P8    P     P_3+3 0.604271 0.372666 0.785055 0.952596

loop_
_geom_bond_atom_site_label_1
_geom_bond_atom_site_label_2
_ccdc_geom_bond_type
C37   H5    S    
C40   H18   S    
C23   H10   S    
C28   H44   S    
C34   H13   S    
C40   O3    S    
C5    C6    A    
C36   H3    S    
C2    C44   A    
Ba2   O23   S    
O15   P2    D    
C20   C30   A    
O5    P2    S    
C26   C27   A    
C33   C35   S    
C22   H37   S    
C22   C24   A    
C44   P8    S    
C36   C37   S    
C25   P2    S    
C16   H17   S    
C20   H39   S    
O13   P1    S    
C13   C14   A    
C15   C18   A    
C42   H25   S    
C43   H27   S    
Ba1   Ba2   S    
C21   C24   A    
C2    C11   A    
C16   C38   S    
C22   C27   A    
C35   H52   S    
C29   P7    S    
C32   H34   S    
C1    H9    S    
C13   H33   S    
O4    P1    S    
C28   O22   S    
C8    C18   A    
C41   H22   S    
O16   P3    S    
C40   H19   S    
O1    P1    D    
O2    P5    D    
C42   H24   S    
Ba1   O16   S    
C21   C25   A    
C7    C8    A    
O10   P6    S    
C36   H2    S    
C2    C6    A    
O19   P4    D    
C37   H6    S    
C21   H41   S    
C43   H26   S    
O14   P6    S    
C23   H11   S    
C38   H50   S    
C28   H43   S    
C30   P5    S    
C1    H4    S    
C4    H28   S    
O6    P7    D    
C4    C16   S    
C39   H47   S    
C20   C29   A    
C28   C32   S    
Ba1   P2    S    
C1    H16   S    
O7    P7    S    
C18   P6    S    
C3    C5    A    
C11   C17   A    
C14   C15   A    
C12   O14   S    
Ba2   O6    S    
C16   H42   S    
Ba1   O20   S    
Ba1   O23   S    
C3    C7    A    
Ba1   O10   S    
O3    P5    S    
O11   P6    D    
C39   H48   S    
Ba1   O4    S    
C10   C13   A    
Ba2   O4    S    
C9    C10   A    
O9    P8    S    
C19   H36   S    
O17   P3    D    
C32   H23   S    
C5    H30   S    
C1    C12   S    
C38   C39   S    
C12   H8    S    
C26   C31   A    
C6    H31   S    
O18   P3    S    
C38   H49   S    
C36   O12   S    
C34   H15   S    
Ba1   O1    S    
C35   H53   S    
C42   C43   S    
C23   O7    S    
C19   C44   A    
Ba2   O21   S    
Ba2   O20   S    
C8    H35   S    
O23   P7    S    
O12   P2    S    
Ba1   P1    S    
C34   H14   S    
Ba2   O19   S    
O20   P4    S    
C12   H1    S    
C3    C17   A    
Ba2   O24   S    
Ba1   O15   S    
Ba2   O5    S    
C4    H40   S    
Ba2   P4    S    
C43   H29   S    
C30   C31   A    
C9    P4    S    
C27   C29   A    
C42   O9    S    
C37   H7    S    
C41   H20   S    
C15   C17   A    
C9    C19   A    
O24   P5    S    
C33   O13   S    
C14   H32   S    
C24   P3    S    
O22   P4    S    
C31   H38   S    
C7    P1    S    
O8    P8    D    
C23   C34   S    
C39   H46   S    
C10   C11   A    
C41   H21   S    
C40   C41   S    
C25   C26   A    
C32   H12   S    
O21   P8    S    
C33   H51   S    
C4    O18   S    
C35   H54   S    
Ba1   O5    S    
C33   H45   S    
