data_mof_unit_5074.cif
_audit_creation_date              2012-12-10T17:29:13-0500
_audit_creation_method            fapswitch 2.2
_symmetry_space_group_name_H-M    P1
_symmetry_Int_Tables_number       1
_space_group_crystal_system       triclinic
_cell_length_a                    12.00424
_cell_length_b                    12.900448
_cell_length_c                    13.136932
_cell_angle_alpha                 87.445342
_cell_angle_beta                  113.381698
_cell_angle_gamma                 93.299025
_cell_volume                      1863.70640354

loop_
_atom_site_label
_atom_site_type_symbol
_atom_type_description
_atom_site_fract_x
_atom_site_fract_y
_atom_site_fract_z
_atom_type_partial_charge
C1    C     C_R   0.477803 0.299461 0.499092 0.882119
C2    C     C_R   0.609564 0.485193 0.828804 -0.118445
C3    C     C_R   0.535985 0.811824 0.503576 -0.056698
C4    C     C_R   0.566148 0.491594 0.708457 0.862572
C5    C     C_R   0.465206 0.188160 0.499623 -0.057584
C6    C     C_R   0.345719 0.029913 0.489269 -0.217073
C7    C     C_R   0.355472 0.137285 0.490209 -0.202066
C8    C     C_R   0.565444 0.132338 0.509274 -0.278945
C9    C     C_R   0.556435 0.025731 0.508028 0.186571
C10   C     C_R   0.445652 0.974207 0.497669 0.184443
C11   C     C_R   0.436323 0.867633 0.495521 -0.277631
C12   C     C_R   0.556312 0.481089 0.988363 0.087415
C13   C     C_R   0.646079 0.862676 0.514012 -0.206395
C14   C     C_R   0.656337 0.970020 0.516356 -0.221372
C15   C     C_R   0.017237 0.613132 0.416990 -0.298154
C16   C     C_R   0.522476 0.700540 0.501650 0.890959
C17   C     C_R   0.135226 0.601045 0.422547 0.015387
C18   C     C_R   0.153338 0.447697 0.532821 -0.000785
C19   C     C_R   0.034125 0.456219 0.529697 -0.016009
C20   C     C_R   0.965895 0.540975 0.471140 0.017011
C21   C     C_R   0.847554 0.551312 0.467433 -0.077111
C22   C     C_R   0.862402 0.397482 0.576307 -0.132105
C23   C     C_R   0.529764 0.451141 0.879232 0.087179
C24   C     C_R   0.982514 0.382620 0.583603 0.438927
C25   C     C_R   0.433354 0.503626 0.291543 0.876260
C26   C     C_R   0.262356 0.397955 0.009380 -0.197620
C27   C     C_R   0.391323 0.490203 0.173249 -0.058051
C28   C     C_R   0.725749 0.526917 0.893024 -0.193986
C29   C     C_R   0.759397 0.541638 0.005511 -0.147069
C30   C     C_R   0.674924 0.521627 0.052766 -0.187247
C31   C     C_3   0.009004 0.241679 0.710157 -0.381483
C32   C     C_R   0.463006 0.469268 0.028359 0.085135
C33   C     C_R   0.353034 0.412803 0.967329 0.168761
C34   C     C_R   0.336441 0.370384 0.866530 -0.249334
C35   C     C_R   0.423510 0.389454 0.822626 -0.200219
C36   C     C_R   0.475551 0.513613 0.126948 -0.251323
C37   C     C_R   0.282499 0.434989 0.113562 -0.198775
H1    H     H_    0.216781 0.415795 0.149693 0.155669
H2    H     H_    0.789006 0.551375 0.855556 0.157640
H3    H     H_    0.705826 0.536060 0.140176 0.133789
H4    H     H_    0.849491 0.572953 0.055284 0.142446
H5    H     H_    0.407618 0.354274 0.744555 0.161788
H6    H     H_    0.723661 0.819777 0.520440 0.160170
H7    H     H_    0.741620 0.009303 0.524391 0.139825
H8    H     H_    0.277658 0.180193 0.483134 0.169774
H9    H     H_    0.650847 0.171484 0.517185 0.157645
H10   H     H_    0.923733 0.195615 0.664440 0.173712
H11   H     H_    0.998193 0.294378 0.770140 0.158377
H12   H     H_    0.260542 0.990629 0.481535 0.141496
H13   H     H_    0.078266 0.185657 0.759081 0.197005
H14   H     H_    0.553469 0.563276 0.172607 0.140474
H15   H     H_    0.350844 0.828513 0.487387 0.158791
H16   H     H_    0.794124 0.615684 0.421758 0.134078
H17   H     H_    0.817912 0.342652 0.613896 0.141568
H18   H     H_    0.966683 0.678755 0.370874 0.138656
H19   H     H_    0.173958 0.657478 0.381067 0.126058
H20   H     H_    0.255408 0.323829 0.820795 0.190567
H21   H     H_    0.208245 0.384007 0.577960 0.161600
H22   H     H_    0.178649 0.354095 0.963994 0.132833
N1    N     N_R   0.798200 0.480260 0.519790 -0.111975
N2    N     N_R   0.201820 0.519740 0.480210 -0.108413
O1    O     O_R   0.579910 0.341070 0.505280 -0.624291
O2    O     O_R   0.388440 0.353740 0.492580 -0.635943
O3    O     O_R   0.643280 0.490550 0.663120 -0.614302
O4    O     O_R   0.451810 0.503220 0.650420 -0.607967
O5    O     O_R   0.611560 0.646260 0.507420 -0.625928
O6    O     O_R   0.420090 0.658930 0.494720 -0.625435
O7    O     O_R   0.548190 0.496780 0.349580 -0.607084
O8    O     O_R   0.356720 0.509450 0.336880 -0.619027
O9    O     O_3   0.050294 0.296581 0.635601 -0.630489
Zn1   Zn    Zn3+2 0.627850 0.491540 0.508480 0.938930
Zn2   Zn    Zn3+2 0.372150 0.508460 0.491520 0.940704

loop_
_geom_bond_atom_site_label_1
_geom_bond_atom_site_label_2
_ccdc_geom_bond_type
C6    C10   A    
C34   H20   S    
C2    C4    S    
C9    C14   A    
C26   C37   A    
C6    C7    A    
C27   C36   A    
O8    Zn2   S    
O4    Zn2   S    
C5    C7    A    
C9    C10   A    
C4    O3    A    
C26   C33   A    
O5    Zn1   S    
C3    C13   A    
C29   H4    S    
C32   C33   A    
C33   C34   A    
C30   H3    S    
C22   H17   S    
C16   O6    A    
C31   H10   S    
C13   C14   A    
C12   C32   A    
C21   H16   S    
C36   H14   S    
C17   H19   S    
C21   N1    A    
C29   C30   A    
C25   O7    A    
C18   N2    A    
C27   C37   A    
O7    Zn1   S    
C1    C5    S    
C7    H8    S    
N2    Zn2   S    
C28   C29   A    
C37   H1    S    
O1    Zn1   S    
C19   C24   A    
C23   C35   A    
C31   H11   S    
C6    H12   S    
C22   N1    A    
C15   C20   A    
C34   C35   A    
C22   C24   A    
O2    Zn2   S    
C5    C8    A    
C3    C11   A    
C10   C11   A    
N1    Zn1   S    
C31   H13   S    
C24   O9    S    
C32   C36   A    
C13   H6    S    
O6    Zn2   S    
C25   O8    A    
C20   C21   A    
C1    O1    A    
C14   H7    S    
C18   C19   A    
C26   H22   S    
O3    Zn1   S    
C2    C23   A    
C15   C17   A    
C35   H5    S    
C2    C28   A    
C4    O4    A    
C1    O2    A    
C16   O5    A    
C12   C23   A    
C11   H15   S    
C28   H2    S    
C17   N2    A    
C12   C30   A    
C18   H21   S    
C31   O9    S    
C8    H9    S    
C3    C16   S    
C19   C20   A    
C8    C9    A    
C25   C27   S    
C15   H18   S    
