data_mof_unit_15296.cif
_audit_creation_date              2012-12-10T16:41:54-0500
_audit_creation_method            fapswitch 2.2
_symmetry_space_group_name_H-M    P1
_symmetry_Int_Tables_number       1
_space_group_crystal_system       triclinic
_cell_length_a                    10.901946
_cell_length_b                    8.699817
_cell_length_c                    7.539633
_cell_angle_alpha                 102.050119
_cell_angle_beta                  95.587201
_cell_angle_gamma                 93.912253
_cell_volume                      693.1299879

loop_
_atom_site_label
_atom_site_type_symbol
_atom_type_description
_atom_site_fract_x
_atom_site_fract_y
_atom_site_fract_z
_atom_type_partial_charge
C1    C     C_R   0.491971 0.200315 0.455211 0.868164
C2    C     C_2   0.461524 0.958315 0.565004 -0.006306
C3    C     C_R   0.265506 0.497596 0.499908 0.834074
C4    C     C_R   0.493096 0.797788 0.545209 0.851006
C5    C     C_R   0.734496 0.503275 0.500372 0.835568
C6    C     C_2   0.922143 0.486766 0.350724 -0.162657
C7    C     C_2   0.867460 0.513613 0.504380 -0.316614
C8    C     C_2   0.056797 0.493888 0.352281 -0.157571
C9    C     C_2   0.132980 0.490824 0.501906 -0.316439
C10   C     C_2   0.493898 0.033620 0.436015 -0.402613
Cu1   Cu    Cu3+1 0.513740 0.517380 0.684380 0.929878
Cu2   Cu    Cu3+1 0.486260 0.482620 0.315620 0.931596
H1    H     H_    0.867136 0.460228 0.218144 0.169153
H2    H     H_    0.919474 0.547232 0.638432 0.145910
H3    H     H_    0.093333 0.498475 0.224286 0.168328
H4    H     H_    0.099646 0.480061 0.629709 0.146387
H5    H     H_    0.536526 0.974028 0.319989 0.129290
H6    H     H_    0.412509 0.364941 0.949464 0.202568
N1    N     N_2   0.465540 0.456420 0.038510 -0.211065
N2    N     N_2   0.534460 0.543580 0.961490 -0.079670
O1    O     O_R   0.508930 0.286130 0.619780 -0.589733
O2    O     O_R   0.485720 0.256780 0.308360 -0.581837
O3    O     O_R   0.333540 0.514670 0.655670 -0.603933
O4    O     O_R   0.310330 0.485320 0.344250 -0.576117
O5    O     O_R   0.514280 0.743220 0.691640 -0.589246
O6    O     O_R   0.491070 0.713870 0.380220 -0.629108
O7    O     O_R   0.689670 0.514680 0.655750 -0.579011
O8    O     O_R   0.666460 0.485330 0.344330 -0.597303
C11   C     C_3   0.386992 0.027155 0.720051 -0.368815
C12   C     C_3   0.275554 0.915613 0.735039 -0.845883
H7    H     H_    0.221151 0.871067 0.599260 0.249779
H8    H     H_    0.305544 0.814883 0.791947 0.275952
H9    H     H_    0.214642 0.979862 0.829164 0.235776
H10   H     H_    0.448221 0.054691 0.851458 0.213502
H11   H     H_    0.347128 0.136483 0.698707 0.213370
C13   C     C_3   0.604324 0.688089 0.067115 -0.024411
C14   C     C_3   0.726552 0.725942 0.995420 -0.846699
H12   H     H_    0.781138 0.621675 0.977278 0.249798
H13   H     H_    0.712998 0.769747 0.868182 0.273216
H14   H     H_    0.782419 0.822564 0.097184 0.195248
H15   H     H_    0.546440 0.787995 0.067610 0.153005
H16   H     H_    0.636772 0.679687 0.203967 0.213459

loop_
_geom_bond_atom_site_label_1
_geom_bond_atom_site_label_2
_ccdc_geom_bond_type
C2    C4    S    
Cu1   Cu2   S    
C1    O1    A    
C14   H12   S    
C3    C9    S    
C8    H3    S    
C5    O8    A    
Cu2   O4    S    
C13   H16   S    
N1    N2    D    
Cu1   O7    S    
C4    O5    A    
C3    O4    A    
C1    O2    A    
C14   H13   S    
C6    H1    S    
C12   H8    S    
C13   H15   S    
C11   C12   S    
Cu2   O8    S    
C2    C11   S    
Cu2   N1    S    
Cu1   O3    S    
C13   C14   S    
C9    H4    S    
C14   H14   S    
C12   H7    S    
Cu1   N2    S    
C4    O6    A    
Cu1   O5    S    
C10   H5    S    
C2    C10   D    
Cu2   O2    S    
H6    N1    S    
C1    C10   S    
C5    C7    S    
C11   H11   S    
C6    C8    S    
C12   H9    S    
C5    O7    A    
C3    O3    A    
C11   H10   S    
Cu1   O1    S    
C7    H2    S    
C6    C7    D    
Cu2   O6    S    
C8    C9    D    
N2    C13   S    
