data_mof_unit_47846.cif
_audit_creation_date              2012-12-10T17:25:22-0500
_audit_creation_method            fapswitch 2.2
_symmetry_space_group_name_H-M    P1
_symmetry_Int_Tables_number       1
_space_group_crystal_system       triclinic
_cell_length_a                    27.809236
_cell_length_b                    10.705649
_cell_length_c                    9.611418
_cell_angle_alpha                 88.445024
_cell_angle_beta                  90.665561
_cell_angle_gamma                 90.928917
_cell_volume                      2859.86368244

loop_
_atom_site_label
_atom_site_type_symbol
_atom_type_description
_atom_site_fract_x
_atom_site_fract_y
_atom_site_fract_z
_atom_type_partial_charge
C1    C     C_R   0.499617 0.262824 0.501484 0.782665
C2    C     C_R   0.275725 0.450227 0.401271 -0.100404
C3    C     C_R   0.253850 0.512569 0.509269 0.319763
C4    C     C_R   0.102425 0.526375 0.519467 -0.086728
C5    C     C_R   0.128204 0.455067 0.619998 -0.004277
C6    C     C_R   0.103482 0.388558 0.724670 -0.184685
C7    C     C_R   0.127708 0.597870 0.416638 -0.038332
C8    C     C_R   0.354561 0.500693 0.498943 -0.046488
C9    C     C_R   0.645947 0.500052 0.502974 -0.069059
C10   C     C_R   0.975648 0.433277 0.610389 -0.076567
C11   C     C_R   0.974541 0.610055 0.440467 0.083677
C12   C     C_R   0.407570 0.498477 0.499255 0.773651
C13   C     C_R   0.949818 0.521418 0.527082 0.018084
C14   C     C_R   0.949321 0.333589 0.677252 0.406668
C15   C     C_R   0.899146 0.334539 0.678562 -0.216205
C16   C     C_R   0.873594 0.427404 0.606288 -0.094690
C17   C     C_R   0.898786 0.520062 0.528798 -0.051252
C18   C     C_R   0.872826 0.610901 0.451993 0.000729
C19   C     C_R   0.822393 0.607356 0.454143 0.536463
C20   C     C_R   0.823061 0.426499 0.604532 0.566098
C21   C     C_R   0.724275 0.479564 0.395351 -0.099456
C22   C     C_R   0.673972 0.474803 0.384010 0.129232
C23   C     C_R   0.499487 0.737145 0.498768 0.789852
C24   C     C_R   0.669705 0.527370 0.629153 -0.258615
C25   C     C_R   0.719685 0.531744 0.637918 -0.099777
C26   C     C_R   0.747078 0.508586 0.520974 0.303064
C27   C     C_R   0.026576 0.446081 0.619645 0.054612
C28   C     C_R   0.051322 0.525452 0.522529 0.058616
C29   C     C_R   0.025325 0.603867 0.429252 -0.000095
C30   C     C_R   0.053645 0.385599 0.725701 -0.173532
C31   C     C_R   0.100989 0.670748 0.317844 0.170877
C32   C     C_R   0.947465 0.702220 0.367950 -0.230662
C33   C     C_R   0.897614 0.702723 0.374215 -0.153692
C34   C     C_R   0.592592 0.499119 0.500480 0.794079
C35   C     C_R   0.050795 0.672704 0.326293 -0.204022
C36   C     C_R   0.411902 0.124885 0.570786 -0.199936
C37   C     C_R   0.369832 0.056924 0.600027 -0.123645
C38   C     C_R   0.369484 0.926975 0.595703 -0.126514
C39   C     C_R   0.411217 0.864340 0.562190 -0.174576
C40   C     C_R   0.454209 0.931416 0.532635 0.095084
C41   C     C_R   0.454543 0.063046 0.536805 0.090791
C42   C     C_R   0.497472 0.128929 0.504109 -0.088472
C43   C     C_R   0.538984 0.066849 0.467898 -0.224284
C44   C     C_R   0.538976 0.938143 0.467645 -0.244732
C45   C     C_R   0.178411 0.452795 0.615153 0.536489
C46   C     C_R   0.496957 0.870836 0.497591 -0.092893
C47   C     C_R   0.536766 0.709626 0.128126 0.192086
C48   C     C_R   0.579111 0.766296 0.077395 0.056890
C49   C     C_R   0.589236 0.753442 0.935656 0.386285
C50   C     C_R   0.561829 0.668506 0.858404 -0.298551
C51   C     C_R   0.528115 0.586344 0.924011 0.136961
C52   C     C_R   0.523156 0.594889 0.070736 0.131213
C53   C     C_R   0.476104 0.411035 0.075824 -0.063728
C54   C     C_R   0.474742 0.413656 0.927733 -0.045963
C55   C     C_R   0.178701 0.591859 0.416955 0.539970
C56   C     C_R   0.282084 0.567718 0.612539 -0.113500
C57   C     C_R   0.331937 0.561381 0.607792 -0.280230
C58   C     C_R   0.325983 0.443224 0.394543 0.134714
Cu1   Cu    Cu3+1 0.500000 0.499990 0.640660 0.932149
Cu2   Cu    Cu3+1 0.500000 0.500010 0.359340 0.937213
H1    H     H_    0.265310 0.616026 0.696324 0.150156
H2    H     H_    0.963920 0.778136 0.308783 0.140720
H3    H     H_    0.649655 0.546852 0.721773 0.184304
H4    H     H_    0.878537 0.775215 0.316578 0.186446
H5    H     H_    0.737179 0.554288 0.735514 0.159060
H6    H     H_    0.031915 0.725779 0.246668 0.142284
H7    H     H_    0.571707 0.118372 0.442035 0.148312
H8    H     H_    0.410647 0.225674 0.574385 0.130567
H9    H     H_    0.337353 0.105308 0.625631 0.152926
H10   H     H_    0.253217 0.406872 0.322833 0.141509
H11   H     H_    0.336736 0.874501 0.617955 0.144335
H12   H     H_    0.409470 0.763582 0.558715 0.129639
H13   H     H_    0.571929 0.890547 0.445456 0.150440
H14   H     H_    0.456338 0.338483 0.132235 0.141708
H15   H     H_    0.569391 0.668676 0.750185 0.222773
H16   H     H_    0.453780 0.343508 0.874008 0.136919
H17   H     H_    0.122597 0.338324 0.806970 0.186895
H18   H     H_    0.746240 0.460852 0.306100 0.144087
H19   H     H_    0.880332 0.258981 0.733296 0.203067
H20   H     H_    0.037114 0.339263 0.814320 0.202868
H21   H     H_    0.352937 0.605697 0.688858 0.166842
N1    N     N_R   0.202406 0.519385 0.514092 -0.463033
N2    N     N_R   0.798605 0.515289 0.528508 -0.460819
N3    N     N_R   0.500460 0.501210 0.147910 -0.185822
N4    N     N_R   0.500480 0.501290 0.852040 -0.171598
O1    O     O_R   0.500000 0.319640 0.618810 -0.581179
O2    O     O_2   0.798559 0.336459 0.676209 -0.545795
O3    O     O_2   0.204856 0.657737 0.322446 -0.548481
O4    O     O_2   0.797254 0.694965 0.382131 -0.541191
O5    O     O_R   0.500000 0.319660 0.381240 -0.578500
O6    O     O_R   0.430260 0.500010 0.618770 -0.583787
O7    O     O_R   0.430270 0.500030 0.381200 -0.572440
O8    O     O_R   0.500000 0.680340 0.618760 -0.593721
O9    O     O_R   0.500000 0.680360 0.381190 -0.566223
O10   O     O_R   0.569730 0.499970 0.618800 -0.597473
O11   O     O_R   0.569740 0.499990 0.381230 -0.570468
O12   O     O_2   0.203193 0.383136 0.709751 -0.547451
C59   C     C_3   0.347703 0.371358 0.278666 -0.835337
H22   H     H_    0.319732 0.321939 0.216595 0.227327
H23   H     H_    0.367384 0.436260 0.206684 0.250743
H24   H     H_    0.372594 0.299967 0.322455 0.226298
C60   C     C_3   0.123984 0.747644 0.201367 -0.750784
H25   H     H_    0.097030 0.796599 0.134406 0.194704
H26   H     H_    0.147971 0.820940 0.245154 0.257563
H27   H     H_    0.144320 0.686177 0.132711 0.257413
C61   C     C_3   0.495801 0.801217 0.133602 -0.800139
H28   H     H_    0.488776 0.842296 0.027939 0.200737
H29   H     H_    0.461749 0.754911 0.168037 0.248287
H30   H     H_    0.504636 0.878810 0.203853 0.242618
C62   C     C_3   0.608562 0.850966 0.168461 -0.820060
H31   H     H_    0.618203 0.799667 0.266503 0.227372
H32   H     H_    0.642634 0.881388 0.117965 0.267013
H33   H     H_    0.587944 0.935345 0.192652 0.220541
O13   O     O_3   0.624359 0.825723 0.870002 -0.600652
C63   C     C_3   0.604700 0.943219 0.832765 0.042880
H34   H     H_    0.593053 0.992530 0.926915 0.161336
H35   H     H_    0.573147 0.931927 0.761325 0.150586
C64   C     C_3   0.642882 0.023847 0.758290 -0.309457
H36   H     H_    0.677232 0.020266 0.818500 0.245093
H37   H     H_    0.649164 0.986128 0.653520 0.218641
C65   C     C_3   0.627593 0.160055 0.742935 -0.887354
H38   H     H_    0.591934 0.166778 0.690715 0.256790
H39   H     H_    0.654383 0.213940 0.679808 0.268578
H40   H     H_    0.625517 0.202461 0.846864 0.257354
C66   C     C_3   0.652089 0.441266 0.245193 -0.805713
H41   H     H_    0.679914 0.416951 0.168909 0.219260
H42   H     H_    0.627724 0.358640 0.257972 0.234449
H43   H     H_    0.632138 0.521932 0.199907 0.249605
O14   O     O_3   0.971604 0.230355 0.736513 -0.628198
C67   C     C_3   0.977643 0.141028 0.632893 0.049387
H44   H     H_    0.998328 0.181587 0.543263 0.148238
H45   H     H_    0.941934 0.106370 0.595099 0.152943
C68   C     C_3   0.005593 0.030827 0.695315 -0.319469
H46   H     H_    0.041866 0.063844 0.729286 0.223173
H47   H     H_    0.986353 0.991907 0.787926 0.229219
C69   C     C_3   0.011038 0.927731 0.590277 -0.905181
H48   H     H_    0.975080 0.891562 0.558167 0.263675
H49   H     H_    0.031671 0.849471 0.638390 0.263582
H50   H     H_    0.030564 0.963826 0.496976 0.256651

loop_
_geom_bond_atom_site_label_1
_geom_bond_atom_site_label_2
_ccdc_geom_bond_type
C10   C27   A    
C48   C62   S    
C21   C26   A    
C1    O5    A    
C37   H9    S    
C11   C13   A    
C41   C42   A    
C12   O6    A    
C53   H14   S    
C58   C59   S    
C7    C55   A    
C51   N4    A    
O13   C63   S    
C53   C54   A    
C40   C46   A    
C26   N2    S    
C53   N3    A    
C28   C29   A    
C34   O11   A    
C69   H50   S    
C5    C6    A    
C9    C22   A    
C61   H28   S    
C15   C16   A    
C20   O2    S    
C56   C57   A    
C60   H27   S    
C18   C19   A    
C55   O3    S    
C52   N3    A    
C62   H31   S    
C65   H40   S    
C8    C58   A    
C64   H36   S    
C15   H19   S    
C45   N1    A    
C16   C17   A    
C63   H35   S    
C21   H18   S    
C66   H43   S    
C39   H12   S    
C8    C12   S    
C30   H20   S    
C47   C61   S    
C49   O13   S    
Cu1   Cu2   S    
C23   C46   S    
C21   C22   A    
C27   C30   A    
C36   C41   A    
C44   H13   S    
Cu1   O10   S    
C4    C7    A    
C19   N2    A    
C4    C28   A    
C44   C46   A    
C17   C18   A    
C62   H32   S    
Cu2   O7    S    
C38   C39   A    
C7    C31   A    
C51   C52   A    
C31   C60   S    
C25   H5    S    
C34   O10   A    
C69   H49   S    
C10   C14   A    
C39   C40   A    
C69   H48   S    
C22   C66   S    
C35   H6    S    
C25   C26   A    
C5    C45   A    
C23   O8    A    
C64   C65   S    
C67   H45   S    
C43   C44   A    
Cu1   N4    S    
C37   C38   A    
C19   O4    S    
C8    C57   A    
C68   C69   S    
C3    C56   A    
C47   C48   A    
C16   C20   A    
C63   C64   S    
C3    N1    S    
C36   H8    S    
C50   C51   A    
Cu1   O6    S    
C24   C25   A    
C55   N1    A    
C60   H26   S    
C62   H33   S    
C65   H38   S    
C54   H16   S    
Cu2   O11   S    
C40   C41   A    
C6    C30   A    
C11   C32   A    
C59   H22   S    
C24   H3    S    
C59   H23   S    
C68   H46   S    
C31   C35   A    
C67   C68   S    
C42   C43   A    
C66   H42   S    
O14   C67   S    
C1    O1    A    
C38   H11   S    
C48   C49   A    
C56   H1    S    
C12   O7    A    
C4    C5    A    
C6    H17   S    
C10   C13   A    
C54   N4    A    
C2    C58   A    
C9    C24   A    
C47   C52   A    
Cu2   O5    S    
C59   H24   S    
C29   C35   A    
C23   O9    A    
C13   C17   A    
C32   C33   A    
C2    C3    A    
Cu1   O1    S    
C32   H2    S    
C45   O12   S    
C50   H15   S    
Cu2   N3    S    
C66   H41   S    
C61   H29   S    
C36   C37   A    
C33   H4    S    
C9    C34   S    
C67   H44   S    
C57   H21   S    
C60   H25   S    
C18   C33   A    
C64   H37   S    
C65   H39   S    
C1    C42   S    
C11   C29   A    
C43   H7    S    
C49   C50   A    
C20   N2    A    
C27   C28   A    
C68   H47   S    
C14   C15   A    
Cu1   O8    S    
C2    H10   S    
C61   H30   S    
C63   H34   S    
C14   O14   S    
Cu2   O9    S    
