data_mof_unit_61479.cif
_audit_creation_date              2012-12-10T19:29:19-0500
_audit_creation_method            fapswitch 2.2
_symmetry_space_group_name_H-M    P1
_symmetry_Int_Tables_number       1
_space_group_crystal_system       triclinic
_cell_length_a                    15.898752
_cell_length_b                    17.77076
_cell_length_c                    16.437145
_cell_angle_alpha                 89.926705
_cell_angle_beta                  90.023452
_cell_angle_gamma                 90.214224
_cell_volume                      4643.99770431

loop_
_atom_site_label
_atom_site_type_symbol
_atom_type_description
_atom_site_fract_x
_atom_site_fract_y
_atom_site_fract_z
_atom_type_partial_charge
C1    C     C_R   0.499891 0.355103 0.500073 0.914111
C2    C     C_R   0.500109 0.644897 0.499926 0.914106
C3    C     C_R   0.495787 0.768418 0.573594 0.574925
C4    C     C_R   0.504236 0.231582 0.426407 0.574924
C5    C     C_R   0.500244 0.728061 0.499775 -0.398287
C6    C     C_R   0.499756 0.271940 0.500225 -0.398286
C7    C     C_R   0.504812 0.768397 0.425778 0.485371
C8    C     C_R   0.495165 0.231603 0.574221 0.485370
C9    C     C_R   0.504784 0.846878 0.425949 0.601725
C10   C     C_R   0.495193 0.153122 0.574050 0.601727
C11   C     C_R   0.500243 0.885911 0.499518 -0.219431
C12   C     C_R   0.499757 0.114089 0.500482 -0.219431
C13   C     C_1   0.500077 0.966279 0.499862 0.165469
C14   C     C_1   0.499923 0.033721 0.500138 0.165469
C15   C     C_R   0.551231 0.549916 0.828857 -0.223632
C16   C     C_R   0.448772 0.450082 0.171143 -0.223632
C17   C     C_R   0.550333 0.549015 0.743010 0.150004
C18   C     C_R   0.449670 0.450982 0.256990 0.150006
C19   C     C_R   0.449615 0.450942 0.743115 0.158532
C20   C     C_R   0.550382 0.549060 0.256885 0.158540
C21   C     C_R   0.448725 0.450053 0.828966 -0.216385
C22   C     C_R   0.551272 0.549950 0.171034 -0.216384
C23   C     C_R   0.339532 0.499910 0.499969 0.808500
C24   C     C_R   0.660468 0.500090 0.500031 0.808500
C25   C     C_R   0.499983 0.499985 0.873073 0.109769
C26   C     C_R   0.500016 0.500015 0.126927 0.109772
C27   C     C_1   0.499994 0.499995 0.962701 0.018983
C28   C     C_1   0.500006 0.500005 0.037299 0.018983
C29   C     C_3   0.971640 0.439319 0.538734 0.604794
C30   C     C_3   0.028360 0.560681 0.461266 0.604794
C31   C     C_3   0.027350 0.437042 0.461524 -0.438391
C32   C     C_3   0.972650 0.562958 0.538476 -0.438393
C33   C     C_1   0.250032 0.499680 0.499894 -0.110374
C34   C     C_1   0.749968 0.500320 0.500106 -0.110375
C35   C     C_3   0.028080 0.500485 0.576168 0.602932
C36   C     C_3   0.971920 0.499515 0.423832 0.602932
C37   C     C_3   0.083209 0.499189 0.499559 -0.230618
C38   C     C_3   0.916791 0.500811 0.500441 -0.230618
C39   C     C_1   0.174650 0.499450 0.499759 0.172485
C40   C     C_1   0.825349 0.500550 0.500241 0.172483
C41   C     C_R   0.495798 0.846822 0.573050 -0.271700
C42   C     C_R   0.504225 0.153178 0.426951 -0.271701
Cu1   Cu    Cu3+1 0.500000 0.499980 0.580420 1.030103
Cu2   Cu    Cu3+1 0.500000 0.500020 0.419580 1.030107
H1    H     H_    0.409691 0.412207 0.710025 0.164945
H2    H     H_    0.590303 0.587797 0.289975 0.164929
H3    H     H_    0.408200 0.410599 0.860596 0.166959
H4    H     H_    0.591794 0.589406 0.139404 0.166955
H5    H     H_    0.492253 0.877093 0.630144 0.228874
H6    H     H_    0.507788 0.122908 0.369858 0.228874
H7    H     H_    0.591751 0.589380 0.860400 0.162547
H8    H     H_    0.408254 0.410615 0.139599 0.162545
N1    N     N_R   0.499980 0.499970 0.701220 -0.193143
N2    N     N_R   0.500020 0.500030 0.298780 -0.193138
O1    O     O_R   0.499990 0.391240 0.567930 -0.538841
O2    O     O_R   0.500010 0.608760 0.432070 -0.538842
O3    O     O_R   0.500000 0.391270 0.432120 -0.538494
O4    O     O_R   0.500000 0.608730 0.567880 -0.538490
O5    O     O_R   0.379070 0.499980 0.567900 -0.578219
O6    O     O_R   0.620930 0.500020 0.432100 -0.578216
O7    O     O_R   0.379080 0.500010 0.432080 -0.585834
O8    O     O_R   0.620920 0.499990 0.567920 -0.585838
H9    H     H_    0.049827 0.385647 0.430117 0.227901
H10   H     H_    0.950173 0.614353 0.569883 0.227901
F1    F     F_    0.941361 0.377030 0.579990 -0.576491
F2    F     F_    0.058639 0.622970 0.420010 -0.576490
F3    F     F_    0.941932 0.500207 0.344875 -0.579794
F4    F     F_    0.058067 0.499792 0.655125 -0.579794
F5    F     F_    0.491092 0.732599 0.646465 -0.621021
F6    F     F_    0.508955 0.267402 0.353538 -0.621012
F7    F     F_    0.509575 0.732394 0.353118 -0.595575
F8    F     F_    0.490377 0.267606 0.646879 -0.595585
F9    F     F_    0.509213 0.884838 0.354293 -0.586009
F10   F     F_    0.490741 0.115162 0.645704 -0.586010
H11   H     H_    0.590232 0.587767 0.709837 0.153321
H12   H     H_    0.409774 0.412228 0.290163 0.153307

loop_
_geom_bond_atom_site_label_1
_geom_bond_atom_site_label_2
_ccdc_geom_bond_type
C22   H4    S    
C11   C13   S    
C4    F6    S    
C36   F3    S    
C23   O5    A    
C33   C39   T    
C34   C40   T    
C35   C37   S    
C7    F7    S    
C15   C25   A    
C7    C9    A    
C12   C42   A    
Cu1   O4    S    
Cu1   N1    S    
C23   C33   S    
C29   C38   S    
C18   H12   S    
C15   H7    S    
Cu1   O5    S    
C19   N1    A    
C38   C40   S    
C13   C14   T    
C29   C31   S    
C3    F5    S    
C9    F9    S    
C41   H5    S    
C16   C26   A    
C8    F8    S    
C1    C6    S    
C32   C35   S    
C31   H9    S    
C32   H10   S    
C4    C6    A    
C5    C7    A    
C6    C8    A    
C24   C34   S    
C31   C37   S    
C30   C37   S    
Cu1   Cu2   S    
C1    O3    A    
Cu2   O2    S    
Cu2   O3    S    
C24   O6    A    
C19   H1    S    
C16   C18   A    
C9    C11   A    
C30   F2    S    
C10   C12   A    
C42   H6    S    
C29   F1    S    
C20   N2    A    
C12   C14   S    
C32   C38   S    
C2    C5    S    
C17   N1    A    
Cu1   O1    S    
C15   C17   A    
C21   C25   A    
C3    C41   A    
C24   O8    A    
C19   C21   A    
C16   H8    S    
C20   C22   A    
C3    C5    A    
C2    O4    A    
Cu2   O7    S    
C25   C27   S    
C29   C35   S    
C26   C28   S    
C30   C36   S    
C36   C38   S    
C1    O1    A    
C37   C39   S    
C2    O2    A    
C30   C32   S    
C10   F10   S    
C4    C42   A    
C35   F4    S    
Cu2   O6    S    
C11   C41   A    
C18   N2    A    
Cu2   N2    S    
C23   O7    A    
C8    C10   A    
C22   C26   A    
C27   C28   T    
C17   H11   S    
C31   C36   S    
C20   H2    S    
Cu1   O8    S    
C21   H3    S    
