data_mof_unit_65928.cif
_audit_creation_date              2013-03-05T16:51:10-0500
_audit_creation_method            fapswitch 2.2
_symmetry_space_group_name_H-M    P1
_symmetry_Int_Tables_number       1
_space_group_crystal_system       triclinic
_cell_length_a                    15.845628
_cell_length_b                    15.025267
_cell_length_c                    10.700149
_cell_angle_alpha                 89.853276
_cell_angle_beta                  90.189337
_cell_angle_gamma                 90.036037
_cell_volume                      2547.51999033

loop_
_atom_site_label
_atom_site_type_symbol
_atom_site_description
_atom_site_fract_x
_atom_site_fract_y
_atom_site_fract_z
_atom_type_partial_charge
O1    O     O_R   0.378020 0.573650 0.500000 -0.589028
O2    O     O_R   0.378020 0.426350 0.500000 -0.594422
C1    C     C_R   0.338806 0.499995 0.501000 0.949795
O3    O     O_R   0.499990 0.573670 0.314770 -0.586986
O4    O     O_R   0.499990 0.426330 0.314770 -0.590532
C2    C     C_R   0.494858 0.500094 0.256780 0.967600
Zn1   Zn    Zn3+2 0.500000 0.598370 0.499960 1.065573
Zn2   Zn    Zn3+2 0.500000 0.401630 0.499960 1.062148
O5    O     O_R   0.621980 0.573680 0.499940 -0.608622
O6    O     O_R   0.621980 0.426320 0.499940 -0.606141
O7    O     O_R   0.500010 0.573660 0.685180 -0.595194
O8    O     O_R   0.500010 0.426340 0.685180 -0.596413
C3    C     C_R   0.661183 0.500024 0.499942 0.905107
C4    C     C_R   0.483622 0.499800 0.739544 0.877245
C5    C     C_3   0.433538 0.586256 0.072165 0.353952
C6    C     C_3   0.443996 0.407201 0.072702 0.347790
C7    C     C_3   0.424817 0.580916 0.926078 -0.104620
C8    C     C_3   0.431120 0.413891 0.928347 -0.082058
H1    H     H_    0.358828 0.565180 0.900505 0.157308
H2    H     H_    0.362694 0.425466 0.911900 0.149068
H3    H     H_    0.608467 0.566537 0.096080 0.218608
H4    H     H_    0.616076 0.451461 0.099296 0.213276
H5    H     H_    0.602191 0.564390 0.885744 0.215553
H6    H     H_    0.606090 0.444925 0.888976 0.212324
C9    C     C_3   0.574633 0.505839 0.065218 -0.513944
C10   C     C_3   0.484389 0.499838 0.120025 -0.202523
C11   C     C_3   0.477895 0.499515 0.875675 -0.112604
C12   C     C_3   0.570362 0.503831 0.923126 -0.346645
H7    H     H_    0.077808 0.642138 0.469167 0.170048
H8    H     H_    0.077628 0.357650 0.526704 0.166666
C13   C     C_R   0.956327 0.580149 0.481368 -0.157266
C14   C     C_R   0.956233 0.419697 0.513813 -0.153446
H9    H     H_    0.922438 0.642195 0.468909 0.162441
H10   H     H_    0.922271 0.357698 0.526433 0.163179
C15   C     C_R   0.913176 0.499951 0.497675 0.148797
C16   C     C_R   0.043735 0.419668 0.513965 -0.141959
C17   C     C_R   0.043834 0.580118 0.481515 -0.134653
C18   C     C_R   0.086880 0.499894 0.497989 0.145614
C19   C     C_1   0.824395 0.500046 0.498427 -0.043413
C20   C     C_1   0.175641 0.499947 0.499125 -0.012382
C21   C     C_1   0.250457 0.499977 0.500163 -0.061705
C22   C     C_1   0.749562 0.500069 0.499185 -0.148120
C23   C     C_R   0.439347 0.952952 0.429108 0.129417
C24   C     C_R   0.439803 0.047476 0.428500 0.126675
C25   C     C_R   0.498740 0.905111 0.501593 -0.137625
C26   C     C_R   0.499138 0.094934 0.501244 -0.137301
C27   C     C_R   0.557529 0.952604 0.575302 0.136972
C28   C     C_R   0.557659 0.047130 0.575253 0.140110
C29   C     C_1   0.499389 0.807179 0.500566 0.246466
C30   C     C_1   0.499674 0.192832 0.500443 0.242389
N1    N     N_1   0.500020 0.270550 0.499960 -0.065036
N2    N     N_1   0.500020 0.729450 0.499960 -0.061090
I1    I     I_    0.501686 0.711586 0.120053 -0.175300
I2    I     I_    0.527118 0.292562 0.117586 -0.185296
I3    I     I_    0.645590 0.879651 0.687589 -0.216220
I4    I     I_    0.645989 0.119589 0.687314 -0.211105
N3    N     N_R   0.349574 0.592279 0.132049 0.220976
O9    O     O_R   0.341570 0.631375 0.239712 -0.321754
O10   O     O_R   0.281970 0.559558 0.079995 -0.358380
N4    N     N_R   0.362030 0.385308 0.131362 0.223622
O11   O     O_R   0.319553 0.316775 0.091551 -0.306720
O12   O     O_R   0.336401 0.423725 0.233052 -0.356642
I5    I     I_    0.415318 0.709190 0.827431 -0.192336
I6    I     I_    0.428656 0.285047 0.830633 -0.164159
I7    I     I_    0.350767 0.120496 0.317964 -0.116338
I8    I     I_    0.348027 0.880787 0.322165 -0.130744

loop_
_geom_bond_atom_site_label_1
_geom_bond_atom_site_label_2
_geom_bond_distance
_ccdc_geom_bond_type
O4    Zn2   2.015081 S    
C15   C19   1.406828 S    
C23   C24   1.420260 A    
C13   H9    1.083868 S    
C17   C18   1.395853 A    
H8    C16   1.083889 S    
C4    C11   1.459744 S    
C5    N3    1.481552 S    
C14   C15   1.395908 A    
C26   C30   1.470967 S    
C27   C28   1.420277 A    
C28   I4    2.139100 S    
C25   C29   1.471554 S    
Zn2   O8    2.017291 S    
C29   N2    1.167987 T    
C6    I2    2.219648 S    
C16   C18   1.395833 A    
C30   N1    1.167740 T    
N3    O9    1.301075 A    
C27   I3    2.139228 S    
O6    C3    1.269414 A    
H5    C12   1.114084 S    
C7    I5    2.200094 S    
C9    C12   1.522058 S    
C18   C20   1.406499 S    
C23   C25   1.413210 A    
Zn2   N1    1.969514 S    
C8    I6    2.202832 S    
C24   I7    2.139461 S    
C2    C10   1.472146 S    
H3    C9    1.108153 S    
C23   I8    2.138326 S    
C14   C16   1.386514 A    
C6    C8    1.560362 S    
C20   C21   1.185525 T    
C7    H1    1.105556 S    
C24   C26   1.412614 A    
Zn1   N2    1.969513 S    
Zn1   O7    2.015422 S    
C19   C22   1.185842 T    
C8    H2    1.111591 S    
O3    Zn1   2.016949 S    
N4    O12   1.299422 A    
O4    C2    1.271328 A    
O7    C4    1.278560 A    
C13   C15   1.395947 A    
N3    O10   1.302416 A    
O3    C2    1.271545 A    
C7    C11   1.581716 S    
C26   C28   1.412793 A    
C5    I1    2.230121 S    
H6    C12   1.114024 S    
C5    C7    1.571045 S    
C6    N4    1.480825 S    
C25   C27   1.412881 A    
H7    C17   1.083906 S    
C11   C12   1.550473 S    
Zn1   O5    1.968358 S    
O5    C3    1.269460 A    
C3    C22   1.400469 S    
C5    C10   1.610170 S    
O2    C1    1.269484 A    
O2    Zn2   1.968445 S    
C9    C10   1.549832 S    
O1    Zn1   1.967985 S    
H4    C9    1.108751 S    
Zn2   O6    1.967900 S    
C1    C21   1.399940 S    
C8    C11   1.587443 S    
C13   C17   1.386593 A    
O8    C4    1.276215 A    
N4    O11   1.301670 A    
O1    C1    1.268895 A    
C6    C10   1.613624 S    
C14   H10   1.083889 S    
