data_mof_unit_66334.cif
_audit_creation_date              2012-12-11T16:02:03-0500
_audit_creation_method            fapswitch 2.2
_symmetry_space_group_name_H-M    P1
_symmetry_Int_Tables_number       1
_space_group_crystal_system       triclinic
_cell_length_a                    6.960795
_cell_length_b                    20.133752
_cell_length_c                    21.707261
_cell_angle_alpha                 92.777507
_cell_angle_beta                  89.140456
_cell_angle_gamma                 90.560863
_cell_volume                      3038.16491111

loop_
_atom_site_label
_atom_site_type_symbol
_atom_type_description
_atom_site_fract_x
_atom_site_fract_y
_atom_site_fract_z
_atom_type_partial_charge
O1    O     O_R   0.616490 0.310280 0.688420 -0.519078
O2    O     O_R   0.383510 0.689720 0.311580 -0.519078
O3    O     O_R   0.286290 0.319340 0.804930 -0.522401
O4    O     O_R   0.713710 0.680660 0.195070 -0.522401
O5    O     O_R   0.115970 0.195830 0.805340 -0.529755
O6    O     O_R   0.884030 0.804170 0.194660 -0.529755
C1    C     C_R   0.454881 0.337133 0.827607 0.719267
C2    C     C_R   0.545119 0.662867 0.172393 0.719267
O7    O     O_R   0.286780 0.317900 0.688830 -0.520667
O8    O     O_R   0.713220 0.682100 0.311170 -0.520667
O9    O     O_R   0.116460 0.194390 0.688410 -0.520066
O10   O     O_R   0.883540 0.805610 0.311590 -0.520066
C3    C     C_R   0.457452 0.335685 0.666343 0.701277
C4    C     C_R   0.542548 0.664315 0.333657 0.701276
O11   O     O_R   0.616000 0.311730 0.805350 -0.519052
O12   O     O_R   0.384000 0.688270 0.194650 -0.519052
O13   O     O_3   0.449750 0.212530 0.746880 -0.353965
O14   O     O_3   0.550250 0.787470 0.253120 -0.353964
V1    V     V_3+5 0.174900 0.260570 0.746880 1.412823
V2    V     V_3+5 0.825100 0.739430 0.253120 1.412824
O15   O     O_R   0.786740 0.186770 0.688820 -0.522806
O16   O     O_R   0.213260 0.813230 0.311180 -0.522806
C5    C     C_R   0.956095 0.168643 0.666615 0.716600
C6    C     C_R   0.043904 0.831357 0.333385 0.716599
O17   O     O_R   0.786260 0.188210 0.804930 -0.534221
O18   O     O_R   0.213740 0.811790 0.195070 -0.534221
C7    C     C_R   0.953469 0.173338 0.824523 0.746844
C8    C     C_R   0.046531 0.826662 0.175477 0.746844
V3    V     V_3+5 0.674900 0.245540 0.746880 1.412017
V4    V     V_3+5 0.325100 0.754460 0.253120 1.412017
O19   O     O_3   0.949920 0.293580 0.746880 -0.356671
O20   O     O_3   0.050080 0.706420 0.253120 -0.356671
C9    C     C_3   0.076099 0.031530 0.050061 -0.138820
C10   C     C_3   0.923901 0.968470 0.949939 -0.138820
C11   C     C_3   0.885230 0.050131 0.019904 -0.140783
C12   C     C_3   0.114770 0.949869 0.980096 -0.140783
H1    H     H_    0.138849 0.056133 0.092089 0.112017
H2    H     H_    0.861151 0.943867 0.907911 0.112017
H3    H     H_    0.681980 0.955330 0.026832 0.112763
H4    H     H_    0.318020 0.044670 0.973168 0.112763
C13   C     C_1   0.959938 0.126765 0.870141 -0.198202
C14   C     C_1   0.040062 0.873235 0.129859 -0.198202
C15   C     C_3   0.175116 0.024013 0.985869 -0.141234
C16   C     C_3   0.824884 0.975987 0.014130 -0.141234
C17   C     C_3   0.984497 0.041689 0.956656 0.176645
C18   C     C_3   0.015503 0.958311 0.043344 0.176645
C19   C     C_1   0.969189 0.087895 0.909164 -0.072448
C20   C     C_1   0.030811 0.912105 0.090836 -0.072448
C21   C     C_1   0.032391 0.884050 0.384713 -0.213477
C22   C     C_1   0.967609 0.115950 0.615287 -0.213477
C23   C     C_1   0.020917 0.927347 0.427555 0.000791
C24   C     C_1   0.979083 0.072653 0.572445 0.000791
C25   C     C_1   0.006281 0.978463 0.478498 -0.000522
C26   C     C_1   0.993718 0.021537 0.521502 -0.000522
C27   C     C_1   0.465332 0.388488 0.880483 -0.217556
C28   C     C_1   0.534668 0.611512 0.119517 -0.217556
C29   C     C_1   0.477262 0.430228 0.924810 0.001723
C30   C     C_1   0.522738 0.569772 0.075190 0.001723
C31   C     C_1   0.493135 0.479349 0.977693 -0.001926
C32   C     C_1   0.506865 0.520651 0.022307 -0.001926
C33   C     C_1   0.470975 0.387141 0.614806 -0.208506
C34   C     C_1   0.529025 0.612859 0.385194 -0.208506
C35   C     C_1   0.481802 0.429053 0.572302 0.012002
C36   C     C_1   0.518197 0.570947 0.427698 0.012002
C37   C     C_1   0.494647 0.479106 0.521308 -0.003150
C38   C     C_1   0.505353 0.520894 0.478692 -0.003150
H5    H     H_    0.790736 0.092149 0.034943 0.110535
H6    H     H_    0.209264 0.907851 0.965057 0.110535

loop_
_geom_bond_atom_site_label_1
_geom_bond_atom_site_label_2
_ccdc_geom_bond_type
C22   C24   T    
C35   C37   S    
C11   C17   S    
C12   C18   S    
H3    C16   S    
O5    V1    S    
V4    O20   S    
C11   H5    S    
O18   C8    A    
O17   C7    A    
O13   V3    S    
O10   C6    A    
C10   C12   S    
C1    C27   S    
O4    C2    A    
V1    O19   S    
C2    C28   S    
C21   C23   T    
C1    O11   A    
C13   C19   T    
C24   C26   S    
C31   C32   T    
C2    O12   A    
C10   C17   S    
C14   C20   T    
C12   H6    S    
O3    V1    S    
C11   C16   S    
C15   C17   S    
O10   V2    S    
O8    V2    S    
O6    V2    S    
V2    O20   S    
O14   V4    S    
O1    V3    S    
C10   H2    S    
C9    C11   S    
C16   C18   S    
O11   V3    S    
C30   C32   S    
O3    C1    A    
C27   C29   T    
O15   C5    A    
O17   V3    S    
O2    C4    A    
O16   C6    A    
C29   C31   S    
O1    C3    A    
O2    V4    S    
C23   C25   S    
O12   V4    S    
O4    V2    S    
C18   C20   S    
O6    C8    A    
C6    C21   S    
C3    C33   S    
C8    C14   S    
O14   V2    S    
V3    O19   S    
C37   C38   T    
O8    C4    A    
C17   C19   S    
O9    C5    A    
C9    C18   S    
C33   C35   T    
C10   C16   S    
O7    C3    A    
O9    V1    S    
C5    C22   S    
C34   C36   T    
C36   C38   S    
O16   V4    S    
O13   V1    S    
O5    C7    A    
C9    C15   S    
O15   V3    S    
O7    V1    S    
H4    C15   S    
C9    H1    S    
C25   C26   T    
C28   C30   T    
C7    C13   S    
C12   C15   S    
O18   V4    S    
C4    C34   S    
