data_mof_unit_29618.cif
_audit_creation_date              2012-10-26T18:50:25-0400
_audit_creation_method            fapswitch 2.2
_symmetry_space_group_name_H-M    P1
_symmetry_Int_Tables_number       1
_space_group_crystal_system       triclinic
_cell_length_a                    9.701207
_cell_length_b                    10.917748
_cell_length_c                    15.485852
_cell_angle_alpha                 82.948506
_cell_angle_beta                  74.02332
_cell_angle_gamma                 91.9629
_cell_volume                      1560.92356061

loop_
_atom_site_label
_atom_site_type_symbol
_atom_type_description
_atom_site_fract_x
_atom_site_fract_y
_atom_site_fract_z
_atom_type_partial_charge
Br1   Br    Br    0.568401 0.171955 0.408513 -0.451399
Br2   Br    Br    0.591561 0.301882 0.645869 -0.364464
Br3   Br    Br    0.869910 0.728410 0.315326 -0.426410
Br4   Br    Br    0.296274 0.732836 0.317321 -0.390488
Br5   Br    Br    0.575671 0.530174 0.220265 -0.482636
C1    C     C_R   0.999578 0.262674 0.496935 0.557098
C2    C     C_R   0.242995 0.557062 0.041612 0.048479
C3    C     C_R   0.335898 0.516657 0.094325 0.059130
C4    C     C_R   0.917971 0.497083 0.672124 0.533484
C5    C     C_R   0.096227 0.565460 0.082501 -0.124753
C6    C     C_R   0.039369 0.535181 0.175666 -0.088964
C7    C     C_R   0.272395 0.477762 0.187308 -0.074857
C8    C     C_R   0.265719 0.131641 0.443742 -0.031770
C9    C     C_R   0.385687 0.084205 0.463954 0.196241
C10   C     C_R   0.370031 0.971921 0.520969 -0.091559
C11   C     C_R   0.242676 0.896253 0.540069 -0.118040
C12   C     C_R   0.678669 0.505766 0.909293 0.028474
C13   C     C_R   0.124212 0.941267 0.512975 0.013604
C14   C     C_R   0.129395 0.068293 0.482029 -0.040861
C15   C     C_R   0.999046 0.127574 0.494488 0.038750
C16   C     C_R   0.998968 0.735568 0.507845 0.588886
C17   C     C_R   0.868178 0.053908 0.520249 0.244468
C18   C     C_R   0.870412 0.925501 0.524969 -0.140429
C19   C     C_R   0.998581 0.867812 0.518412 -0.019823
C20   C     C_R   0.690556 0.708915 0.408237 0.209804
C21   C     C_R   0.629882 0.819824 0.397554 -0.170978
C22   C     C_R   0.497286 0.817643 0.383907 -0.133295
C23   C     C_R   0.775717 0.474709 0.960552 0.019573
C24   C     C_R   0.412733 0.707825 0.399665 0.226112
C25   C     C_R   0.451477 0.597647 0.448020 0.107167
C26   C     C_R   0.601256 0.597492 0.448931 0.104718
C27   C     C_R   0.546557 0.413941 0.553713 0.358158
C28   C     C_R   0.081459 0.493980 0.328620 0.587625
C29   C     C_R   0.400696 0.412102 0.552774 0.363146
C30   C     C_R   0.872038 0.491389 0.771309 0.009664
C31   C     C_R   0.129088 0.498041 0.229298 0.016763
C32   C     C_R   0.918554 0.453237 0.917316 -0.128346
C33   C     C_R   0.966997 0.463224 0.823222 -0.124832
C34   C     C_R   0.534381 0.528268 0.954317 0.014336
C35   C     C_R   0.729026 0.510473 0.814482 -0.104496
C36   C     C_R   0.486286 0.511504 0.051306 0.044805
C37   C     C_R   0.592167 0.493717 0.099424 0.153652
C38   C     C_R   0.731554 0.469950 0.054181 -0.085799
C39   C     C_R   0.437937 0.570741 0.905138 -0.115860
C40   C     C_R   0.296030 0.586491 0.948263 -0.120747
Cu1   Cu    Cu3+1 0.140660 0.499990 0.500010 1.004655
Cu2   Cu    Cu3+1 0.859340 0.500010 0.499990 1.096268
H1    H     H_    0.808475 0.452687 0.092614 0.139288
H2    H     H_    0.926093 0.543393 0.205487 0.200502
H3    H     H_    0.226134 0.618974 0.907686 0.114174
H4    H     H_    0.993154 0.428930 0.956310 0.117081
H5    H     H_    0.077691 0.446591 0.791360 0.141467
H6    H     H_    0.658450 0.526586 0.772275 0.137825
H7    H     H_    0.468994 0.596310 0.832732 0.109135
H8    H     H_    0.659985 0.042789 0.567509 0.335931
H9    H     H_    0.210300 0.344117 0.621246 0.367571
H10   H     H_    0.025778 0.597722 0.042409 0.121233
H11   H     H_    0.279894 0.218325 0.399084 0.166783
H12   H     H_    0.460493 0.936805 0.541708 0.114584
H13   H     H_    0.237152 0.805014 0.577497 0.137126
H14   H     H_    0.770300 0.870587 0.536544 0.116474
H15   H     H_    0.696261 0.906138 0.375714 0.197376
H16   H     H_    0.330763 0.428347 0.228459 0.175517
H17   H     H_    0.467247 0.902393 0.351599 0.189198
N1    N     N_R   0.648320 0.501210 0.499140 -0.267508
N2    N     N_R   0.352470 0.501290 0.499110 -0.280314
O1    O     O_R   0.118810 0.319640 0.500010 -0.541676
O2    O     O_3   0.308987 0.319003 0.610074 -0.662101
O3    O     O_R   0.881240 0.319660 0.500000 -0.391274
O4    O     O_R   0.055570 0.499980 0.629840 -0.552342
O5    O     O_R   0.818000 0.500010 0.629830 -0.491403
O6    O     O_R   0.118760 0.680340 0.500000 -0.489932
O7    O     O_R   0.881190 0.680360 0.499990 -0.495739
O8    O     O_R   0.182000 0.499990 0.370170 -0.453214
O9    O     O_R   0.944430 0.500020 0.370160 -0.451322
O10   O     O_3   0.739393 0.107888 0.541418 -0.598691

loop_
_geom_bond_atom_site_label_1
_geom_bond_atom_site_label_2
_ccdc_geom_bond_type
C20   C26   A    
C1    O3    A    
Br5   C37   S    
C2    C5    A    
C36   C37   A    
C14   C15   A    
C17   O10   S    
C29   N2    A    
C2    C3    A    
C34   C36   A    
C21   C22   A    
C24   C25   A    
C13   C19   A    
C40   H3    S    
C6    C31   A    
Cu1   N2    S    
C11   H13   S    
C25   C26   A    
C32   H4    S    
C22   C24   A    
C10   C11   A    
C16   O7    A    
C28   C31   S    
Br2   C27   S    
C13   C14   A    
C12   C34   A    
Cu2   O3    S    
C28   O9    A    
C18   C19   A    
C7    C31   A    
C38   H1    S    
Cu1   O6    S    
Br4   C24   S    
C8    C9    A    
C8    C14   A    
C16   O6    A    
Br3   C20   S    
C5    H10   S    
C4    O4    A    
Cu2   O7    S    
C22   H17   S    
C29   O2    S    
C7    H16   S    
C8    H11   S    
C20   C21   A    
H9    O2    S    
C12   C35   A    
C27   C29   A    
C32   C33   A    
C6    H2    S    
C3    C7    A    
C30   C33   A    
C3    C36   A    
Cu2   O5    S    
C25   N2    A    
H8    O10   S    
C1    O1    A    
C15   C17   A    
C37   C38   A    
C2    C40   A    
Cu1   O8    S    
C39   C40   A    
C26   N1    A    
Cu1   Cu2   S    
C9    C10   A    
C12   C23   A    
C10   H12   S    
C4    O5    A    
C34   C39   A    
C1    C15   S    
C23   C38   A    
C30   C35   A    
C21   H15   S    
Cu2   O9    S    
Cu1   O1    S    
C23   C32   A    
Cu1   O4    S    
C5    C6    A    
C39   H7    S    
C28   O8    A    
C18   H14   S    
C33   H5    S    
C11   C13   A    
C35   H6    S    
C16   C19   S    
C4    C30   S    
C17   C18   A    
Br1   C9    S    
Cu2   N1    S    
C27   N1    A    
