data_mof_unit_25631.cif
_audit_creation_date              2012-10-26T19:28:58-0400
_audit_creation_method            fapswitch 2.2
_symmetry_space_group_name_H-M    P1
_symmetry_Int_Tables_number       1
_space_group_crystal_system       triclinic
_cell_length_a                    9.424042
_cell_length_b                    10.735947
_cell_length_c                    17.37635
_cell_angle_alpha                 89.661723
_cell_angle_beta                  86.174083
_cell_angle_gamma                 90.290141
_cell_volume                      1754.09498373

loop_
_atom_site_label
_atom_site_type_symbol
_atom_type_description
_atom_site_fract_x
_atom_site_fract_y
_atom_site_fract_z
_atom_type_partial_charge
C1    C     C_R   0.500128 0.740105 0.499760 0.549605
C2    C     C_R   0.526327 0.504880 0.266189 0.011743
C3    C     C_3   0.345518 0.927808 0.498032 -0.234934
C4    C     C_R   0.481814 0.500733 0.649734 0.539987
C5    C     C_3   0.344575 0.070187 0.498512 -0.221652
C6    C     C_3   0.565443 0.926508 0.573224 -0.218485
C7    C     C_3   0.588185 0.927996 0.427497 -0.219626
C8    C     C_3   0.499981 0.877950 0.499617 0.033356
C9    C     C_3   0.499038 0.121935 0.499662 0.086274
C10   C     C_3   0.568193 0.071000 0.573313 -0.119517
C11   C     C_3   0.589625 0.072556 0.427067 -0.117855
C12   C     C_R   0.347841 0.542759 0.774791 -0.121762
C13   C     C_3   0.922235 0.405433 0.444330 -0.103400
C14   C     C_3   0.090010 0.411026 0.440065 -0.093942
C15   C     C_3   0.921679 0.622235 0.475269 -0.114012
C16   C     C_R   0.499561 0.260005 0.499807 0.553962
C17   C     C_3   0.903892 0.470594 0.575882 -0.079183
C18   C     C_3   0.088327 0.622212 0.479805 -0.115537
C19   C     C_3   0.070998 0.461240 0.576150 0.019846
C20   C     C_R   0.518130 0.503465 0.350361 0.544406
C21   C     C_R   0.474030 0.507187 0.733709 -0.003149
C22   C     C_R   0.596380 0.484277 0.772886 -0.147525
C23   C     C_R   0.426895 0.555531 0.145484 -0.102587
C24   C     C_R   0.593925 0.499362 0.851930 -0.131047
C25   C     C_R   0.469016 0.537006 0.893367 0.057194
C26   C     C_R   0.343835 0.558296 0.854766 0.020544
C27   C     C_3   0.752458 0.347475 0.105776 -0.413954
C28   C     C_3   0.501159 0.121781 0.650220 -0.427915
C29   C     C_3   0.543940 0.123927 0.349426 -0.423730
C30   C     C_3   0.315589 0.654558 0.263928 -0.393161
C31   C     C_3   0.109079 0.330224 0.605813 -0.380416
C32   C     C_3   0.204455 0.595203 0.895843 -0.414366
C33   C     C_R   0.425116 0.569465 0.225059 -0.011144
C34   C     C_R   0.632739 0.435224 0.226503 -0.133585
C35   C     C_R   0.636527 0.423785 0.146287 0.013395
C36   C     C_R   0.531515 0.483842 0.105374 0.041397
C37   C     C_2   0.473561 0.556399 0.976338 -0.146120
C38   C     C_2   0.527963 0.469294 0.021230 -0.143459
Cu1   Cu    Cu3+1 0.357600 0.500140 0.499960 0.861646
Cu2   Cu    Cu3+1 0.642400 0.499860 0.500040 0.862586
H1    H     H_    0.694991 0.456395 0.742345 0.111974
H2    H     H_    0.128957 0.442093 0.381282 0.105735
H3    H     H_    0.140094 0.656165 0.424223 0.110564
H4    H     H_    0.850375 0.383250 0.597433 0.129489
H5    H     H_    0.105023 0.528136 0.620088 0.123365
H6    H     H_    0.876765 0.696802 0.513581 0.113058
H7    H     H_    0.116541 0.690376 0.524338 0.104720
H8    H     H_    0.570626 0.384693 0.994932 0.124877
H9    H     H_    0.342981 0.598687 0.115360 0.100204
H10   H     H_    0.252917 0.560581 0.744599 0.111264
H11   H     H_    0.432237 0.643358 0.999725 0.115569
H12   H     H_    0.296026 0.894252 0.445464 0.109978
H13   H     H_    0.690954 0.484094 0.880707 0.103543
H14   H     H_    0.811696 0.405133 0.060991 0.129933
H15   H     H_    0.829797 0.313094 0.146407 0.118037
H16   H     H_    0.705387 0.265236 0.078385 0.121488
H17   H     H_    0.279321 0.892537 0.549121 0.114627
H18   H     H_    0.292151 0.105150 0.447254 0.111775
H19   H     H_    0.503176 0.888617 0.624965 0.121569
H20   H     H_    0.389073 0.090800 0.660835 0.128231
H21   H     H_    0.561784 0.087178 0.698609 0.124021
H22   H     H_    0.505535 0.225014 0.651197 0.144120
H23   H     H_    0.277858 0.102716 0.549447 0.110681
H24   H     H_    0.436091 0.090782 0.337241 0.130898
H25   H     H_    0.545529 0.227196 0.348685 0.147576
H26   H     H_    0.619616 0.091985 0.301949 0.120538
H27   H     H_    0.266073 0.715749 0.221573 0.104146
H28   H     H_    0.229552 0.598465 0.293916 0.135619
H29   H     H_    0.365857 0.716007 0.305676 0.129685
H30   H     H_    0.886676 0.310241 0.462644 0.106053
H31   H     H_    0.133747 0.316120 0.446382 0.115924
H32   H     H_    0.894602 0.646792 0.415711 0.111689
H33   H     H_    0.866914 0.544427 0.617109 0.099505
H34   H     H_    0.699514 0.893703 0.427370 0.102703
H35   H     H_    0.710604 0.386591 0.258538 0.106022
H36   H     H_    0.223307 0.318390 0.613002 0.193329
H37   H     H_    0.055378 0.315175 0.664040 0.072164
H38   H     H_    0.071770 0.255497 0.568160 0.097076
H39   H     H_    0.207756 0.596459 0.959439 0.127078
H40   H     H_    0.174177 0.689363 0.876114 0.121003
H41   H     H_    0.120311 0.527786 0.881857 0.121623
H42   H     H_    0.543057 0.890343 0.374688 0.115069
H43   H     H_    0.701798 0.103659 0.431443 0.120499
H44   H     H_    0.675985 0.891374 0.575882 0.103569
H45   H     H_    0.681745 0.101310 0.570121 0.124186
H46   H     H_    0.885462 0.419971 0.385547 0.116364
N1    N     N_3   0.856560 0.499750 0.498270 -0.229804
N2    N     N_3   0.143860 0.496700 0.498910 -0.210156
O1    O     O_R   0.379740 0.682430 0.499960 -0.518930
O2    O     O_R   0.620260 0.682190 0.500020 -0.512758
O3    O     O_R   0.365800 0.500150 0.613560 -0.523875
O4    O     O_R   0.606310 0.499910 0.613620 -0.517104
O5    O     O_R   0.379740 0.317810 0.499980 -0.520143
O6    O     O_R   0.620260 0.317570 0.500040 -0.521090
O7    O     O_R   0.393690 0.500090 0.386380 -0.506536
O8    O     O_R   0.634200 0.499850 0.386440 -0.514621

loop_
_geom_bond_atom_site_label_1
_geom_bond_atom_site_label_2
_ccdc_geom_bond_type
C15   C18   S    
C10   H45   S    
C26   C32   S    
C1    O2    A    
C1    C8    S    
C14   H31   S    
C35   C36   A    
C19   C31   S    
C18   H7    S    
C27   H14   S    
C7    C8    S    
C7    C11   S    
C32   H41   S    
C16   O5    A    
C5    H18   S    
Cu2   N1    S    
C9    C16   S    
C37   H11   S    
C27   H15   S    
C23   H9    S    
C22   H1    S    
C13   H30   S    
C5    H23   S    
C34   C35   A    
Cu1   O5    S    
C25   C37   S    
C23   C33   A    
C13   H46   S    
C9    C10   S    
C38   H8    S    
C30   H27   S    
C34   H35   S    
C14   H2    S    
C4    O3    A    
C28   H21   S    
C2    C34   A    
C20   O8    A    
C29   H24   S    
C13   C14   S    
C17   H33   S    
Cu1   N2    S    
Cu2   O8    S    
Cu1   O3    S    
C31   H37   S    
C7    H34   S    
C28   H20   S    
C6    H44   S    
C2    C20   S    
C24   C25   A    
C19   N2    S    
Cu1   Cu2   S    
C27   H16   S    
C6    C8    S    
C27   C35   S    
C25   C26   A    
C12   C21   A    
C18   N2    S    
C12   C26   A    
C5    C9    S    
C37   C38   D    
C15   H32   S    
C32   H40   S    
C13   N1    S    
Cu2   O4    S    
C9    C11   S    
Cu1   O7    S    
C29   H25   S    
C3    H17   S    
C2    C33   A    
C20   O7    A    
C3    C8    S    
C22   C24   A    
C30   H29   S    
C31   H38   S    
C15   N1    S    
C10   C28   S    
C1    O1    A    
C30   C33   S    
C17   N1    S    
C6    H19   S    
Cu2   O6    S    
C3    C5    S    
C6    C10   S    
C12   H10   S    
C3    H12   S    
C19   H5    S    
C16   O6    A    
C11   H43   S    
C36   C38   S    
C24   H13   S    
C17   H4    S    
C14   N2    S    
C18   H3    S    
C32   H39   S    
C4    C21   S    
C31   H36   S    
C17   C19   S    
C29   H26   S    
C7    H42   S    
C11   C29   S    
C23   C36   A    
C15   H6    S    
Cu2   O2    S    
C21   C22   A    
Cu1   O1    S    
C30   H28   S    
C4    O4    A    
C28   H22   S    
