data_mof_unit_12064.cif
_audit_creation_date              2012-12-10T17:54:19-0500
_audit_creation_method            fapswitch 2.2
_symmetry_space_group_name_H-M    P1
_symmetry_Int_Tables_number       1
_space_group_crystal_system       triclinic
_cell_length_a                    27.731882
_cell_length_b                    10.69803
_cell_length_c                    9.885818
_cell_angle_alpha                 89.226014
_cell_angle_beta                  89.546205
_cell_angle_gamma                 91.898008
_cell_volume                      2930.91067099

loop_
_atom_site_label
_atom_site_type_symbol
_atom_type_description
_atom_site_fract_x
_atom_site_fract_y
_atom_site_fract_z
_atom_type_partial_charge
C1    C     C_R   0.502275 0.259460 0.501817 0.883894
C2    C     C_R   0.277477 0.490520 0.627171 0.527274
C3    C     C_R   0.252843 0.484484 0.504073 0.283238
C4    C     C_R   0.101645 0.486031 0.499571 -0.049606
C5    C     C_R   0.125684 0.372908 0.485582 -0.030638
C6    C     C_R   0.099051 0.261334 0.469296 -0.126801
C7    C     C_R   0.128804 0.598411 0.515277 -0.035481
C8    C     C_R   0.353350 0.493714 0.501901 -0.066039
C9    C     C_R   0.646438 0.496980 0.498726 -0.053646
C10   C     C_R   0.972626 0.372448 0.492727 0.046571
C11   C     C_R   0.976068 0.603521 0.498904 0.047374
C12   C     C_R   0.406053 0.498594 0.500524 0.887827
C13   C     C_R   0.949122 0.488383 0.495494 0.071558
C14   C     C_R   0.944011 0.260425 0.497262 -0.211781
C15   C     C_R   0.894052 0.262410 0.498861 -0.131636
C16   C     C_R   0.870703 0.375891 0.496628 -0.022653
C17   C     C_R   0.898045 0.489219 0.495089 -0.051412
C18   C     C_R   0.874183 0.603408 0.493377 -0.021751
C19   C     C_R   0.823745 0.602120 0.493466 0.507909
C20   C     C_R   0.820309 0.378907 0.497341 0.507554
C21   C     C_R   0.721167 0.457793 0.381467 -0.099464
C22   C     C_R   0.671119 0.460112 0.382160 -0.190275
C23   C     C_R   0.493756 0.738144 0.500081 0.902111
C24   C     C_R   0.672331 0.530242 0.614965 -0.204800
C25   C     C_R   0.722388 0.527988 0.613934 -0.093173
C26   C     C_R   0.746764 0.492005 0.497171 0.309518
C27   C     C_R   0.023697 0.372099 0.486886 0.047019
C28   C     C_R   0.050576 0.486805 0.497870 0.075685
C29   C     C_R   0.027013 0.602294 0.507297 0.045886
C30   C     C_R   0.049048 0.260687 0.469563 -0.209588
C31   C     C_R   0.105320 0.710754 0.529806 -0.124664
C32   C     C_R   0.950929 0.716410 0.492873 -0.212268
C33   C     C_R   0.900968 0.716066 0.490606 -0.133798
C34   C     C_R   0.593886 0.499580 0.499566 0.890919
C35   C     C_R   0.055414 0.712902 0.526309 -0.209257
C36   C     C_R   0.510026 0.106318 0.760350 -0.162364
C37   C     C_R   0.495990 0.043089 0.879338 -0.127014
C38   C     C_R   0.470529 0.929412 0.872663 -0.119476
C39   C     C_R   0.463330 0.873631 0.747620 -0.137408
C40   C     C_R   0.481299 0.932357 0.627167 0.104263
C41   C     C_R   0.498011 0.056859 0.631725 0.093627
C42   C     C_R   0.501756 0.124847 0.506926 -0.117736
C43   C     C_R   0.496713 0.063744 0.383247 -0.173766
C44   C     C_R   0.489726 0.936722 0.381081 -0.153779
C45   C     C_R   0.176141 0.374387 0.487404 0.543969
C46   C     C_R   0.485034 0.869911 0.502479 -0.144326
C47   C     C_R   0.436408 0.335813 0.143621 -0.238835
C48   C     C_R   0.405079 0.253268 0.075486 -0.049862
C49   C     C_R   0.405314 0.255133 0.934640 -0.229121
C50   C     C_R   0.436412 0.336878 0.863152 -0.192543
C51   C     C_R   0.468518 0.419676 0.929450 0.160976
C52   C     C_R   0.468499 0.419516 0.074010 0.127459
C53   C     C_R   0.530582 0.576302 0.068558 -0.002862
C54   C     C_R   0.530325 0.575999 0.925465 -0.163124
C55   C     C_R   0.179156 0.595547 0.516860 0.565683
C56   C     C_R   0.277967 0.481608 0.381207 -0.191484
C57   C     C_R   0.328011 0.486150 0.379882 -0.173539
C58   C     C_R   0.328011 0.495048 0.625416 -0.336941
H1    H     H_    0.347346 0.499983 0.720102 0.164659
H2    H     H_    0.258543 0.476958 0.286701 0.164184
H3    H     H_    0.125453 0.798033 0.544244 0.194786
H4    H     H_    0.968734 0.807306 0.486955 0.138396
H5    H     H_    0.653972 0.558913 0.705986 0.169296
H6    H     H_    0.883408 0.805022 0.486677 0.189953
H7    H     H_    0.742317 0.554204 0.703529 0.146148
H8    H     H_    0.040258 0.802972 0.541959 0.140508
H9    H     H_    0.498991 0.113534 0.287077 0.169590
H10   H     H_    0.531573 0.191208 0.772139 0.176454
H11   H     H_    0.504165 0.083524 0.976677 0.147867
H12   H     H_    0.457821 0.882431 0.964515 0.152107
H13   H     H_    0.443474 0.784874 0.746005 0.162474
H14   H     H_    0.489268 0.890816 0.284216 0.205350
H15   H     H_    0.434923 0.331638 0.250841 0.238210
H16   H     H_    0.381606 0.192460 0.878788 0.211572
H17   H     H_    0.434666 0.331228 0.755945 0.222870
H18   H     H_    0.554981 0.637632 0.868542 0.160230
H19   H     H_    0.116771 0.173499 0.456128 0.191110
H20   H     H_    0.651792 0.431933 0.292258 0.199466
H21   H     H_    0.740135 0.429709 0.291246 0.148390
H22   H     H_    0.873767 0.174073 0.502197 0.193054
H23   H     H_    0.958995 0.168963 0.502771 0.139261
H24   H     H_    0.031416 0.171090 0.453056 0.138999
H25   H     H_    0.346767 0.484007 0.283452 0.174494
N1    N     N_R   0.201512 0.484633 0.503120 -0.339329
N2    N     N_R   0.798109 0.490935 0.495879 -0.358013
N3    N     N_R   0.499540 0.498800 0.142780 -0.161136
N4    N     N_R   0.499520 0.498720 0.857170 -0.129827
O1    O     O_R   0.500000 0.316780 0.614690 -0.654142
O2    O     O_2   0.793612 0.271045 0.500363 -0.546557
O3    O     O_2   0.205703 0.702534 0.531408 -0.533916
O4    O     O_2   0.800390 0.710862 0.490602 -0.546952
O5    O     O_R   0.500000 0.316750 0.385360 -0.640233
O6    O     O_R   0.428760 0.500030 0.614650 -0.649499
O7    O     O_R   0.428750 0.500010 0.385320 -0.645275
O8    O     O_R   0.500000 0.683250 0.614640 -0.628819
O9    O     O_R   0.500000 0.683220 0.385310 -0.592255
O10   O     O_R   0.571250 0.499990 0.614680 -0.620469
O11   O     O_R   0.571240 0.499970 0.385350 -0.598379
O12   O     O_2   0.199759 0.266848 0.474135 -0.531791
Zn1   Zn    Zn3+2 0.500000 0.500020 0.653130 0.932902
Zn2   Zn    Zn3+2 0.500000 0.499980 0.346870 0.970895
O13   O     O_3   0.251338 0.492188 0.746540 -0.743541
H26   H     H_    0.274050 0.496457 0.823459 0.334319
C59   C     C_2   0.565822 0.659772 0.134714 0.968779
O14   O     O_2   0.554687 0.765123 0.165673 -0.652812
O15   O     O_R   0.613067 0.621634 0.151893 -0.816809
H27   H     H_    0.634379 0.687844 0.196243 0.347345
C60   C     C_2   0.372254 0.164403 0.151311 0.918323
O16   O     O_2   0.371679 0.163169 0.275100 -0.628201
O17   O     O_R   0.341870 0.081310 0.081217 -0.793291
H28   H     H_    0.321349 0.025413 0.143961 0.361854

loop_
_geom_bond_atom_site_label_1
_geom_bond_atom_site_label_2
_ccdc_geom_bond_type
C10   C27   A    
C21   C26   A    
C38   H12   S    
C37   H11   S    
C41   C42   A    
C31   H3    S    
C7    C55   A    
C59   O15   S    
C53   C54   A    
C23   O9    A    
C40   C46   A    
C28   C29   A    
C55   O3    S    
C33   H6    S    
C5    C6    A    
C9    C22   A    
O15   H27   S    
C2    O13   S    
C53   C59   S    
C15   C16   A    
C34   O10   A    
C60   O16   D    
C18   C19   A    
O17   H28   S    
C8    C58   A    
C15   H22   S    
O7    Zn2   S    
C60   O17   S    
C16   C17   A    
C57   H25   S    
C53   N3    A    
C8    C12   S    
C1    O1    A    
C23   C46   S    
C21   C22   A    
C27   C30   A    
C12   O7    A    
C36   C41   A    
C4    C7    A    
C59   O14   D    
C4    C28   A    
C44   C46   A    
C17   C18   A    
C38   C39   A    
C7    C31   A    
C51   C52   A    
C25   H7    S    
C24   C25   A    
C47   H15   S    
C45   O12   S    
C51   N4    A    
C39   C40   A    
O8    Zn1   S    
C6    H19   S    
C35   H8    S    
C58   H1    S    
C5    C45   A    
C56   H2    S    
C30   H24   S    
C43   C44   A    
C37   C38   A    
C8    C57   A    
C3    C56   A    
C47   C48   A    
C16   C20   A    
C20   N2    A    
C21   H21   S    
C2    C58   A    
C50   C51   A    
O6    Zn1   S    
C22   H20   S    
O1    Zn1   S    
O5    Zn2   S    
C54   N4    A    
C54   H18   S    
C40   C41   A    
C6    C30   A    
C11   C32   A    
C1    O5    A    
C10   C14   A    
C9    C34   S    
C31   C35   A    
C12   O6    A    
C45   N1    A    
C56   C57   A    
C3    N1    S    
O10   Zn1   S    
N4    Zn1   S    
C36   C37   A    
C49   H16   S    
C4    C5    A    
C19   N2    A    
C10   C13   A    
C36   H10   S    
C9    C24   A    
C47   C52   A    
C24   H5    S    
O11   Zn2   S    
C20   O2    S    
C29   C35   A    
C13   C17   A    
C32   C33   A    
C52   N3    A    
C2    C3    A    
C25   C26   A    
C32   H4    S    
C50   H17   S    
C11   C13   A    
C48   C60   S    
C26   N2    S    
C48   C49   A    
C34   O11   A    
C23   O8    A    
C44   H14   S    
O13   H26   S    
C18   C33   A    
C19   O4    S    
C1    C42   S    
C11   C29   A    
C43   H9    S    
C49   C50   A    
C42   C43   A    
C27   C28   A    
C39   H13   S    
C14   C15   A    
C14   H23   S    
C55   N1    A    
O9    Zn2   S    
N3    Zn2   S    
