data_mof_unit_66527.cif
_audit_creation_date              2013-03-05T15:46:33-0500
_audit_creation_method            fapswitch 2.2
_symmetry_space_group_name_H-M    P1
_symmetry_Int_Tables_number       1
_space_group_crystal_system       triclinic
_cell_length_a                    10.149082
_cell_length_b                    10.785143
_cell_length_c                    10.409018
_cell_angle_alpha                 90.752677
_cell_angle_beta                  94.757782
_cell_angle_gamma                 82.112559
_cell_volume                      1124.69435384

loop_
_atom_site_label
_atom_site_type_symbol
_atom_site_description
_atom_site_fract_x
_atom_site_fract_y
_atom_site_fract_z
_atom_type_partial_charge
O1    O     O_R   0.568940 0.489660 0.307530 -0.599453
O2    O     O_R   0.431060 0.510340 0.692470 -0.583010
O3    O     O_R   0.348880 0.522640 0.340350 -0.551369
O4    O     O_R   0.651120 0.477360 0.659650 -0.560288
C1    C     C_R   0.445452 0.517703 0.265710 0.992410
C2    C     C_R   0.554737 0.500094 0.734740 1.007086
O5    O     O_R   0.610030 0.300280 0.483580 -0.602360
O6    O     O_R   0.389970 0.699720 0.516420 -0.613070
O7    O     O_R   0.389970 0.333270 0.516400 -0.584272
O8    O     O_R   0.610030 0.666730 0.483600 -0.579257
C3    C     C_R   0.498713 0.261006 0.500283 0.956390
C4    C     C_R   0.498915 0.740822 0.490791 0.851417
Zn1   Zn    Zn3+2 0.646940 0.477980 0.478080 1.109553
Zn2   Zn    Zn3+2 0.353060 0.522020 0.521920 1.110676
C5    C     C_R   0.582230 0.117124 0.272409 0.169857
C6    C     C_R   0.260944 0.927681 0.553255 0.210363
C7    C     C_R   0.685002 0.053486 0.203246 0.136811
C8    C     C_R   0.194445 0.985529 0.657166 0.099702
C9    C     C_R   0.750156 0.936813 0.247217 0.097491
C10   C     C_R   0.253625 0.076086 0.732151 0.107256
C11   C     C_R   0.701724 0.875965 0.349907 0.167759
C12   C     C_R   0.363890 0.124998 0.687327 0.200411
C13   C     C_R   0.585547 0.934035 0.406517 -0.070585
C14   C     C_R   0.420106 0.071324 0.575232 -0.083490
C15   C     C_R   0.552853 0.062616 0.388437 -0.075436
C16   C     C_R   0.391190 0.954846 0.535737 -0.090989
C17   C     C_R   0.494156 0.875950 0.476656 -0.026396
C18   C     C_R   0.492734 0.130490 0.490395 0.007200
C19   C     C_2   0.418404 0.549801 0.130175 -0.157770
C20   C     C_2   0.581529 0.523388 0.871297 -0.161016
C21   C     C_2   0.505422 0.608337 0.071174 0.019109
C22   C     C_2   0.498019 0.608763 0.931380 0.040008
H1    H     H_    0.663134 0.465109 0.924876 0.197935
H2    H     H_    0.333468 0.517181 0.076043 0.199982
N1    N     N_2   0.157300 0.551390 0.551120 -0.194772
N2    N     N_2   0.842700 0.448610 0.448880 -0.196048
C23   C     C_2   0.076583 0.480248 0.493354 0.265967
C24   C     C_2   0.937060 0.478019 0.531746 0.302202
H3    H     H_    0.866757 0.434056 0.355152 0.220763
H4    H     H_    0.122133 0.607195 0.625198 0.232630
N3    N     N_R   0.203876 0.116120 0.853365 0.273077
O9    O     O_R   0.284746 0.109858 0.957553 -0.254329
O10   O     O_R   0.077198 0.151946 0.861874 -0.194683
N4    N     N_R   0.870891 0.884853 0.192458 0.296150
O11   O     O_R   0.970178 0.949567 0.194383 -0.205224
O12   O     O_R   0.872009 0.786187 0.119174 -0.293965
N5    N     N_R   0.491616 0.220340 0.214622 0.206810
O13   O     O_R   0.367966 0.237563 0.243121 -0.295706
O14   O     O_R   0.521129 0.278296 0.114340 -0.322839
N6    N     N_R   0.189385 0.864562 0.452174 0.264634
O15   O     O_R   0.228490 0.859207 0.335958 -0.308326
O16   O     O_R   0.081875 0.817641 0.472708 -0.288190
N7    N     N_R   0.729454 0.108718 0.092819 0.295102
O17   O     O_R   0.786337 0.209711 0.106491 -0.262609
O18   O     O_R   0.734352 0.047154 0.984555 -0.235731
N8    N     N_R   0.071077 0.949391 0.689982 0.290444
O19   O     O_R   0.958870 0.018860 0.655410 -0.232188
O20   O     O_R   0.070651 0.845885 0.752559 -0.295046
N9    N     N_R   0.792121 0.782129 0.419153 0.261389
O21   O     O_R   0.861162 0.693118 0.358217 -0.361535
O22   O     O_R   0.818635 0.795638 0.542537 -0.254183
N10   N     N_R   0.424043 0.219598 0.760434 0.223229
O23   O     O_R   0.350484 0.309025 0.816924 -0.309832
O24   O     O_R   0.553349 0.210836 0.779193 -0.336339
N11   N     N_3   0.397679 0.695059 0.861415 -0.409856
H5    H     H_    0.412617 0.785736 0.889916 0.216144
H6    H     H_    0.304303 0.680054 0.888679 0.248760
N12   N     N_3   0.610666 0.662528 0.142187 -0.400253
H7    H     H_    0.701645 0.616195 0.115442 0.266211
H8    H     H_    0.602968 0.755809 0.113212 0.210966
N13   N     N_R   0.912519 0.495455 0.664564 0.204700
O25   O     O_R   0.926106 0.398475 0.739839 -0.288410
O26   O     O_R   0.895978 0.607052 0.714442 -0.294342
N14   N     N_R   0.121577 0.397980 0.392291 0.227456
O27   O     O_R   0.127713 0.277839 0.408305 -0.332180
O28   O     O_R   0.114732 0.441631 0.275698 -0.282703

loop_
_geom_bond_atom_site_label_1
_geom_bond_atom_site_label_2
_geom_bond_distance
_ccdc_geom_bond_type
C9    C11   1.417383 A    
C6    N6    1.444996 S    
N6    O16   1.298241 A    
O7    Zn2   2.019626 S    
N9    O21   1.299232 A    
C5    C7    1.411515 A    
C23   C24   1.506281 S    
C8    N8    1.429919 S    
C12   N10   1.437438 S    
C10   N3    1.436950 S    
O7    C3    1.282498 A    
N3    O9    1.301303 A    
C8    C10   1.409628 A    
C21   C22   1.450849 S    
N11   H6    1.045346 S    
C5    N5    1.446250 S    
O6    C4    1.294910 A    
C22   N11   1.438159 S    
C23   N14   1.430527 S    
C11   C13   1.425689 A    
N1    H4    1.028935 S    
N13   O25   1.300376 A    
N5    O14   1.300161 A    
N7    O17   1.301859 A    
C9    N4    1.435069 S    
C15   C18   1.413827 A    
O5    C3    1.285252 A    
N3    O10   1.300669 A    
C16   C17   1.429362 A    
O2    C2    1.285665 A    
O3    Zn2   1.886999 S    
N14   O28   1.300527 A    
C3    C18   1.419259 S    
O1    C1    1.288651 A    
O8    C4    1.296537 A    
O4    C2    1.297649 A    
N1    C23   1.303846 D    
N8    O20   1.300528 A    
C11   N9    1.428315 S    
C1    C19   1.451901 S    
C13   C17   1.438615 A    
N7    O18   1.301479 A    
C6    C16   1.419207 A    
C21   N12   1.434530 S    
O2    Zn2   1.881347 S    
C14   C18   1.407912 A    
C12   C14   1.422698 A    
C5    C15   1.421138 A    
N4    O11   1.300861 A    
N9    O22   1.300621 A    
N14   O27   1.300926 A    
C10   C12   1.415426 A    
C4    C17   1.460494 S    
N10   O24   1.301244 A    
N2    C24   1.304175 D    
C20   C22   1.347563 D    
C7    N7    1.434343 S    
O5    Zn1   2.005027 S    
C13   C15   1.392421 A    
O1    Zn1   1.881345 S    
N8    O19   1.301014 A    
Zn1   N2    2.016171 S    
C6    C8    1.415067 A    
N11   H5    1.045480 S    
Zn2   N1    2.016173 S    
N13   O26   1.299589 A    
N12   H8    1.044843 S    
C24   N13   1.430442 S    
C7    C9    1.402401 A    
O6    Zn2   2.005028 S    
N4    O12   1.300453 A    
C20   H1    1.087090 S    
N6    O15   1.302188 A    
C19   C21   1.344943 D    
C19   H2    1.087112 S    
C2    C20   1.450083 S    
N2    H3    1.030071 S    
N10   O23   1.301389 A    
N5    O13   1.301417 A    
O4    Zn1   1.887000 S    
C14   C16   1.378714 A    
N12   H7    1.045057 S    
O3    C1    1.295380 A    
O8    Zn1   2.019627 S    
