data_mof_unit_40390.cif
_audit_creation_date              2012-12-10T17:01:06-0500
_audit_creation_method            fapswitch 2.2
_symmetry_space_group_name_H-M    P1
_symmetry_Int_Tables_number       1
_space_group_crystal_system       triclinic
_cell_length_a                    21.775018
_cell_length_b                    21.786541
_cell_length_c                    30.186341
_cell_angle_alpha                 89.999234
_cell_angle_beta                  89.99978
_cell_angle_gamma                 90.000641
_cell_volume                      14320.4702739

loop_
_atom_site_label
_atom_site_type_symbol
_atom_type_description
_atom_site_fract_x
_atom_site_fract_y
_atom_site_fract_z
_atom_type_partial_charge
C1    C     C_R   0.500000 0.118620 0.500000 0.791216
C2    C     C_R   0.118695 0.500000 0.500000 0.785389
C3    C     C_R   0.500000 0.881380 0.500000 0.791214
C4    C     C_R   0.881305 0.499999 0.500000 0.785389
C5    C     C_R   0.000000 0.618620 0.000000 0.791215
C6    C     C_R   0.618695 0.000001 0.999999 0.785390
C7    C     C_R   1.000000 0.381380 1.000000 0.791219
C8    C     C_R   0.381305 0.999999 0.999999 0.785394
C9    C     C_R   0.626302 0.281526 0.580969 -0.141856
C10   C     C_R   0.282122 0.366709 0.574686 -0.150156
C11   C     C_R   0.373692 0.718469 0.580965 -0.141855
C12   C     C_R   0.717877 0.633290 0.574684 -0.150157
C13   C     C_R   0.626301 0.718475 0.419032 -0.141845
C14   C     C_R   0.282129 0.633316 0.425335 -0.150133
C15   C     C_R   0.373704 0.281527 0.419029 -0.141845
C16   C     C_R   0.717872 0.366686 0.425337 -0.150134
C17   C     C_R   0.126307 0.781527 0.080965 -0.141847
C18   C     C_R   0.782121 0.866718 0.074696 -0.150140
C19   C     C_R   0.873689 0.218469 0.080962 -0.141846
C20   C     C_R   0.217880 0.133262 0.074712 -0.150139
C21   C     C_R   0.126305 0.218476 0.919035 -0.141847
C22   C     C_R   0.782131 0.133335 0.925354 -0.150134
C23   C     C_R   0.873696 0.781528 0.919035 -0.141853
C24   C     C_R   0.217871 0.866682 0.925342 -0.150133
C25   C     C_R   0.589337 0.313103 0.551002 -0.145109
C26   C     C_R   0.313679 0.406706 0.546850 -0.158044
C27   C     C_R   0.410659 0.686894 0.550997 -0.145106
C28   C     C_R   0.686321 0.593293 0.546848 -0.158036
C29   C     C_R   0.589337 0.686898 0.449001 -0.145115
C30   C     C_R   0.313684 0.593307 0.453164 -0.158049
C31   C     C_R   0.410665 0.313104 0.448999 -0.145112
C32   C     C_R   0.686317 0.406695 0.453165 -0.158052
C33   C     C_R   0.089340 0.813104 0.050999 -0.145116
C34   C     C_R   0.813678 0.906710 0.046855 -0.158047
C35   C     C_R   0.910657 0.186893 0.050995 -0.145113
C36   C     C_R   0.186323 0.093278 0.046865 -0.158046
C37   C     C_R   0.089339 0.186898 0.949002 -0.145116
C38   C     C_R   0.813686 0.093316 0.953176 -0.158054
C39   C     C_R   0.910661 0.813104 0.949003 -0.145109
C40   C     C_R   0.186316 0.906694 0.953167 -0.158051
C41   C     C_R   0.542741 0.282365 0.526755 0.069757
C42   C     C_R   0.282708 0.455167 0.524817 0.068211
C43   C     C_R   0.457256 0.717633 0.526752 0.069757
C44   C     C_R   0.717291 0.544832 0.524815 0.068213
C45   C     C_R   0.542740 0.717635 0.473246 0.069759
C46   C     C_R   0.282711 0.544840 0.475191 0.068222
C47   C     C_R   0.457261 0.282365 0.473246 0.069761
C48   C     C_R   0.717290 0.455161 0.475191 0.068224
C49   C     C_R   0.042743 0.782365 0.026754 0.069757
C50   C     C_R   0.782708 0.955169 0.024819 0.068199
C51   C     C_R   0.957255 0.217633 0.026751 0.069755
C52   C     C_R   0.217293 0.044825 0.024824 0.068200
C53   C     C_R   0.042741 0.217635 0.973247 0.069761
C54   C     C_R   0.782712 0.044845 0.975196 0.068230
C55   C     C_R   0.957258 0.782366 0.973248 0.069759
C56   C     C_R   0.217289 0.955160 0.975192 0.068232
C57   C     C_R   0.538950 0.217851 0.529657 0.071934
C58   C     C_R   0.218196 0.458742 0.527996 0.073312
C59   C     C_R   0.461048 0.782148 0.529655 0.071935
C60   C     C_R   0.781803 0.541257 0.527995 0.073313
C61   C     C_R   0.538948 0.782150 0.470343 0.071942
C62   C     C_R   0.218199 0.541267 0.472010 0.073295
C63   C     C_R   0.461053 0.217851 0.470343 0.071943
C64   C     C_R   0.781802 0.458734 0.472010 0.073297
C65   C     C_R   0.038952 0.717851 0.029656 0.071938
C66   C     C_R   0.718196 0.958745 0.027998 0.073317
C67   C     C_R   0.961047 0.282147 0.029654 0.071938
C68   C     C_R   0.281805 0.041248 0.028003 0.073317
C69   C     C_R   0.038950 0.282150 0.970344 0.071943
C70   C     C_R   0.718200 0.041274 0.972015 0.073286
C71   C     C_R   0.961050 0.717852 0.970345 0.071939
C72   C     C_R   0.281801 0.958732 0.972012 0.073286
C73   C     C_R   0.500000 0.314450 0.500001 -0.197356
C74   C     C_R   0.314673 0.500001 0.500002 -0.197048
C75   C     C_R   0.499998 0.685549 0.499999 -0.197354
C76   C     C_R   0.685327 0.499999 0.500001 -0.197047
C77   C     C_R   0.000000 0.814451 0.000001 -0.197353
C78   C     C_R   0.814673 0.000002 0.000003 -0.197045
C79   C     C_R   0.999998 0.185549 0.999999 -0.197352
C80   C     C_R   0.185327 0.999998 0.000003 -0.197054
C81   C     C_R   0.500001 0.185659 0.500000 -0.194832
C82   C     C_R   0.185873 0.500002 0.500001 -0.198626
C83   C     C_R   0.499999 0.814341 0.499999 -0.194834
C84   C     C_R   0.814127 0.499998 0.500001 -0.198625
C85   C     C_R   0.000001 0.685659 0.000000 -0.194834
C86   C     C_R   0.685873 0.000005 0.000003 -0.198628
C87   C     C_R   0.999999 0.314341 0.999999 -0.194836
C88   C     C_R   0.314127 0.999995 0.000003 -0.198622
C89   C     C_R   0.381453 0.500000 0.500000 0.779051
C90   C     C_R   0.499999 0.618632 0.500000 0.776744
C91   C     C_R   0.618546 0.500000 0.500000 0.779052
C92   C     C_R   0.500001 0.381367 0.500000 0.776744
C93   C     C_R   0.881454 0.999998 0.000001 0.779052
C94   C     C_R   0.999999 0.118632 1.000000 0.776745
C95   C     C_R   0.118547 0.000002 0.000000 0.779051
C96   C     C_R   0.000001 0.881367 0.000000 0.776745
C97   C     C_R   0.500000 1.000000 0.585790 0.790889
C98   C     C_R   1.000000 0.499999 0.585360 0.789045
C99   C     C_R   0.500000 0.999999 0.414209 0.790880
C100  C     C_R   0.000000 0.500000 0.414639 0.789046
C101  C     C_R   1.000000 0.500001 0.085790 0.790891
C102  C     C_R   0.500001 1.000000 0.085360 0.789045
C103  C     C_R   0.000000 0.500001 0.914209 0.790886
C104  C     C_R   0.500001 0.000000 0.914639 0.789045
C105  C     C_R   0.554955 0.007542 0.844092 -0.237607
C106  C     C_R   0.055113 0.494172 0.842299 -0.232891
C107  C     C_R   0.445047 0.992463 0.844092 -0.237610
C108  C     C_R   0.944889 0.505834 0.842299 -0.232888
C109  C     C_R   0.554965 0.992545 0.155904 -0.237632
C110  C     C_R   0.055105 0.505910 0.157699 -0.232884
C111  C     C_R   0.445038 0.007452 0.155904 -0.237636
C112  C     C_R   0.944895 0.494097 0.157699 -0.232884
C113  C     C_R   0.054957 0.507519 0.344093 -0.237614
C114  C     C_R   0.555112 0.994164 0.342298 -0.232896
C115  C     C_R   0.945043 0.492486 0.344093 -0.237613
C116  C     C_R   0.444888 0.005822 0.342298 -0.232890
C117  C     C_R   0.054966 0.492555 0.655905 -0.237619
C118  C     C_R   0.555102 0.005940 0.657698 -0.232881
C119  C     C_R   0.945033 0.507442 0.655905 -0.237616
C120  C     C_R   0.444898 0.994062 0.657699 -0.232880
C121  C     C_R   0.500001 0.000002 0.866747 -0.043259
C122  C     C_R   0.000000 0.500002 0.865510 -0.082419
C123  C     C_R   0.500001 0.999999 0.133251 -0.043260
C124  C     C_R   1.000000 0.500002 0.134489 -0.082394
C125  C     C_R   0.000000 0.500002 0.366748 -0.043261
C126  C     C_R   0.500000 0.999996 0.365509 -0.082424
C127  C     C_R   0.999999 0.499998 0.633251 -0.043260
C128  C     C_R   0.500000 0.000001 0.634488 -0.082386
C129  C     C_R   0.443725 0.993726 0.797616 0.060324
C130  C     C_R   0.943885 0.506691 0.795782 0.053215
C131  C     C_R   0.556276 0.006281 0.797616 0.060326
C132  C     C_R   0.056116 0.493315 0.795781 0.053221
C133  C     C_R   0.443717 0.006177 0.202380 0.060339
C134  C     C_R   0.943893 0.493242 0.204217 0.053227
C135  C     C_R   0.556284 0.993813 0.202380 0.060341
C136  C     C_R   0.056107 0.506767 0.204216 0.053228
C137  C     C_R   0.943723 0.493753 0.297617 0.060329
C138  C     C_R   0.443884 0.006677 0.295781 0.053226
C139  C     C_R   0.056278 0.506255 0.297617 0.060330
C140  C     C_R   0.556115 0.993304 0.295781 0.053226
C141  C     C_R   0.943715 0.506180 0.702381 0.060336
C142  C     C_R   0.443897 0.993209 0.704216 0.053228
C143  C     C_R   0.056285 0.493819 0.702381 0.060337
C144  C     C_R   0.556103 0.006797 0.704215 0.053227
C145  C     C_R   0.500000 0.000003 0.774200 0.021702
C146  C     C_R   0.000001 0.500001 0.772394 0.029202
C147  C     C_R   0.500000 0.999994 0.225796 0.021697
C148  C     C_R   1.000000 0.500005 0.227604 0.029192
C149  C     C_R   0.000000 0.500004 0.274201 0.021700
C150  C     C_R   0.500000 0.999992 0.272393 0.029198
C151  C     C_R   0.000000 0.500000 0.725797 0.021696
C152  C     C_R   0.500000 0.000003 0.727603 0.029188
C153  C     C_R   0.387586 0.988022 0.774322 -0.060750
C154  C     C_R   0.887825 0.513109 0.772430 -0.065549
C155  C     C_R   0.612414 0.011990 0.774320 -0.060753
C156  C     C_R   0.112178 0.486903 0.772429 -0.065554
C157  C     C_R   0.387568 0.011775 0.225673 -0.060755
C158  C     C_R   0.887838 0.486756 0.227569 -0.065532
C159  C     C_R   0.612432 0.988203 0.225674 -0.060753
C160  C     C_R   0.112161 0.513251 0.227568 -0.065534
C161  C     C_R   0.887581 0.488076 0.274323 -0.060751
C162  C     C_R   0.387822 0.013083 0.272429 -0.065544
C163  C     C_R   0.112419 0.511933 0.274322 -0.060754
C164  C     C_R   0.612176 0.986886 0.272429 -0.065533
C165  C     C_R   0.887569 0.511794 0.725675 -0.060763
C166  C     C_R   0.387846 0.986696 0.727568 -0.065529
C167  C     C_R   0.112432 0.488210 0.725675 -0.060767
C168  C     C_R   0.612154 0.013313 0.727566 -0.065531
C169  C     C_R   0.574547 0.187339 0.562323 -0.139937
C170  C     C_R   0.187957 0.420551 0.559220 -0.130680
C171  C     C_R   0.425449 0.812658 0.562321 -0.139938
C172  C     C_R   0.812042 0.579448 0.559218 -0.130679
C173  C     C_R   0.574546 0.812662 0.437677 -0.139956
C174  C     C_R   0.187961 0.579467 0.440792 -0.130702
C175  C     C_R   0.425459 0.187341 0.437675 -0.139960
C176  C     C_R   0.812039 0.420534 0.440793 -0.130701
C177  C     C_R   0.074552 0.687339 0.062321 -0.139946
C178  C     C_R   0.687956 0.920558 0.059224 -0.130678
C179  C     C_R   0.925446 0.312657 0.062319 -0.139946
C180  C     C_R   0.312045 0.079427 0.059232 -0.130686
C181  C     C_R   0.074549 0.312662 0.937678 -0.139959
C182  C     C_R   0.687964 0.079481 0.940801 -0.130710
C183  C     C_R   0.925453 0.687341 0.937678 -0.139953
C184  C     C_R   0.312038 0.920531 0.940795 -0.130714
C185  C     C_R   0.617719 0.219055 0.587530 -0.148084
C186  C     C_R   0.219667 0.374720 0.581817 -0.128551
C187  C     C_R   0.382276 0.780940 0.587526 -0.148084
C188  C     C_R   0.780331 0.625279 0.581815 -0.128556
C189  C     C_R   0.617717 0.780946 0.412470 -0.148078
C190  C     C_R   0.219674 0.625308 0.418203 -0.128498
C191  C     C_R   0.382290 0.219057 0.412467 -0.148072
C192  C     C_R   0.780327 0.374694 0.418205 -0.128500
C193  C     C_R   0.117725 0.719056 0.087526 -0.148080
C194  C     C_R   0.719666 0.874731 0.081826 -0.128546
C195  C     C_R   0.882272 0.280939 0.087523 -0.148082
C196  C     C_R   0.280334 0.125247 0.081840 -0.128538
C197  C     C_R   0.117722 0.280946 0.912473 -0.148074
C198  C     C_R   0.719676 0.125329 0.918221 -0.128481
C199  C     C_R   0.882281 0.719058 0.912473 -0.148074
C200  C     C_R   0.280326 0.874688 0.918210 -0.128477
Cu1   Cu    Cu3+1 0.438180 0.000000 0.500000 0.941559
Cu2   Cu    Cu3+1 0.000000 0.561820 0.500000 0.936284
Cu3   Cu    Cu3+1 0.561820 0.000000 0.500000 0.941560
Cu4   Cu    Cu3+1 0.000000 0.438180 0.500000 0.936287
Cu5   Cu    Cu3+1 0.938180 0.500000 0.000000 0.941555
Cu6   Cu    Cu3+1 0.500000 0.061820 0.000000 0.936285
Cu7   Cu    Cu3+1 0.061820 0.500000 0.000000 0.941553
Cu8   Cu    Cu3+1 0.500000 0.938180 0.000000 0.936282
Cu9   Cu    Cu3+1 0.500000 0.500000 0.455560 0.913292
Cu10  Cu    Cu3+1 0.500000 0.500000 0.544440 0.913286
Cu11  Cu    Cu3+1 1.000000 0.000000 0.955560 0.913296
Cu12  Cu    Cu3+1 0.000000 0.000000 0.044440 0.913277
H1    H     H_    0.596418 0.014079 0.863322 0.135604
H2    H     H_    0.097312 0.490277 0.860969 0.173577
H3    H     H_    0.403584 0.985925 0.863323 0.135604
H4    H     H_    0.902689 0.509730 0.860969 0.173575
H5    H     H_    0.596434 0.986068 0.136672 0.135631
H6    H     H_    0.097298 0.509865 0.139027 0.173561
H7    H     H_    0.403569 0.013931 0.136673 0.135627
H8    H     H_    0.902701 0.490141 0.139028 0.173561
H9    H     H_    0.096422 0.514040 0.363323 0.135610
H10   H     H_    0.597311 0.990272 0.360969 0.173583
H11   H     H_    0.903579 0.485964 0.363324 0.135612
H12   H     H_    0.402689 0.009717 0.360968 0.173583
H13   H     H_    0.096437 0.486090 0.636673 0.135624
H14   H     H_    0.597293 0.009923 0.639026 0.173554
H15   H     H_    0.903561 0.513907 0.636673 0.135622
H16   H     H_    0.402707 0.990078 0.639027 0.173553
H17   H     H_    0.354855 0.194867 0.388176 0.125432
H18   H     H_    0.195631 0.654783 0.395120 0.129729
H19   H     H_    0.645153 0.805137 0.388180 0.125425
H20   H     H_    0.804370 0.345220 0.395122 0.129731
H21   H     H_    0.354838 0.805129 0.611815 0.125433
H22   H     H_    0.195624 0.345255 0.604905 0.129730
H23   H     H_    0.645156 0.194864 0.611819 0.125430
H24   H     H_    0.804374 0.654744 0.604903 0.129728
H25   H     H_    0.854843 0.694868 0.888183 0.125440
H26   H     H_    0.695634 0.154811 0.895142 0.129730
H27   H     H_    0.145160 0.305138 0.888184 0.125435
H28   H     H_    0.304369 0.845211 0.895129 0.129730
H29   H     H_    0.854832 0.305129 0.111811 0.125430
H30   H     H_    0.695623 0.845269 0.104917 0.129730
H31   H     H_    0.145165 0.694864 0.111813 0.125429
H32   H     H_    0.304378 0.154702 0.104935 0.129733
H33   H     H_    0.569293 0.138984 0.569250 0.147359
H34   H     H_    0.139862 0.425665 0.567044 0.143939
H35   H     H_    0.430704 0.861011 0.569249 0.147358
H36   H     H_    0.860137 0.574334 0.567043 0.143939
H37   H     H_    0.569291 0.861015 0.430748 0.147360
H38   H     H_    0.139867 0.574357 0.432965 0.143939
H39   H     H_    0.430715 0.138987 0.430747 0.147356
H40   H     H_    0.860134 0.425645 0.432966 0.143940
H41   H     H_    0.069298 0.638985 0.069248 0.147362
H42   H     H_    0.639861 0.925672 0.067047 0.143932
H43   H     H_    0.930701 0.361010 0.069248 0.147362
H44   H     H_    0.360141 0.074312 0.067053 0.143925
H45   H     H_    0.069295 0.361015 0.930750 0.147363
H46   H     H_    0.639870 0.074372 0.932972 0.143946
H47   H     H_    0.930708 0.638988 0.930750 0.147362
H48   H     H_    0.360133 0.925641 0.932968 0.143940
H49   H     H_    0.661057 0.305852 0.599669 0.127058
H50   H     H_    0.306540 0.330394 0.591677 0.131950
H51   H     H_    0.338936 0.694143 0.599663 0.127057
H52   H     H_    0.693458 0.669604 0.591674 0.131950
H53   H     H_    0.661056 0.694150 0.400333 0.127077
H54   H     H_    0.306548 0.669638 0.408352 0.131945
H55   H     H_    0.338951 0.305854 0.400328 0.127078
H56   H     H_    0.693453 0.330365 0.408354 0.131948
H57   H     H_    0.161063 0.805853 0.099663 0.127056
H58   H     H_    0.806539 0.830406 0.091690 0.131951
H59   H     H_    0.838932 0.194142 0.099659 0.127057
H60   H     H_    0.193462 0.169569 0.091710 0.131949
H61   H     H_    0.161060 0.194150 0.900336 0.127084
H62   H     H_    0.806551 0.169661 0.908376 0.131945
H63   H     H_    0.838941 0.805855 0.900336 0.127085
H64   H     H_    0.193452 0.830359 0.908360 0.131942
H65   H     H_    0.598239 0.361577 0.547003 0.144850
H66   H     H_    0.362339 0.398788 0.542710 0.144985
H67   H     H_    0.401757 0.638421 0.546998 0.144846
H68   H     H_    0.637660 0.601211 0.542708 0.144985
H69   H     H_    0.598240 0.638425 0.453000 0.144850
H70   H     H_    0.362345 0.601222 0.457305 0.144969
H71   H     H_    0.401761 0.361576 0.452999 0.144854
H72   H     H_    0.637656 0.398779 0.457305 0.144971
H73   H     H_    0.098241 0.861577 0.047000 0.144847
H74   H     H_    0.862338 0.898791 0.042715 0.144989
H75   H     H_    0.901756 0.138420 0.046996 0.144844
H76   H     H_    0.137664 0.101200 0.042726 0.145001
H77   H     H_    0.098241 0.138425 0.953001 0.144851
H78   H     H_    0.862347 0.101229 0.957317 0.144960
H79   H     H_    0.901758 0.861577 0.953003 0.144851
H80   H     H_    0.137655 0.898779 0.957308 0.144969
O1    O     O_R   0.447800 0.090110 0.500010 -0.584928
O2    O     O_R   0.090110 0.552200 0.500010 -0.587729
O3    O     O_R   0.552200 0.909890 0.500010 -0.584928
O4    O     O_R   0.909890 0.447800 0.500010 -0.587729
O5    O     O_R   0.447800 0.909890 0.499990 -0.584931
O6    O     O_R   0.090110 0.447800 0.499990 -0.587720
O7    O     O_R   0.552200 0.090110 0.499990 -0.584931
O8    O     O_R   0.909890 0.552200 0.499990 -0.587721
O9    O     O_R   0.947800 0.590110 0.000010 -0.584927
O10   O     O_R   0.590110 0.052200 0.000010 -0.587735
O11   O     O_R   0.052200 0.409890 0.000010 -0.584928
O12   O     O_R   0.409890 0.947800 0.000010 -0.587734
O13   O     O_R   0.947800 0.409890 0.999990 -0.584934
O14   O     O_R   0.590110 0.947800 0.999990 -0.587716
O15   O     O_R   0.052200 0.590110 0.999990 -0.584934
O16   O     O_R   0.409890 0.052200 0.999990 -0.587712
O17   O     O_R   0.447790 0.999910 0.564880 -0.593236
O18   O     O_R   0.999910 0.552210 0.564880 -0.586975
O19   O     O_R   0.552210 0.000090 0.564880 -0.593237
O20   O     O_R   0.000090 0.447790 0.564880 -0.586974
O21   O     O_R   0.447790 0.000090 0.435120 -0.593239
O22   O     O_R   0.999910 0.447790 0.435120 -0.586976
O23   O     O_R   0.552210 0.999910 0.435120 -0.593239
O24   O     O_R   0.000090 0.552210 0.435120 -0.586976
O25   O     O_R   0.947790 0.499910 0.064880 -0.593237
O26   O     O_R   0.499910 0.052210 0.064880 -0.586974
O27   O     O_R   0.052210 0.500090 0.064880 -0.593238
O28   O     O_R   0.500090 0.947790 0.064880 -0.586977
O29   O     O_R   0.947790 0.500090 0.935120 -0.593240
O30   O     O_R   0.499910 0.947790 0.935120 -0.586975
O31   O     O_R   0.052210 0.499910 0.935120 -0.593242
O32   O     O_R   0.500090 0.052210 0.935120 -0.586977
O33   O     O_R   0.409850 0.499950 0.462440 -0.593409
O34   O     O_R   0.499950 0.590150 0.462440 -0.589552
O35   O     O_R   0.590150 0.500050 0.462440 -0.593411
O36   O     O_R   0.500050 0.409850 0.462440 -0.589551
O37   O     O_R   0.409850 0.500050 0.537560 -0.593429
O38   O     O_R   0.499950 0.409850 0.537560 -0.589551
O39   O     O_R   0.590150 0.499950 0.537560 -0.593426
O40   O     O_R   0.500050 0.590150 0.537560 -0.589548
O41   O     O_R   0.909850 0.999950 0.962440 -0.593398
O42   O     O_R   0.999950 0.090150 0.962440 -0.589552
O43   O     O_R   0.090150 0.000050 0.962440 -0.593401
O44   O     O_R   0.000050 0.909850 0.962440 -0.589552
O45   O     O_R   0.909850 0.000050 0.037560 -0.593436
O46   O     O_R   0.999950 0.909850 0.037560 -0.589549
O47   O     O_R   0.090150 0.999950 0.037560 -0.593440
O48   O     O_R   0.000050 0.090150 0.037560 -0.589548
C201  C     C_R   0.328073 0.984586 0.798485 0.122965
C202  C     C_R   0.305205 0.036491 0.820649 -0.176434
C203  C     C_R   0.248733 0.033788 0.842612 -0.136941
C204  C     C_R   0.214400 0.979614 0.842078 -0.078087
C205  C     C_R   0.236699 0.927914 0.819858 -0.133660
C206  C     C_R   0.293574 0.930130 0.798428 -0.132971
H81   H     H_    0.331148 0.078903 0.820843 0.130584
H82   H     H_    0.231446 0.073764 0.859868 0.125812
H83   H     H_    0.170630 0.977615 0.859014 0.134489
H84   H     H_    0.210126 0.885938 0.819573 0.122492
H85   H     H_    0.310571 0.889676 0.781573 0.122243
C207  C     C_R   0.828954 0.520965 0.796658 0.123265
C208  C     C_R   0.814982 0.577351 0.816820 -0.180280
C209  C     C_R   0.759381 0.584976 0.839293 -0.138560
C210  C     C_R   0.717445 0.536498 0.841647 -0.104856
C211  C     C_R   0.731095 0.480287 0.821586 -0.136225
C212  C     C_R   0.786720 0.472424 0.799167 -0.121741
H86   H     H_    0.847122 0.615213 0.815041 0.123021
H87   H     H_    0.748778 0.628473 0.854832 0.123169
H88   H     H_    0.674376 0.542487 0.859008 0.119859
H89   H     H_    0.698569 0.442813 0.823413 0.123444
H90   H     H_    0.796895 0.428731 0.783709 0.121760
C213  C     C_R   0.671927 0.015438 0.798482 0.122974
C214  C     C_R   0.694810 0.963535 0.820643 -0.176433
C215  C     C_R   0.751282 0.966250 0.842604 -0.136934
C216  C     C_R   0.785600 0.020434 0.842073 -0.078082
C217  C     C_R   0.763286 0.072132 0.819857 -0.133670
C218  C     C_R   0.706411 0.069903 0.798427 -0.132974
H91   H     H_    0.668879 0.921115 0.820834 0.130577
H92   H     H_    0.768582 0.926276 0.859858 0.125812
H93   H     H_    0.829370 0.022442 0.859009 0.134488
H94   H     H_    0.789847 0.114115 0.819573 0.122491
H95   H     H_    0.689402 0.110355 0.781575 0.122239
C219  C     C_R   0.171053 0.479078 0.796658 0.123271
C220  C     C_R   0.185047 0.422708 0.816836 -0.180283
C221  C     C_R   0.240650 0.415117 0.839314 -0.138541
C222  C     C_R   0.282566 0.463614 0.841655 -0.104863
C223  C     C_R   0.268895 0.519809 0.821576 -0.136224
C224  C     C_R   0.213267 0.527637 0.799152 -0.121730
H96   H     H_    0.152922 0.384831 0.815068 0.123011
H97   H     H_    0.251270 0.371634 0.854868 0.123175
H98   H     H_    0.325636 0.457652 0.859021 0.119857
H99   H     H_    0.301405 0.557297 0.823393 0.123442
H100  H     H_    0.203075 0.571318 0.783682 0.121756
C225  C     C_R   0.328055 0.015124 0.201504 0.122975
C226  C     C_R   0.305297 0.963207 0.179297 -0.176439
C227  C     C_R   0.248854 0.965846 0.157296 -0.137040
C228  C     C_R   0.214436 0.019963 0.157836 -0.078146
C229  C     C_R   0.236618 0.071669 0.180105 -0.133574
C230  C     C_R   0.293465 0.069519 0.201573 -0.132964
H101  H     H_    0.331313 0.920843 0.179090 0.130606
H102  H     H_    0.231661 0.925863 0.140002 0.125805
H103  H     H_    0.170690 0.021912 0.140867 0.134551
H104  H     H_    0.209979 0.113601 0.180399 0.122528
H105  H     H_    0.310376 0.109982 0.218460 0.122242
C231  C     C_R   0.828975 0.478831 0.203339 0.123248
C232  C     C_R   0.815072 0.422430 0.183171 -0.180355
C233  C     C_R   0.759481 0.414739 0.160694 -0.138573
C234  C     C_R   0.717485 0.463166 0.158343 -0.104849
C235  C     C_R   0.731065 0.519390 0.178411 -0.136216
C236  C     C_R   0.786681 0.527320 0.200834 -0.121694
H106  H     H_    0.847257 0.384606 0.184947 0.123040
H107  H     H_    0.748930 0.371233 0.145149 0.123145
H108  H     H_    0.674424 0.457125 0.140978 0.119856
H109  H     H_    0.698492 0.556823 0.176586 0.123447
H110  H     H_    0.796800 0.571023 0.216296 0.121774
C237  C     C_R   0.671944 0.984843 0.201505 0.122963
C238  C     C_R   0.694720 0.036761 0.179308 -0.176459
C239  C     C_R   0.751164 0.034114 0.157309 -0.137044
C240  C     C_R   0.785564 0.979984 0.157839 -0.078144
C241  C     C_R   0.763362 0.928276 0.180097 -0.133576
C242  C     C_R   0.706515 0.930435 0.201564 -0.132960
H111  H     H_    0.668718 0.079135 0.179109 0.130606
H112  H     H_    0.768372 0.074098 0.140022 0.125808
H113  H     H_    0.829310 0.978028 0.140871 0.134550
H114  H     H_    0.789987 0.886334 0.180384 0.122529
H115  H     H_    0.689589 0.889972 0.218443 0.122254
C243  C     C_R   0.171025 0.521169 0.203337 0.123255
C244  C     C_R   0.184936 0.577567 0.183166 -0.180347
C245  C     C_R   0.240528 0.585248 0.160686 -0.138569
C246  C     C_R   0.282517 0.536815 0.158336 -0.104850
C247  C     C_R   0.268929 0.480593 0.178408 -0.136210
C248  C     C_R   0.213313 0.472673 0.200834 -0.121695
H116  H     H_    0.152756 0.615397 0.184941 0.123033
H117  H     H_    0.251085 0.628753 0.145138 0.123145
H118  H     H_    0.325578 0.542848 0.140968 0.119853
H119  H     H_    0.301497 0.443154 0.176583 0.123444
H120  H     H_    0.203188 0.428972 0.216299 0.121770
C249  C     C_R   0.828067 0.484659 0.298488 0.122967
C250  C     C_R   0.805223 0.536568 0.320661 -0.176435
C251  C     C_R   0.748760 0.533877 0.342635 -0.136967
C252  C     C_R   0.714410 0.479714 0.342104 -0.078106
C253  C     C_R   0.736684 0.428012 0.319874 -0.133632
C254  C     C_R   0.793551 0.430215 0.298431 -0.132970
H121  H     H_    0.831181 0.578971 0.320855 0.130588
H122  H     H_    0.731493 0.573855 0.359900 0.125810
H123  H     H_    0.670648 0.477725 0.359050 0.134508
H124  H     H_    0.710098 0.386044 0.319589 0.122504
H125  H     H_    0.810529 0.389758 0.281570 0.122244
C255  C     C_R   0.328947 0.020901 0.296657 0.123239
C256  C     C_R   0.314954 0.077266 0.316843 -0.180343
C257  C     C_R   0.259352 0.084853 0.339319 -0.138544
C258  C     C_R   0.217432 0.036358 0.341651 -0.104870
C259  C     C_R   0.231100 0.980169 0.321565 -0.136231
C260  C     C_R   0.286729 0.972344 0.299144 -0.121701
H126  H     H_    0.347083 0.115140 0.315083 0.123026
H127  H     H_    0.248734 0.128333 0.354879 0.123182
H128  H     H_    0.174361 0.042318 0.359015 0.119860
H129  H     H_    0.198587 0.942682 0.323375 0.123446
H130  H     H_    0.296919 0.928668 0.283667 0.121772
C261  C     C_R   0.171933 0.515351 0.298486 0.122973
C262  C     C_R   0.194780 0.463442 0.320658 -0.176432
C263  C     C_R   0.251245 0.466134 0.342630 -0.136963
C264  C     C_R   0.285592 0.520299 0.342099 -0.078101
C265  C     C_R   0.263315 0.572001 0.319869 -0.133634
C266  C     C_R   0.206447 0.569797 0.298428 -0.132975
H131  H     H_    0.168824 0.421038 0.320852 0.130584
H132  H     H_    0.268515 0.426155 0.359894 0.125809
H133  H     H_    0.329355 0.522289 0.359043 0.134504
H134  H     H_    0.289899 0.613970 0.319584 0.122500
H135  H     H_    0.189466 0.610254 0.281568 0.122238
C267  C     C_R   0.671046 0.979023 0.296658 0.123220
C268  C     C_R   0.684990 0.922649 0.316850 -0.180349
C269  C     C_R   0.740588 0.915015 0.339324 -0.138559
C270  C     C_R   0.782552 0.963471 0.341648 -0.104866
C271  C     C_R   0.768934 0.019669 0.321555 -0.136226
C272  C     C_R   0.713309 0.027542 0.299136 -0.121691
H136  H     H_    0.652826 0.884803 0.315095 0.123046
H137  H     H_    0.751167 0.871528 0.354889 0.123170
H138  H     H_    0.825620 0.957474 0.359009 0.119861
H139  H     H_    0.801483 0.057126 0.323358 0.123447
H140  H     H_    0.703158 0.071225 0.283654 0.121779
C273  C     C_R   0.828056 0.515175 0.701509 0.123008
C274  C     C_R   0.805238 0.463254 0.679341 -0.176403
C275  C     C_R   0.748786 0.465923 0.657352 -0.137031
C276  C     C_R   0.714426 0.520077 0.657863 -0.078129
C277  C     C_R   0.736672 0.571788 0.680092 -0.133569
C278  C     C_R   0.793525 0.569606 0.701550 -0.132994
H141  H     H_    0.831206 0.420861 0.679159 0.130575
H142  H     H_    0.731542 0.425936 0.640091 0.125800
H143  H     H_    0.670674 0.522051 0.640903 0.134535
H144  H     H_    0.710078 0.613749 0.680363 0.122520
H145  H     H_    0.810485 0.610071 0.718407 0.122223
C279  C     C_R   0.328988 0.978737 0.703337 0.123260
C280  C     C_R   0.315110 0.922323 0.683180 -0.180368
C281  C     C_R   0.259525 0.914601 0.660700 -0.138584
C282  C     C_R   0.217510 0.963011 0.658334 -0.104840
C283  C     C_R   0.231065 0.019249 0.678392 -0.136215
C284  C     C_R   0.286675 0.027210 0.700819 -0.121693
H146  H     H_    0.347310 0.884511 0.684967 0.123040
H147  H     H_    0.248993 0.871084 0.645162 0.123134
H148  H     H_    0.174455 0.956947 0.640966 0.119855
H149  H     H_    0.198478 0.056670 0.676554 0.123443
H150  H     H_    0.296775 0.070923 0.716273 0.121773
C285  C     C_R   0.171944 0.484828 0.701508 0.123015
C286  C     C_R   0.194756 0.536744 0.679328 -0.176413
C287  C     C_R   0.251206 0.534073 0.657336 -0.137022
C288  C     C_R   0.285570 0.479922 0.657855 -0.078123
C289  C     C_R   0.263331 0.428216 0.680096 -0.133580
C290  C     C_R   0.206480 0.430400 0.701557 -0.132993
H151  H     H_    0.168783 0.579136 0.679139 0.130574
H152  H     H_    0.268445 0.574056 0.640065 0.125799
H153  H     H_    0.329320 0.477947 0.640893 0.134540
H154  H     H_    0.289927 0.386257 0.680373 0.122521
H155  H     H_    0.189525 0.389939 0.718423 0.122219
C291  C     C_R   0.671011 0.021276 0.703335 0.123267
C292  C     C_R   0.684885 0.077690 0.683174 -0.180357
C293  C     C_R   0.740469 0.085413 0.660691 -0.138582
C294  C     C_R   0.782486 0.037006 0.658327 -0.104838
C295  C     C_R   0.768935 0.980768 0.678389 -0.136214
C296  C     C_R   0.713327 0.972806 0.700817 -0.121700
H156  H     H_    0.652683 0.115500 0.684959 0.123036
H157  H     H_    0.750998 0.128930 0.645151 0.123133
H158  H     H_    0.825540 0.043072 0.640957 0.119855
H159  H     H_    0.801525 0.943350 0.676552 0.123443
H160  H     H_    0.703230 0.929092 0.716274 0.121770

loop_
_geom_bond_atom_site_label_1
_geom_bond_atom_site_label_2
_ccdc_geom_bond_type
C8    O12   A    
C266  H135  S    
C153  C166  A    
C130  C146  A    
Cu1   O17   S    
C226  H101  S    
C163  C261  S    
C107  C129  A    
Cu3   O19   S    
C42   C58   A    
C105  C131  A    
C179  C195  A    
C6    O14   A    
C106  C132  A    
C177  C193  A    
C46   C62   A    
C245  C246  A    
C14   C30   A    
C112  C124  A    
C202  H81   S    
C58   C82   A    
C181  H45   S    
C289  C290  A    
C22   C38   A    
C30   H70   S    
C64   C84   A    
C75   C90   S    
C92   O36   A    
C23   H63   S    
C294  H158  S    
C285  C286  A    
C269  C270  A    
C56   C72   A    
C98   O18   A    
C217  H94   S    
C159  C237  S    
C129  C145  A    
C180  C196  A    
Cu5   O25   S    
C143  C151  A    
C53   C69   A    
C229  H104  S    
Cu7   O27   S    
Cu8   O28   S    
C59   C171  A    
C22   C198  A    
C293  H157  S    
C28   H68   S    
C43   C75   A    
C135  C159  A    
C39   H79   S    
C268  C269  A    
C160  C163  A    
C71   C183  A    
C147  C150  A    
C72   C184  A    
C17   H57   S    
C25   C41   A    
Cu9   O34   S    
C202  C203  A    
C19   H59   S    
C157  C162  A    
C291  C292  A    
C28   C44   A    
C10   H50   S    
C47   C63   A    
C171  H35   S    
C190  H18   S    
C31   H71   S    
C284  H150  S    
C235  H109  S    
C273  C278  A    
C210  C211  A    
C54   C70   A    
C11   C27   A    
C207  C208  A    
C288  C289  A    
C61   C173  A    
C281  H147  S    
C138  C162  A    
C113  H9    S    
C187  H21   S    
C232  H106  S    
Cu6   O16   S    
C98   C127  S    
C185  H23   S    
C33   H73   S    
Cu3   O7    S    
C229  C230  A    
C119  C141  A    
Cu7   O15   S    
C96   O46   A    
C36   H76   S    
C102  C123  S    
C26   H66   S    
Cu4   O22   S    
C261  C266  A    
C115  H11   S    
C246  H118  S    
C15   C191  A    
C204  H83   S    
Cu11  O43   S    
C63   C175  A    
C91   O39   A    
C112  C134  A    
C176  H40   S    
C220  C221  A    
Cu10  O39   S    
C15   H55   S    
C270  H138  S    
C222  H98   S    
C19   C35   A    
C215  C216  A    
C137  C161  A    
C197  H27   S    
C274  C275  A    
C283  C284  A    
C276  H143  S    
C219  C224  A    
C281  C282  A    
C243  C248  A    
C107  H3    S    
C24   C200  A    
Cu1   O1    S    
C271  C272  A    
C264  H133  S    
C255  C260  A    
C170  H34   S    
C182  H46   S    
Cu3   O3    S    
C4    O8    A    
C239  C240  A    
Cu4   O20   S    
C33   C49   A    
C216  H93   S    
C55   C71   A    
C69   C181  A    
C7    O11   A    
C96   O44   A    
C162  C255  S    
C246  C247  A    
C109  C135  A    
C89   O33   A    
C213  C218  A    
C48   C76   A    
C110  C136  A    
C244  C245  A    
C181  C197  A    
Cu9   O36   S    
C224  H100  S    
C256  H126  S    
C220  H96   S    
C118  H14   S    
C211  H89   S    
C278  H145  S    
C5    C85   S    
C114  C126  A    
C253  H124  S    
C223  H99   S    
Cu7   O31   S    
C214  C215  A    
C12   H52   S    
C45   C61   A    
C280  H146  S    
C44   C76   A    
C104  O30   A    
C219  C220  A    
C3    O5    A    
Cu5   O9    S    
C267  C272  A    
C115  C137  A    
C228  C229  A    
C184  C200  A    
Cu1   O21   S    
C113  C139  A    
C154  C165  A    
C285  C290  A    
C133  C147  A    
C114  C140  A    
C64   C176  A    
C198  H26   S    
C108  C130  A    
C36   C52   A    
C43   C59   A    
C179  H43   S    
C247  H119  S    
Cu11  O41   S    
Cu1   Cu3   S    
C245  H117  S    
C111  H7    S    
C97   C128  S    
C279  C280  A    
C99   C126  S    
Cu5   Cu7   S    
C106  H2    S    
C39   C55   A    
C101  C124  S    
C79   C94   S    
Cu12  O45   S    
C109  C123  A    
C195  H29   S    
C173  H37   S    
C259  C260  A    
C8    C88   S    
C214  H91   S    
C280  C281  A    
C90   O34   A    
C142  C166  A    
C18   C34   A    
C175  H39   S    
C251  C252  A    
Cu6   O26   S    
C191  H17   S    
C106  C122  A    
Cu9   Cu10  S    
C112  H8    S    
C35   C51   A    
C130  C154  A    
C51   C67   A    
C80   C95   S    
Cu4   O6    S    
C143  C167  A    
C240  C241  A    
C136  C148  A    
C21   C197  A    
C153  C201  S    
C134  C158  A    
C135  C147  A    
C154  C207  S    
C247  C248  A    
C18   H58   S    
C168  C291  S    
C26   C42   A    
C24   H64   S    
C291  C296  A    
C238  H111  S    
C241  H114  S    
C30   C46   A    
C73   C92   S    
C235  C236  A    
C21   H61   S    
C259  H129  S    
C66   C86   A    
C100  O22   A    
C94   O48   A    
C178  H42   S    
C16   C32   A    
C5    O9    A    
C77   C96   S    
C141  C165  A    
C288  H153  S    
C56   C80   A    
C1    O1    A    
C99   O23   A    
C223  C224  A    
C3    O3    A    
C144  C152  A    
C52   C80   A    
C232  C233  A    
C129  C153  A    
C292  H156  S    
C268  H136  S    
C65   C177  A    
C34   H74   S    
C132  C156  A    
C49   C77   A    
Cu4   O4    S    
Cu2   O24   S    
C93   O45   A    
C51   C79   A    
C145  C152  A    
C109  H5    S    
C76   C91   S    
C41   C73   A    
C146  C151  A    
C14   C190  A    
C22   H62   S    
C204  C205  A    
C7    O13   A    
C37   H77   S    
C209  C210  A    
C282  C283  A    
C159  C164  A    
C164  C267  S    
C54   C78   A    
C257  C258  A    
C250  H121  S    
C157  C225  S    
C293  C294  A    
C186  H22   S    
C119  C127  A    
C193  H31   S    
C208  C209  A    
Cu12  O47   S    
C9    C25   A    
C274  H141  S    
C19   C195  A    
C178  C194  A    
C184  H48   S    
Cu2   Cu4   S    
C12   C28   A    
C13   C29   A    
C59   C83   A    
C90   O40   A    
Cu9   O33   S    
C294  C295  A    
Cu6   Cu8   S    
C48   C64   A    
C18   C194  A    
Cu1   O5    S    
C271  H139  S    
C50   C78   A    
Cu2   O2    S    
C161  C249  S    
C255  C256  A    
C53   C79   A    
C142  C152  A    
C239  H112  S    
C216  C217  A    
C6    O10   A    
C158  C161  A    
C110  C124  A    
C275  H142  S    
C260  H130  S    
C70   C182  A    
C7    C87   S    
C40   C56   A    
Cu10  O37   S    
C89   O37   A    
C213  C214  A    
C282  H148  S    
C194  H30   S    
C120  H16   S    
C236  H110  S    
C69   C87   A    
C272  H140  S    
C62   C82   A    
C91   O35   A    
C265  C266  A    
C31   C47   A    
C32   C48   A    
C17   C33   A    
C199  H25   S    
C16   H56   S    
C276  C277  A    
C100  O24   A    
C101  O25   A    
C234  H108  S    
C42   C74   A    
C290  H155  S    
C111  C123  A    
C206  H85   S    
C231  C232  A    
C47   C73   A    
C61   C83   A    
C230  H105  S    
Cu6   O10   S    
C221  H97   S    
C262  C263  A    
C228  H103  S    
C249  C250  A    
C139  C149  A    
C287  H152  S    
Cu8   O14   S    
C116  H12   S    
C93   O41   A    
C200  H28   S    
C117  C143  A    
C277  C278  A    
C13   H53   S    
Cu11  Cu12  S    
C38   C54   A    
C99   O21   A    
C155  C168  A    
C95   O47   A    
C170  C186  A    
C1    C81   S    
C114  H10   S    
C15   C31   A    
C117  C127  A    
C258  H128  S    
C108  H4    S    
C103  O31   A    
C174  C190  A    
C166  C279  S    
C63   C81   A    
C183  H47   S    
C286  H151  S    
C2    C82   S    
C140  C164  A    
C107  C121  A    
C196  H32   S    
Cu8   O30   S    
C156  C219  S    
C225  C226  A    
C192  H20   S    
Cu5   O29   S    
C189  H19   S    
C267  C268  A    
C233  H107  S    
C1    O7    A    
C94   O42   A    
C231  C236  A    
Cu9   O35   S    
C201  C206  A    
C120  C128  A    
C251  H122  S    
C155  C213  S    
C8    O16   A    
Cu2   O8    S    
C165  C273  S    
C132  C146  A    
C131  C155  A    
C226  C227  A    
C41   C57   A    
C240  H113  S    
C67   C179  A    
C175  C191  A    
C295  H159  S    
C44   C60   A    
C139  C163  A    
C40   H80   S    
C177  H41   S    
C104  O32   A    
C5    O15   A    
C169  C185  A    
C20   C36   A    
C27   C43   A    
C21   C37   A    
C238  C239  A    
C29   H69   S    
C29   C45   A    
C241  C242  A    
C169  H33   S    
C262  H131  S    
C32   H72   S    
C103  C122  S    
C234  C235  A    
C101  O27   A    
C62   C174  A    
C102  O28   A    
C203  C204  A    
C97   O17   A    
C269  H137  S    
C2    O2    A    
C17   C193  A    
C217  C218  A    
C182  C198  A    
C57   C169  A    
C38   H78   S    
Cu6   O32   S    
C180  H44   S    
C119  H15   S    
C292  C293  A    
C289  H154  S    
C201  C202  A    
C138  C150  A    
C66   C178  A    
C117  H13   S    
C49   C65   A    
C144  C168  A    
C11   C187  A    
C74   C89   S    
C58   C170  A    
C9    C185  A    
C95   O43   A    
C218  H95   S    
C55   C77   A    
Cu12  O46   S    
C176  C192  A    
C113  C125  A    
C172  H36   S    
C78   C93   S    
C209  H87   S    
C12   C188  A    
C23   C199  A    
C205  H84   S    
C13   C189  A    
C287  C288  A    
C257  H127  S    
C250  C251  A    
C211  C212  A    
C16   C192  A    
C10   C186  A    
C71   C85   A    
C4    C84   S    
C237  C238  A    
C131  C145  A    
C11   H51   S    
C20   H60   S    
C133  C157  A    
C254  H125  S    
C52   C68   A    
C10   C26   A    
C210  H88   S    
Cu11  O44   S    
C116  C126  A    
C203  H82   S    
Cu10  O40   S    
C137  C149  A    
C118  C128  A    
C2    O6    A    
C72   C88   A    
C116  C138  A    
C252  H123  S    
C34   C50   A    
C105  H1    S    
C100  C125  S    
C60   C172  A    
Cu7   O11   S    
C120  C142  A    
C148  C149  A    
Cu8   O12   S    
C25   H65   S    
C227  H102  S    
C275  C276  A    
C174  H38   S    
C27   H67   S    
C104  C121  S    
C156  C167  A    
C273  C274  A    
C277  H144  S    
C68   C180  A    
C183  C199  A    
C261  C262  A    
C9    H49   S    
C136  C160  A    
C295  C296  A    
C158  C231  S    
C270  C271  A    
C279  C284  A    
C105  C121  A    
C263  H132  S    
C237  C242  A    
C50   C66   A    
C222  C223  A    
C264  C265  A    
C215  H92   S    
Cu2   O18   S    
C102  O26   A    
C242  H115  S    
C97   O19   A    
Cu11  O42   S    
C98   O20   A    
C283  H149  S    
C68   C88   A    
C57   C81   A    
C118  C144  A    
C70   C86   A    
C140  C150  A    
C6    C86   S    
C46   C74   A    
C221  C222  A    
C141  C151  A    
C243  C244  A    
C212  H90   S    
C252  C253  A    
C103  O29   A    
Cu3   O23   S    
C4    O4    A    
C108  C122  A    
C188  H24   S    
C296  H160  S    
Cu12  O48   S    
C65   C85   A    
C248  H120  S    
C111  C133  A    
C134  C148  A    
C67   C87   A    
C115  C125  A    
C171  C187  A    
C45   C75   A    
C167  C285  S    
C244  H116  S    
C208  H86   S    
C37   C53   A    
C258  C259  A    
C3    C83   S    
C60   C84   A    
C256  C257  A    
C265  H134  S    
C249  C254  A    
C172  C188  A    
C23   C39   A    
C173  C189  A    
C286  C287  A    
C24   C40   A    
C35   H75   S    
C263  C264  A    
C110  H6    S    
C225  C230  A    
C14   H54   S    
C92   O38   A    
C253  C254  A    
Cu10  O38   S    
C233  C234  A    
C205  C206  A    
C207  C212  A    
C20   C196  A    
Cu5   O13   S    
C227  C228  A    
C160  C243  S    
