data_mof_unit_35478.cif
_audit_creation_date              2012-10-26T21:10:42-0400
_audit_creation_method            fapswitch 2.2
_symmetry_space_group_name_H-M    P1
_symmetry_Int_Tables_number       1
_space_group_crystal_system       triclinic
_cell_length_a                    10.950101
_cell_length_b                    14.79297
_cell_length_c                    15.004277
_cell_angle_alpha                 64.184712
_cell_angle_beta                  104.979257
_cell_angle_gamma                 102.563391
_cell_volume                      2098.1080947

loop_
_atom_site_label
_atom_site_type_symbol
_atom_type_description
_atom_site_fract_x
_atom_site_fract_y
_atom_site_fract_z
_atom_type_partial_charge
C1    C     C_R   0.474484 0.120012 0.312476 0.530841
C2    C     C_R   0.706422 0.767564 0.956952 0.014864
C3    C     C_R   0.357260 0.158896 0.135720 -0.122809
C4    C     C_R   0.653539 0.838769 0.862657 -0.119414
C5    C     C_R   0.517188 0.283258 0.170290 -0.146329
C6    C     C_R   0.513620 0.707081 0.822949 -0.154469
C7    C     C_R   0.482711 0.355741 0.071238 0.006045
C8    C     C_R   0.558001 0.633201 0.918400 -0.003420
C9    C     C_R   0.393594 0.323979 0.998525 0.044234
C10   C     C_R   0.646052 0.665085 0.991077 0.044986
C11   C     C_R   0.534628 0.459233 0.044481 0.005842
C12   C     C_R   0.525998 0.879559 0.687621 0.533343
C13   C     C_R   0.511614 0.528786 0.943774 0.001545
C14   C     C_R   0.439149 0.492943 0.871079 -0.119669
C15   C     C_R   0.602878 0.495412 0.117753 -0.123032
C16   C     C_R   0.263063 0.998697 0.502829 0.529238
C17   C     C_R   0.736077 0.003311 0.493346 0.534435
C18   C     C_R   0.365529 0.398074 0.897194 0.010820
C19   C     C_R   0.663805 0.594500 0.094461 0.007834
C20   C     C_R   0.688970 0.263203 0.692855 0.000656
C21   C     C_R   0.259196 0.694753 0.361618 -0.011581
C22   C     C_R   0.685934 0.205686 0.637327 0.158308
C23   C     C_R   0.868534 0.006629 0.484367 -0.016373
C24   C     C_R   0.306957 0.788045 0.368541 0.164493
C25   C     C_R   0.509940 0.280844 0.520050 0.024447
C26   C     C_R   0.475301 0.710358 0.498787 0.024376
C27   C     C_R   0.539165 0.363588 0.551202 -0.026634
C28   C     C_R   0.440573 0.620443 0.478747 -0.028789
C29   C     C_R   0.630499 0.354324 0.641489 0.026598
C30   C     C_R   0.342170 0.622629 0.396788 0.038101
C31   C     C_R   0.477649 0.453342 0.496272 -0.005488
C32   C     C_R   0.501060 0.530204 0.534016 -0.007922
C33   C     C_R   0.584388 0.515890 0.625164 -0.128284
C34   C     C_R   0.128756 0.999289 0.503132 -0.016972
C35   C     C_R   0.397068 0.470482 0.402114 -0.139071
C36   C     C_R   0.660034 0.436635 0.673819 0.000713
C37   C     C_R   0.330985 0.554789 0.350939 -0.007249
C38   C     C_R   0.333320 0.100892 0.739646 0.047076
C39   C     C_R   0.653227 0.841021 0.289228 0.046657
C40   C     C_R   0.245553 0.059644 0.677332 -0.029565
C41   C     C_R   0.736273 0.904565 0.331462 -0.037188
C42   C     C_R   0.176575 0.121626 0.586034 0.039992
C43   C     C_R   0.819008 0.863814 0.423822 0.042577
C44   C     C_R   0.187475 0.225806 0.560065 -0.125932
C45   C     C_R   0.907818 0.932013 0.466125 -0.023971
C46   C     C_R   0.822376 0.759036 0.471776 -0.123865
C47   C     C_R   0.270229 0.267318 0.624313 -0.149321
C48   C     C_R   0.739885 0.695519 0.430117 -0.144465
C49   C     C_R   0.345340 0.205784 0.712018 -0.107636
C50   C     C_R   0.655006 0.736104 0.339402 -0.092762
C51   C     C_R   0.960892 0.080292 0.504853 -0.164758
C52   C     C_R   0.037181 0.927061 0.480215 -0.162613
C53   C     C_3   0.270194 0.168938 0.960148 -0.281280
C54   C     C_3   0.264453 0.053646 0.002895 -0.471422
C55   C     C_3   0.837281 0.796989 0.011114 -0.286224
C56   C     C_R   0.089745 0.072701 0.522478 -0.023067
C57   C     C_3   0.916874 0.889532 0.946884 -0.467753
C58   C     C_3   0.780168 0.449404 0.749681 -0.259691
C59   C     C_3   0.812285 0.551306 0.760868 -0.312045
C60   C     C_3   0.940194 0.556817 0.830592 -0.456823
C61   C     C_3   0.261134 0.575906 0.243007 -0.268328
C62   C     C_3   0.352547 0.591869 0.173478 -0.293737
C63   C     C_3   0.284317 0.623162 0.063831 -0.450264
C64   C     C_3   0.254349 0.877512 0.276903 -0.215526
C65   C     C_3   0.142038 0.915153 0.289736 -0.282247
C66   C     C_3   0.040975 0.952865 0.194376 -0.486402
C67   C     C_R   0.449729 0.187964 0.204355 -0.025993
C68   C     C_3   0.816871 0.195730 0.629074 -0.208858
C69   C     C_3   0.868683 0.095380 0.705064 -0.281639
C70   C     C_3   0.001759 0.112601 0.764150 -0.476846
C71   C     C_3   0.762811 0.226359 0.801448 -0.284407
C72   C     C_3   0.685081 0.209689 0.879975 -0.452286
C73   C     C_3   0.116325 0.661643 0.348270 -0.292865
C74   C     C_3   0.072036 0.629972 0.447489 -0.436632
C75   C     C_3   0.419922 0.036204 0.831423 -0.279950
C76   C     C_3   0.369877 0.923328 0.876874 -0.456953
C77   C     C_3   0.563108 0.886114 0.191523 -0.287151
C78   C     C_R   0.560234 0.808963 0.794507 -0.033844
C79   C     C_3   0.634679 0.938667 0.104044 -0.458184
C80   C     C_3   0.249467 0.383885 0.819359 -0.282367
C81   C     C_3   0.207428 0.480279 0.729400 -0.461307
C82   C     C_3   0.734311 0.625205 0.181591 -0.283312
C83   C     C_3   0.725166 0.546975 0.288863 -0.460550
C84   C     C_R   0.338542 0.219640 0.031941 0.012802
Cu1   Cu    Cu3+1 0.466270 0.918260 0.475690 0.922027
Cu2   Cu    Cu3+1 0.533730 0.081740 0.524310 0.927874
H1    H     H_    0.413186 0.240389 0.757843 0.102828
H2    H     H_    0.735692 0.985834 0.292987 0.100511
H3    H     H_    0.132370 0.274324 0.490882 0.101889
H4    H     H_    0.889021 0.726874 0.541160 0.096450
H5    H     H_    0.278158 0.347576 0.605178 0.125289
H6    H     H_    0.741450 0.614591 0.468763 0.119258
H7    H     H_    0.934216 0.139783 0.515595 0.120097
H8    H     H_    0.066402 0.865393 0.474191 0.121111
H9    H     H_    0.437882 0.687890 0.769611 0.119549
H10   H     H_    0.596807 0.298647 0.223567 0.112793
H11   H     H_    0.689770 0.917355 0.839496 0.119340
H12   H     H_    0.590434 0.685752 0.308782 0.112735
H13   H     H_    0.300444 0.087591 0.163164 0.123774
H14   H     H_    0.360111 0.029334 0.041419 0.151137
H15   H     H_    0.196984 0.015754 0.055090 0.142363
H16   H     H_    0.228255 0.028361 0.940430 0.146568
H17   H     H_    0.171159 0.187486 0.930453 0.133322
H18   H     H_    0.324708 0.196090 0.899086 0.145492
H19   H     H_    0.917852 0.884630 0.875274 0.157823
H20   H     H_    0.879287 0.959599 0.932142 0.145005
H21   H     H_    0.016589 0.892922 0.988332 0.128837
H22   H     H_    0.828412 0.811310 0.075473 0.129643
H23   H     H_    0.435466 0.540060 0.792302 0.112461
H24   H     H_    0.894940 0.733763 0.037865 0.143108
H25   H     H_    0.938924 0.494798 0.906609 0.152123
H26   H     H_    0.017742 0.550803 0.799174 0.149253
H27   H     H_    0.959558 0.630347 0.838014 0.145433
H28   H     H_    0.816354 0.614749 0.686297 0.160831
H29   H     H_    0.738389 0.560391 0.794184 0.166511
H30   H     H_    0.771973 0.392882 0.826076 0.161990
H31   H     H_    0.862646 0.439841 0.725606 0.139774
H32   H     H_    0.205736 0.563818 0.056075 0.152719
H33   H     H_    0.245087 0.695763 0.036785 0.141342
H34   H     H_    0.603443 0.446819 0.195179 0.115488
H35   H     H_    0.352679 0.633557 0.015959 0.161994
H36   H     H_    0.431512 0.651948 0.178375 0.158551
H37   H     H_    0.394013 0.521083 0.196624 0.164600
H38   H     H_    0.186694 0.511449 0.242956 0.134291
H39   H     H_    0.213297 0.645270 0.209955 0.140600
H40   H     H_    0.073177 0.030059 0.142473 0.145332
H41   H     H_    0.016486 0.900419 0.155779 0.148130
H42   H     H_    0.952989 0.957530 0.215163 0.151226
H43   H     H_    0.092924 0.851739 0.346275 0.167641
H44   H     H_    0.177175 0.978501 0.313687 0.192985
H45   H     H_    0.554783 0.716354 0.556612 0.128926
H46   H     H_    0.331502 0.936225 0.250852 0.152761
H47   H     H_    0.221626 0.854932 0.211953 0.095092
H48   H     H_    0.062540 0.172758 0.713988 0.175105
H49   H     H_    0.996251 0.135254 0.824146 0.135763
H50   H     H_    0.048057 0.042370 0.799116 0.145923
H51   H     H_    0.803679 0.050322 0.757901 0.147395
H52   H     H_    0.873978 0.047371 0.667341 0.179806
H53   H     H_    0.815974 0.210794 0.550340 0.148797
H54   H     H_    0.884547 0.260589 0.638350 0.104446
H55   H     H_    0.611877 0.262114 0.850168 0.157610
H56   H     H_    0.428597 0.275885 0.463236 0.130487
H57   H     H_    0.638497 0.131225 0.907754 0.130594
H58   H     H_    0.749876 0.219950 0.946182 0.133437
H59   H     H_    0.792736 0.151676 0.824817 0.143586
H60   H     H_    0.853879 0.274839 0.808600 0.121650
H61   H     H_    0.115048 0.561436 0.505190 0.147554
H62   H     H_    0.099824 0.690914 0.475721 0.150744
H63   H     H_    0.967334 0.611830 0.437103 0.131854
H64   H     H_    0.062467 0.722222 0.287017 0.140972
H65   H     H_    0.090313 0.595149 0.328331 0.138899
H66   H     H_    0.270960 0.912375 0.888930 0.134028
H67   H     H_    0.593033 0.569126 0.657832 0.095601
H68   H     H_    0.372343 0.886519 0.827032 0.154129
H69   H     H_    0.431040 0.884488 0.950438 0.145632
H70   H     H_    0.513468 0.044249 0.811099 0.168989
H71   H     H_    0.434324 0.065489 0.890143 0.129389
H72   H     H_    0.715011 0.994189 0.118287 0.146112
H73   H     H_    0.671237 0.881965 0.091208 0.150398
H74   H     H_    0.568706 0.979919 0.035337 0.132707
H75   H     H_    0.488567 0.827205 0.177060 0.130196
H76   H     H_    0.514513 0.942158 0.195814 0.147223
H77   H     H_    0.202847 0.539429 0.754733 0.149779
H78   H     H_    0.386351 0.420642 0.364786 0.095396
H79   H     H_    0.273562 0.509736 0.675164 0.147527
H80   H     H_    0.111125 0.462410 0.689228 0.126049
H81   H     H_    0.266934 0.334969 0.786672 0.137266
H82   H     H_    0.166516 0.349867 0.857794 0.141296
H83   H     H_    0.624984 0.527034 0.300340 0.147225
H84   H     H_    0.767836 0.478239 0.306078 0.143355
H85   H     H_    0.780695 0.579333 0.342887 0.139540
H86   H     H_    0.837534 0.641449 0.180833 0.135353
H87   H     H_    0.696693 0.693348 0.172108 0.145407
H88   H     H_    0.232832 0.979150 0.696893 0.100649
N1    N     N_R   0.584450 0.204570 0.560790 -0.243080
N2    N     N_R   0.415550 0.795430 0.439210 -0.234583
O1    O     O_R   0.455540 0.022090 0.338120 -0.521443
O2    O     O_R   0.544460 0.977910 0.661880 -0.498739
O3    O     O_R   0.512510 0.160150 0.379180 -0.505114
O4    O     O_R   0.487490 0.839850 0.620820 -0.508284
O5    O     O_R   0.291160 0.930970 0.479480 -0.517128
O6    O     O_R   0.708840 0.069030 0.520520 -0.522995
O7    O     O_R   0.348130 0.069020 0.520540 -0.489040
O8    O     O_R   0.651870 0.930980 0.479460 -0.489625

loop_
_geom_bond_atom_site_label_1
_geom_bond_atom_site_label_2
_ccdc_geom_bond_type
C72   H57   S    
C57   H19   S    
C34   C56   A    
C8    C13   A    
C23   C45   A    
C73   H64   S    
C14   H23   S    
C81   H77   S    
C73   C74   S    
C49   H1    S    
C54   H15   S    
C2    C4    A    
C25   H56   S    
C5    C67   A    
Cu1   N2    S    
C79   H72   S    
C22   N1    A    
C16   O7    A    
C69   H52   S    
C47   C49   A    
C38   C49   A    
C53   C54   S    
C15   H34   S    
C7    C11   A    
C29   C36   A    
C43   C46   A    
C17   C23   S    
C61   H38   S    
C39   C77   S    
C74   H62   S    
C35   C37   A    
C51   C56   A    
C36   C58   S    
C2    C55   S    
C71   H59   S    
C79   H73   S    
C33   H67   S    
C6    C78   A    
C11   C13   A    
C27   C29   A    
C76   H66   S    
C53   H18   S    
C83   H84   S    
C21   C73   S    
Cu2   O2    S    
C33   C36   A    
C66   H41   S    
C72   H58   S    
Cu2   N1    S    
C14   C18   A    
C34   C52   A    
C16   C34   S    
C11   C15   A    
C75   H70   S    
C64   H46   S    
C68   C69   S    
C12   C78   S    
C81   H80   S    
C20   C71   S    
C52   H8    S    
C19   C82   S    
C80   H81   S    
C44   C47   A    
C20   C29   A    
C42   C56   S    
C75   H71   S    
C40   C42   A    
C57   H20   S    
C59   C60   S    
C24   C64   S    
C13   C14   A    
C73   H65   S    
C70   H50   S    
C41   C43   A    
C54   H14   S    
C60   H27   S    
C61   C62   S    
C42   C44   A    
Cu1   O4    S    
C17   O6    A    
C62   H37   S    
C63   H35   S    
C65   H44   S    
C82   H86   S    
C38   C75   S    
C77   C79   S    
C69   H51   S    
C72   H55   S    
C46   C48   A    
C50   H12   S    
C27   C31   A    
C74   H61   S    
C28   C32   A    
C39   C41   A    
C79   H74   S    
C5    C7    A    
C63   H32   S    
C16   O5    A    
C6    C8    A    
C45   C52   A    
C58   C59   S    
Cu1   Cu2   S    
C82   C83   S    
C58   H31   S    
C66   H40   S    
C30   C37   A    
C83   H85   S    
C15   C19   A    
C75   C76   S    
C4    C78   A    
C62   C63   S    
C60   H26   S    
C63   H33   S    
C25   N1    A    
C23   C51   A    
C31   C32   A    
C82   H87   S    
C26   N2    A    
C10   C19   A    
C71   H60   S    
C58   H30   S    
C48   C50   A    
C43   C45   S    
C22   C68   S    
C51   H7    S    
C18   C80   S    
C12   O4    A    
C20   C22   A    
C65   C66   S    
Cu1   O8    S    
C53   C84   S    
C55   H24   S    
C70   H49   S    
C31   C35   A    
C68   H54   S    
C24   N2    A    
C62   H36   S    
C5    H10   S    
C37   C61   S    
C74   H63   S    
C70   H48   S    
C77   H76   S    
C7    C9    A    
C41   H2    S    
C64   H47   S    
Cu1   O5    S    
C57   H21   S    
C47   H5    S    
C54   H16   S    
C8    C10   A    
C3    C67   A    
C80   C81   S    
C65   H43   S    
C46   H4    S    
C25   C27   A    
C21   C30   A    
C76   H69   S    
C26   C28   A    
C35   H78   S    
C55   H22   S    
C64   C65   S    
C55   C57   S    
C28   C30   A    
C60   H25   S    
C32   C33   A    
C38   C40   A    
C1    O3    A    
C17   O8    A    
Cu2   O7    S    
C53   H17   S    
C59   H28   S    
C83   H83   S    
C76   H68   S    
Cu2   O3    S    
C1    C67   S    
C77   H75   S    
C66   H42   S    
C69   C70   S    
Cu1   O1    S    
C26   H45   S    
C9    C84   A    
C3    H13   S    
C9    C18   A    
C71   C72   S    
C39   C50   A    
C40   H88   S    
C59   H29   S    
C6    H9    S    
C48   H6    S    
C21   C24   A    
C3    C84   A    
Cu2   O6    S    
C81   H79   S    
C68   H53   S    
C61   H39   S    
C12   O2    A    
C4    H11   S    
C1    O1    A    
C80   H82   S    
C44   H3    S    
C2    C10   A    
