data_mof_unit_39378.cif
_audit_creation_date              2012-12-11T15:50:37-0500
_audit_creation_method            fapswitch 2.2
_symmetry_space_group_name_H-M    P1
_symmetry_Int_Tables_number       1
_space_group_crystal_system       triclinic
_cell_length_a                    19.208851
_cell_length_b                    11.193698
_cell_length_c                    18.705161
_cell_angle_alpha                 89.539291
_cell_angle_beta                  90.54256
_cell_angle_gamma                 88.563182
_cell_volume                      4020.3650516

loop_
_atom_site_label
_atom_site_type_symbol
_atom_type_description
_atom_site_fract_x
_atom_site_fract_y
_atom_site_fract_z
_atom_type_partial_charge
C1    C     C_R   0.272488 0.039267 0.853713 0.531974
C2    C     C_R   0.755093 0.562933 0.927537 0.030740
C3    C     C_R   0.228139 0.541185 0.355272 0.552093
C4    C     C_R   0.469687 0.822001 0.647123 0.542093
C5    C     C_R   0.530265 0.824219 0.352555 0.544070
C6    C     C_R   0.969688 0.322001 0.647123 0.542093
C7    C     C_R   0.030265 0.324219 0.352555 0.544070
C8    C     C_R   0.259729 0.636381 0.645404 0.537503
C9    C     C_R   0.739841 0.636046 0.355170 0.544422
C10   C     C_R   0.759729 0.136381 0.645404 0.537503
C11   C     C_R   0.239841 0.136046 0.355170 0.544421
C12   C     C_3   0.448889 0.922590 0.036083 -0.139369
C13   C     C_R   0.720186 0.013069 0.062211 -0.008079
C14   C     C_3   0.499727 0.933611 0.972418 -0.125335
C15   C     C_3   0.948889 0.422590 0.036083 -0.139369
C16   C     C_3   0.999727 0.433611 0.972418 -0.125335
C17   C     C_3   0.415345 0.814937 0.998693 -0.135939
C18   C     C_3   0.551766 0.846515 0.010633 -0.133187
C19   C     C_3   0.915345 0.314937 0.998693 -0.135939
C20   C     C_3   0.051766 0.346515 0.010633 -0.133187
C21   C     C_3   0.466829 0.824852 0.936589 0.052664
C22   C     C_3   0.500775 0.834936 0.073092 0.053417
C23   C     C_3   0.966829 0.324852 0.936589 0.052664
C24   C     C_R   0.255093 0.062934 0.927537 0.030740
C25   C     C_3   0.000775 0.334936 0.073092 0.053417
C26   C     C_3   0.306136 0.396119 0.594487 -0.252038
C27   C     C_3   0.383335 0.371381 0.609604 -0.417937
C28   C     C_3   0.651357 0.441975 0.428153 -0.268391
C29   C     C_3   0.573440 0.463826 0.422372 -0.425369
C30   C     C_3   0.806136 0.896119 0.594487 -0.252038
C31   C     C_3   0.883335 0.871381 0.609604 -0.417937
C32   C     C_3   0.151358 0.941975 0.428153 -0.268391
C33   C     C_3   0.073441 0.963827 0.422372 -0.425367
C34   C     C_1   0.343561 0.414996 0.439651 0.229831
C35   C     C_R   0.276884 0.465489 0.023914 0.013308
C36   C     C_1   0.631260 0.517521 0.579596 0.216879
C37   C     C_1   0.843561 0.914995 0.439651 0.229831
C38   C     C_1   0.131260 0.017521 0.579596 0.216879
C39   C     C_3   0.567210 0.639826 0.945592 -0.254866
C40   C     C_3   0.533805 0.522697 0.925193 -0.432663
C41   C     C_3   0.443525 0.617400 0.072533 -0.273973
C42   C     C_3   0.390231 0.641477 0.131303 -0.402640
C43   C     C_3   0.067210 0.139826 0.945592 -0.254866
C44   C     C_3   0.033805 0.022697 0.925193 -0.432663
C45   C     C_3   0.943525 0.117400 0.072533 -0.273973
C46   C     C_R   0.764581 0.470495 0.977958 0.009606
C47   C     C_3   0.890231 0.141476 0.131303 -0.402639
C48   C     C_R   0.776884 0.965489 0.023914 0.013307
C49   C     C_R   0.264581 0.970495 0.977958 0.009606
C50   C     C_R   0.285757 0.489922 0.952952 0.008279
C51   C     C_R   0.760459 0.491936 0.051325 -0.016839
C52   C     C_R   0.785757 0.989922 0.952952 0.008279
C53   C     C_R   0.710034 0.996944 0.139276 0.550519
C54   C     C_R   0.260459 0.991936 0.051325 -0.016839
C55   C     C_R   0.176750 0.595722 0.948244 -0.171828
C56   C     C_R   0.725138 0.694468 0.023679 -0.164200
C57   C     C_R   0.676750 0.095722 0.948244 -0.171828
C58   C     C_R   0.225138 0.194468 0.023679 -0.164200
C59   C     C_R   0.168069 0.574018 0.021491 -0.178650
C60   C     C_R   0.735278 0.676290 0.950723 -0.188180
C61   C     C_R   0.668069 0.074018 0.021491 -0.178650
C62   C     C_R   0.235278 0.176290 0.950723 -0.188180
C63   C     C_3   0.341383 0.386312 0.027378 -0.262760
C64   C     C_R   0.772488 0.539267 0.853713 0.531974
C65   C     C_3   0.721042 0.362756 0.984781 -0.257253
C66   C     C_3   0.841383 0.886312 0.027378 -0.262760
C67   C     C_3   0.221042 0.862756 0.984781 -0.257253
C68   C     C_3   0.350791 0.416320 0.947336 -0.283939
C69   C     C_3   0.717835 0.384533 0.064036 -0.278818
C70   C     C_3   0.850791 0.916320 0.947336 -0.283939
C71   C     C_3   0.217835 0.884533 0.064036 -0.278818
C72   C     C_R   0.240033 0.564444 0.913977 0.005765
C73   C     C_R   0.743587 0.606286 0.074256 0.028881
C74   C     C_R   0.740033 0.064444 0.913977 0.005765
C75   C     C_R   0.210034 0.496944 0.139276 0.550519
C76   C     C_R   0.243587 0.106286 0.074256 0.028881
C77   C     C_R   0.504475 0.832932 0.424858 0.011339
C78   C     C_R   0.498581 0.823661 0.575264 0.013900
C79   C     C_R   0.004475 0.332933 0.424858 0.011338
C80   C     C_R   0.998582 0.323661 0.575264 0.013900
C81   C     C_R   0.442383 0.817662 0.862393 0.559669
C82   C     C_R   0.529419 0.823292 0.145554 0.533381
C83   C     C_R   0.942383 0.317662 0.862393 0.559669
C84   C     C_R   0.029419 0.323292 0.145554 0.533381
C85   C     C_R   0.493220 0.727270 0.460011 0.015707
C86   C     C_3   0.518124 0.738271 0.974597 0.034452
C87   C     C_R   0.491034 0.721419 0.533423 0.050214
C88   C     C_R   0.993220 0.227270 0.460011 0.015705
C89   C     C_R   0.991033 0.221419 0.533423 0.050214
C90   C     C_R   0.514122 0.930258 0.540494 -0.182673
C91   C     C_R   0.513017 0.935621 0.465440 -0.173813
C92   C     C_R   0.014122 0.430258 0.540494 -0.182673
C93   C     C_R   0.013017 0.435621 0.465440 -0.173813
C94   C     C_3   0.431245 0.653700 0.449600 -0.298024
C95   C     C_3   0.429762 0.642500 0.529535 -0.239412
C96   C     C_3   0.931245 0.153700 0.449600 -0.298024
C97   C     C_3   0.467643 0.729538 0.036990 0.040164
C98   C     C_3   0.929763 0.142500 0.529535 -0.239411
C99   C     C_R   0.248787 0.572739 0.427305 -0.023991
C100  C     C_R   0.753764 0.582965 0.574058 -0.030082
C101  C     C_R   0.748787 0.072739 0.427305 -0.023991
C102  C     C_R   0.253765 0.082965 0.574058 -0.030082
C103  C     C_R   0.204878 0.654183 0.460125 -0.032184
C104  C     C_R   0.809534 0.618806 0.533075 -0.013560
C105  C     C_R   0.704878 0.154183 0.460125 -0.032184
C106  C     C_R   0.309534 0.118806 0.533075 -0.013560
C107  C     C_R   0.208025 0.670983 0.532272 0.017509
C108  C     C_3   0.018124 0.238271 0.974597 0.034452
C109  C     C_R   0.806133 0.624016 0.460748 0.042318
C110  C     C_R   0.708025 0.170983 0.532272 0.017509
C111  C     C_R   0.306133 0.124016 0.460748 0.042318
C112  C     C_R   0.288689 0.502216 0.545911 -0.040382
C113  C     C_R   0.692185 0.539024 0.463459 -0.015385
C114  C     C_R   0.788689 0.002216 0.545911 -0.040382
C115  C     C_R   0.192186 0.039024 0.463459 -0.015386
C116  C     C_R   0.292980 0.496086 0.470755 -0.027821
C117  C     C_R   0.691773 0.549932 0.538866 -0.027627
C118  C     C_R   0.792980 0.996086 0.470755 -0.027821
C119  C     C_3   0.967643 0.229538 0.036990 0.040164
C120  C     C_R   0.191773 0.049931 0.538866 -0.027626
C121  C     C_3   0.127794 0.643304 0.463252 -0.275057
C122  C     C_3   0.881228 0.567480 0.532050 -0.237502
C123  C     C_3   0.627794 0.143304 0.463252 -0.275057
C124  C     C_3   0.381228 0.067480 0.532050 -0.237502
C125  C     C_3   0.131070 0.673692 0.540562 -0.269433
C126  C     C_3   0.876950 0.572098 0.451996 -0.271062
C127  C     C_3   0.631070 0.173691 0.540562 -0.269433
C128  C     C_3   0.376950 0.072098 0.451996 -0.271062
C129  C     C_R   0.258880 0.630512 0.848822 0.528890
C130  C     C_R   0.220186 0.513069 0.062211 -0.008079
C131  C     C_R   0.739181 0.637629 0.148893 0.528093
C132  C     C_R   0.758880 0.130512 0.848822 0.528890
C133  C     C_R   0.239181 0.137629 0.148893 0.528092
C134  C     C_R   0.249952 0.596644 0.574557 0.011074
C135  C     C_R   0.748737 0.585264 0.425187 -0.002226
C136  C     C_R   0.749952 0.096644 0.574557 0.011074
C137  C     C_R   0.248737 0.085264 0.425186 -0.002225
C138  C     C_R   0.271545 0.044729 0.646080 0.539370
C139  C     C_R   0.728139 0.041185 0.355272 0.552093
C140  C     C_R   0.771545 0.544729 0.646080 0.539370
Cr1   Cr    Cr6+3 0.229640 0.835880 0.747370 1.024661
Cr2   Cr    Cr6+3 0.614230 0.677220 0.250660 0.990861
Cr3   Cr    Cr6+3 0.885770 0.177220 0.749340 0.995336
Cr4   Cr    Cr6+3 0.114230 0.177220 0.250660 0.990862
Cr5   Cr    Cr6+3 0.770360 0.835880 0.252630 1.022884
Cr6   Cr    Cr6+3 0.729640 0.335880 0.747370 1.024661
Cr7   Cr    Cr6+3 0.270360 0.335880 0.252630 1.022884
Cr8   Cr    Cr6+3 0.387390 0.989720 0.750850 0.997538
Cr9   Cr    Cr6+3 0.612610 0.989720 0.249150 0.999390
Cr10  Cr    Cr6+3 0.887390 0.489720 0.750850 0.997538
Cr11  Cr    Cr6+3 0.112610 0.489720 0.249150 0.999390
Cr12  Cr    Cr6+3 0.385770 0.677220 0.749340 0.995336
H1    H     H_    0.360143 0.794008 0.993299 0.105924
H2    H     H_    0.882396 0.184408 0.552981 0.161386
H3    H     H_    0.988286 0.062073 0.092925 0.165988
H4    H     H_    0.443984 0.569554 0.421594 0.158743
H5    H     H_    0.382396 0.684408 0.552981 0.161386
H6    H     H_    0.385928 0.705536 0.426871 0.130040
H7    H     H_    0.444600 0.551882 0.548289 0.160608
H8    H     H_    0.885928 0.205536 0.426871 0.130041
H9    H     H_    0.944600 0.051882 0.548289 0.160608
H10   H     H_    0.118617 0.548256 0.454555 0.172262
H11   H     H_    0.882251 0.474742 0.553506 0.164793
H12   H     H_    0.618617 0.048256 0.454555 0.172262
H13   H     H_    0.607722 0.862944 0.015132 0.104344
H14   H     H_    0.382252 0.974742 0.553506 0.164793
H15   H     H_    0.097353 0.707090 0.428964 0.148669
H16   H     H_    0.919317 0.629918 0.554964 0.144203
H17   H     H_    0.597353 0.207090 0.428964 0.148669
H18   H     H_    0.419318 0.129918 0.554964 0.144203
H19   H     H_    0.109636 0.763907 0.553251 0.163624
H20   H     H_    0.913284 0.635410 0.427440 0.172396
H21   H     H_    0.609636 0.263907 0.553251 0.163624
H22   H     H_    0.413284 0.135410 0.427440 0.172395
H23   H     H_    0.113907 0.602208 0.577093 0.139541
H24   H     H_    0.860143 0.294008 0.993299 0.105924
H25   H     H_    0.876308 0.482401 0.426761 0.124748
H26   H     H_    0.613907 0.102208 0.577093 0.139541
H27   H     H_    0.376308 0.982401 0.426761 0.124748
H28   H     H_    0.420148 0.997401 0.062120 0.124340
H29   H     H_    0.514116 0.017745 0.945112 0.125752
H30   H     H_    0.920148 0.497401 0.062120 0.124340
H31   H     H_    0.014116 0.517745 0.945112 0.125752
H32   H     H_    0.136395 0.647988 0.920737 0.139851
H33   H     H_    0.706179 0.779327 0.042058 0.114033
H34   H     H_    0.636395 0.147988 0.920737 0.139851
H35   H     H_    0.107722 0.362944 0.015132 0.104344
H36   H     H_    0.206179 0.279327 0.042058 0.114033
H37   H     H_    0.120596 0.606795 0.046184 0.145330
H38   H     H_    0.725507 0.748626 0.912886 0.118897
H39   H     H_    0.620596 0.106795 0.046184 0.145330
H40   H     H_    0.225507 0.248626 0.912886 0.118897
H41   H     H_    0.834282 0.790592 0.036211 0.163466
H42   H     H_    0.250763 0.780967 0.971295 0.144601
H43   H     H_    0.334282 0.290592 0.036211 0.163466
H44   H     H_    0.750763 0.280967 0.971295 0.144600
H45   H     H_    0.381475 0.414515 0.065384 0.129168
H46   H     H_    0.516551 0.011506 0.570726 0.120641
H47   H     H_    0.669735 0.372906 0.957373 0.146148
H48   H     H_    0.881475 0.914515 0.065384 0.129168
H49   H     H_    0.169735 0.872906 0.957373 0.146148
H50   H     H_    0.395510 0.471143 0.934212 0.132158
H51   H     H_    0.664345 0.406960 0.082863 0.148530
H52   H     H_    0.895510 0.971143 0.934212 0.132158
H53   H     H_    0.164345 0.906960 0.082863 0.148530
H54   H     H_    0.344207 0.338468 0.911683 0.150549
H55   H     H_    0.746287 0.315282 0.096452 0.144483
H56   H     H_    0.844207 0.838468 0.911683 0.150549
H57   H     H_    0.514440 0.020668 0.438275 0.126352
H58   H     H_    0.246287 0.815282 0.096452 0.144484
H59   H     H_    0.412803 0.355978 0.559805 0.150990
H60   H     H_    0.405660 0.445665 0.640444 0.176360
H61   H     H_    0.389255 0.289674 0.643260 0.157266
H62   H     H_    0.279850 0.404786 0.646947 0.142254
H63   H     H_    0.281620 0.319240 0.570253 0.154084
H64   H     H_    0.547799 0.456715 0.474899 0.154994
H65   H     H_    0.563701 0.552188 0.399363 0.220868
H66   H     H_    0.550224 0.397098 0.386265 0.132443
H67   H     H_    0.672141 0.418614 0.374639 0.158006
H68   H     H_    0.016551 0.511506 0.570726 0.120641
H69   H     H_    0.660845 0.364134 0.461626 0.155946
H70   H     H_    0.912803 0.855978 0.559805 0.150990
H71   H     H_    0.905660 0.945665 0.640444 0.176360
H72   H     H_    0.889255 0.789674 0.643260 0.157266
H73   H     H_    0.779850 0.904786 0.646947 0.142254
H74   H     H_    0.781620 0.819240 0.570253 0.154084
H75   H     H_    0.047799 0.956710 0.474899 0.154992
H76   H     H_    0.063701 0.052191 0.399366 0.220868
H77   H     H_    0.050225 0.897102 0.386262 0.132444
H78   H     H_    0.172142 0.918615 0.374638 0.158006
H79   H     H_    0.014440 0.520668 0.438275 0.126352
H80   H     H_    0.160846 0.864134 0.461626 0.155946
H81   H     H_    0.514860 0.475511 0.973249 0.120549
H82   H     H_    0.491420 0.535880 0.885776 0.191843
H83   H     H_    0.573581 0.463767 0.899878 0.136706
H84   H     H_    0.595260 0.675844 0.898806 0.163435
H85   H     H_    0.605101 0.616643 0.988561 0.160388
H86   H     H_    0.407856 0.710141 0.169275 0.163635
H87   H     H_    0.339781 0.671897 0.107321 0.146328
H88   H     H_    0.382292 0.557998 0.162070 0.166485
H89   H     H_    0.418638 0.572351 0.028427 0.142383
H90   H     H_    0.943984 0.069554 0.421594 0.158743
H91   H     H_    0.488286 0.562073 0.092925 0.165988
H92   H     H_    0.014860 0.975511 0.973249 0.120549
H93   H     H_    0.991420 0.035880 0.885776 0.191843
H94   H     H_    0.073581 0.963768 0.899878 0.136706
H95   H     H_    0.095260 0.175844 0.898806 0.163435
H96   H     H_    0.105101 0.116643 0.988561 0.160387
H97   H     H_    0.907856 0.210141 0.169274 0.163635
H98   H     H_    0.839781 0.171897 0.107321 0.146328
H99   H     H_    0.882292 0.057997 0.162070 0.166485
H100  H     H_    0.918638 0.072351 0.028427 0.142383
N1    N     N_1   0.385349 0.353239 0.414060 -0.336830
N2    N     N_1   0.583124 0.492055 0.612672 -0.329747
N3    N     N_1   0.885349 0.853239 0.414060 -0.336830
N4    N     N_1   0.083124 0.992055 0.612671 -0.329748
O1    O     O_R   0.214300 0.709080 0.827500 -0.530430
O2    O     O_R   0.543340 0.717710 0.330180 -0.531511
O3    O     O_R   0.956660 0.217710 0.669820 -0.505122
O4    O     O_R   0.043340 0.217710 0.330180 -0.531510
O5    O     O_R   0.320590 0.625770 0.672930 -0.518983
O6    O     O_R   0.679410 0.625770 0.327070 -0.506988
O7    O     O_R   0.820590 0.125770 0.672930 -0.518983
O8    O     O_R   0.179410 0.125770 0.327070 -0.506988
O9    O     O_3   0.334270 0.834280 0.749190 -0.277782
O10   O     O_3   0.665730 0.834280 0.250810 -0.278956
O11   O     O_3   0.834270 0.334280 0.749190 -0.277782
O12   O     O_R   0.785700 0.709080 0.172500 -0.531608
O13   O     O_3   0.165730 0.334280 0.250810 -0.278956
O14   O     O_R   0.236190 0.958390 0.823150 -0.505334
O15   O     O_R   0.763810 0.958390 0.176850 -0.511119
O16   O     O_R   0.736190 0.458390 0.823150 -0.505334
O17   O     O_R   0.263810 0.458390 0.176850 -0.511119
O18   O     O_R   0.332090 0.075280 0.831290 -0.523467
O19   O     O_R   0.667910 0.075280 0.168710 -0.523451
O20   O     O_R   0.832090 0.575280 0.831290 -0.523467
O21   O     O_R   0.167910 0.575280 0.168710 -0.523451
O22   O     O_R   0.446280 0.918040 0.826620 -0.500344
O23   O     O_R   0.714300 0.209080 0.827500 -0.530430
O24   O     O_R   0.553720 0.918040 0.173380 -0.523307
O25   O     O_R   0.946280 0.418040 0.826620 -0.500344
O26   O     O_R   0.053720 0.418040 0.173380 -0.523307
O27   O     O_R   0.457080 0.716270 0.831760 -0.527195
O28   O     O_R   0.542920 0.716270 0.168240 -0.523000
O29   O     O_R   0.957080 0.216270 0.831760 -0.527195
O30   O     O_R   0.042920 0.216270 0.168240 -0.523000
O31   O     O_R   0.320980 0.624440 0.823040 -0.516455
O32   O     O_R   0.679020 0.624440 0.176960 -0.507162
O33   O     O_R   0.820980 0.124440 0.823040 -0.516454
O34   O     O_R   0.285700 0.209080 0.172500 -0.531608
O35   O     O_R   0.179020 0.124440 0.176960 -0.507162
O36   O     O_R   0.213880 0.710510 0.665560 -0.513132
O37   O     O_R   0.786120 0.710510 0.334440 -0.490365
O38   O     O_R   0.713880 0.210510 0.665560 -0.513132
O39   O     O_R   0.286120 0.210510 0.334440 -0.490365
O40   O     O_R   0.235800 0.959720 0.673040 -0.484654
O41   O     O_R   0.764200 0.959720 0.326960 -0.489135
O42   O     O_R   0.735800 0.459720 0.673040 -0.484654
O43   O     O_R   0.264200 0.459720 0.326960 -0.489135
O44   O     O_R   0.331670 0.076720 0.669350 -0.531751
O45   O     O_R   0.445900 0.919370 0.676500 -0.511413
O46   O     O_R   0.668330 0.076720 0.330650 -0.522057
O47   O     O_R   0.831670 0.576720 0.669350 -0.531752
O48   O     O_R   0.168330 0.576720 0.330650 -0.522057
O49   O     O_R   0.554100 0.919370 0.323500 -0.511534
O50   O     O_R   0.945900 0.419370 0.676500 -0.511413
O51   O     O_R   0.054100 0.419370 0.323500 -0.511534
O52   O     O_R   0.456660 0.717710 0.669820 -0.505122

loop_
_geom_bond_atom_site_label_1
_geom_bond_atom_site_label_2
_ccdc_geom_bond_type
Cr12  O5    S    
C38   N4    T    
C105  C110  A    
C55   C59   A    
C99   C103  A    
C17   H1    S    
C98   H9    S    
C6    O50   A    
C75   O21   A    
C34   N1    T    
C22   C82   S    
C14   C21   S    
Cr10  O20   S    
C45   H100  S    
Cr5   O41   S    
C100  C104  A    
C105  C123  S    
Cr2   O2    S    
Cr9   O24   S    
C50   C72   A    
C19   H24   S    
C139  O46   A    
Cr2   O28   S    
C65   H47   S    
Cr3   O33   S    
C53   O15   A    
Cr5   O10   S    
Cr12  O27   S    
C93   H79   S    
Cr9   O49   S    
C25   C119  S    
C45   C47   S    
Cr4   O35   S    
C70   H52   S    
C32   H78   S    
C68   H50   S    
C46   C65   S    
C99   C116  A    
C42   H88   S    
Cr11  O13   S    
Cr4   O30   S    
C17   C21   S    
C63   H45   S    
C6    O3    A    
Cr8   O9    S    
C80   C92   A    
C19   C23   S    
C43   C44   S    
C4    C78   S    
C6    C80   S    
C16   C20   S    
Cr10  O47   S    
Cr1   O14   S    
C36   C117  S    
C3    O43   A    
C44   H93   S    
Cr8   O44   S    
Cr8   O18   S    
C59   H37   S    
C138  O44   A    
C103  C121  S    
C111  C137  A    
C7    C79   S    
C21   C86   S    
C77   C91   A    
C56   C73   A    
C127  H26   S    
C82   O24   A    
C112  C134  A    
C40   H81   S    
C33   H75   S    
C140  O42   A    
C76   C133  S    
C57   C61   A    
C131  O32   A    
C32   C33   S    
C66   C70   S    
C70   H56   S    
Cr5   O12   S    
C43   C108  S    
Cr6   O11   S    
C125  H19   S    
C126  H20   S    
C48   C52   A    
C56   H33   S    
C60   H38   S    
C113  C135  A    
C106  C124  S    
C61   H39   S    
C114  C136  A    
C132  O33   A    
C35   C63   S    
C100  C117  A    
C51   C69   S    
C66   H48   S    
C20   C108  S    
C78   C87   A    
C32   H80   S    
C109  C135  A    
C30   H74   S    
C110  C136  A    
C81   O27   A    
C82   O28   A    
C9    O37   A    
C42   H86   S    
C58   C76   A    
C11   O39   A    
C95   H7    S    
C101  C118  A    
C133  O35   A    
C107  C134  A    
C52   C74   A    
C15   C25   S    
C104  C122  S    
C23   C108  S    
C15   H30   S    
C12   C22   S    
C86   C97   S    
C64   O16   A    
C115  C137  A    
C43   H95   S    
C47   H98   S    
C87   C95   S    
C55   H32   S    
C47   H99   S    
C65   H44   S    
C77   C85   A    
C75   O17   A    
C40   H83   S    
C33   H77   S    
C106  C111  A    
Cr6   O42   S    
C8    C134  S    
C129  O31   A    
Cr3   O3    S    
C107  C125  S    
C39   C40   S    
Cr1   O40   S    
C46   C51   A    
C36   N2    T    
C41   H89   S    
Cr10  O25   S    
C121  C125  S    
C67   H49   S    
C123  C127  S    
C71   H53   S    
C9    O6    A    
C123  H17   S    
C11   O8    A    
C88   C89   A    
C35   C130  A    
C1    O18   A    
Cr7   O17   S    
C4    O52   A    
C113  C117  A    
C9    C135  S    
C29   H66   S    
C12   H28   S    
Cr7   O43   S    
C16   C23   S    
C68   H54   S    
C54   C76   A    
C3    O48   A    
C39   H85   S    
C44   H92   S    
C63   C68   S    
C24   C62   A    
C18   C22   S    
Cr2   O10   S    
C12   C14   S    
C103  C107  A    
C128  H22   S    
C10   O38   A    
C89   C98   S    
C30   C31   S    
C27   H60   S    
Cr8   O22   S    
C41   C97   S    
C47   H97   S    
C28   C113  S    
C31   H72   S    
C3    C99   S    
C109  C126  S    
C1    C24   S    
C111  C128  S    
Cr1   O1    S    
C48   C66   S    
C8    O5    A    
C17   C97   S    
C58   C62   A    
C88   C96   S    
C41   C42   S    
C112  C116  A    
C91   H57   S    
C98   H2    S    
C72   C129  S    
C78   C90   A    
C15   C19   S    
C26   C27   S    
C18   C86   S    
C23   C83   S    
C41   H91   S    
C28   C29   S    
C39   H84   S    
C2    C60   A    
C20   C25   S    
C10   O7    A    
C80   C89   A    
C54   C71   S    
C12   C17   S    
Cr12  O52   S    
C67   H42   S    
C83   O29   A    
C75   C130  S    
C44   H94   S    
C124  C128  S    
C38   C120  S    
C45   C119  S    
C19   C119  S    
C94   H6    S    
C95   H5    S    
C108  C119  S    
C7    O4    A    
Cr9   O10   S    
C79   C88   A    
C18   H13   S    
C13   C53   S    
C101  C139  S    
C121  H15   S    
C69   H55   S    
C122  H16   S    
C81   O22   A    
C40   H82   S    
Cr11  O26   S    
C131  O12   A    
C84   O26   A    
C64   O20   A    
C56   C60   A    
C31   H70   S    
Cr10  O50   S    
C128  H27   S    
C57   H34   S    
Cr6   O38   S    
Cr3   O29   S    
C28   H67   S    
C63   H43   S    
Cr3   O7    S    
Cr4   O8    S    
C26   C112  S    
C66   H41   S    
C102  C120  A    
Cr1   O36   S    
C30   C114  S    
C42   H87   S    
C139  O41   A    
Cr12  O9    S    
C129  O1    A    
C26   H62   S    
C133  O34   A    
Cr4   O13   S    
C11   C137  S    
Cr7   O13   S    
C123  H12   S    
C5    O49   A    
C90   C91   A    
Cr7   O39   S    
C65   C69   S    
C121  H10   S    
C92   C93   A    
C67   C71   S    
C32   C115  S    
C94   C95   S    
C94   H4    S    
Cr9   O46   S    
C27   H61   S    
C26   H63   S    
Cr2   O6    S    
C39   C86   S    
C50   C68   S    
C49   C54   A    
Cr2   O32   S    
Cr7   O34   S    
C127  H21   S    
C73   C131  S    
C59   C130  A    
C74   C132  S    
C14   C18   S    
C33   H76   S    
C16   H31   S    
C2    C46   A    
C31   H71   S    
Cr9   O19   S    
C10   C136  S    
C79   C93   A    
C104  C109  A    
C34   C116  S    
C15   C16   S    
C14   H29   S    
C126  H25   S    
C102  C138  S    
C92   H68   S    
C100  C140  S    
C37   C118  S    
C28   H69   S    
C37   N3    T    
C25   C84   S    
C45   H3    S    
C55   C72   A    
C110  C127  S    
C29   H65   S    
C22   C97   S    
C30   H73   S    
C2    C64   S    
C85   C87   A    
C101  C105  A    
C58   H36   S    
C138  O40   A    
C29   H64   S    
C62   H40   S    
C1    O14   A    
C122  H11   S    
C96   C98   S    
Cr1   O9    S    
C57   C74   A    
C122  C126  S    
C83   O25   A    
C85   C94   S    
Cr8   O45   S    
C43   H96   S    
C71   H58   S    
C35   C50   A    
C27   H59   S    
C124  H18   S    
C96   H90   S    
C114  C118  A    
Cr12  O31   S    
C140  O47   A    
C124  H14   S    
C96   H8    S    
C21   C81   S    
C69   H51   S    
Cr6   O23   S    
C125  H23   S    
C8    O36   A    
C24   C49   A    
C132  O23   A    
C84   O30   A    
C49   C67   S    
C51   C73   A    
C13   C48   A    
C90   H46   S    
Cr11  O51   S    
Cr5   O15   S    
Cr6   O16   S    
Cr11  O21   S    
Cr5   O37   S    
C20   H35   S    
C5    O2    A    
C102  C106  A    
Cr3   O11   S    
C4    O45   A    
Cr4   O4    S    
C52   C70   S    
C7    O51   A    
C53   O19   A    
C13   C61   A    
C115  C120  A    
Cr11  O48   S    
C5    C77   S    
Cr10  O11   S    
