data_mof_unit_67092.cif
_audit_creation_date              2012-12-11T17:41:25-0500
_audit_creation_method            fapswitch 2.2
_symmetry_space_group_name_H-M    P1
_symmetry_Int_Tables_number       1
_space_group_crystal_system       triclinic
_cell_length_a                    8.184449
_cell_length_b                    12.699682
_cell_length_c                    14.223656
_cell_angle_alpha                 92.865927
_cell_angle_beta                  90.486402
_cell_angle_gamma                 98.179827
_cell_volume                      1461.35232301

loop_
_atom_site_label
_atom_site_type_symbol
_atom_type_description
_atom_site_fract_x
_atom_site_fract_y
_atom_site_fract_z
_atom_type_partial_charge
Ba1   Ba    Ba6+2 0.855630 0.555280 0.454520 1.637139
Ba2   Ba    Ba6+2 0.334200 0.444810 0.545490 1.633379
C1    C     C_3   0.688539 0.970378 0.225334 -0.163180
C2    C     C_R   0.182159 0.497669 0.195547 0.044370
C3    C     C_R   0.336604 0.549484 0.225704 -0.293518
C4    C     C_3   0.138413 0.792085 0.195594 0.328184
C5    C     C_R   0.449206 0.596408 0.162318 0.021979
C6    C     C_R   0.405412 0.598597 0.067369 -0.142900
C7    C     C_R   0.248970 0.549820 0.034388 -0.006933
C8    C     C_R   0.136963 0.495672 0.097747 -0.023470
C9    C     C_R   0.053282 0.501109 0.901722 -0.020709
C10   C     C_R   0.941595 0.446379 0.965007 -0.001462
C11   C     C_R   0.008282 0.499407 0.803862 0.044182
C12   C     C_3   0.652355 0.854212 0.250378 0.281553
C13   C     C_R   0.855273 0.445008 0.773430 -0.292893
C14   C     C_R   0.741591 0.399077 0.837051 0.012540
C15   C     C_R   0.785158 0.397527 0.932062 -0.144141
C16   C     C_3   0.156028 0.823652 0.093104 -0.194963
C17   C     C_R   0.205059 0.554341 0.938651 -0.027979
C18   C     C_R   0.767717 0.175652 0.532329 -0.276097
C19   C     C_R   0.427719 0.813836 0.464224 -0.306129
C20   C     C_R   0.404957 0.994744 0.430202 -0.058864
C21   C     C_R   0.339087 0.887722 0.426425 0.013242
C22   C     C_R   0.575969 0.846656 0.513630 0.059652
C23   C     C_3   0.481141 0.314845 0.259039 0.300765
C24   C     C_R   0.642115 0.956956 0.521736 -0.057987
C25   C     C_R   0.555691 0.031362 0.477440 -0.067163
C26   C     C_R   0.621003 0.140797 0.482899 0.041333
C27   C     C_R   0.856664 0.103972 0.573066 -0.006953
C28   C     C_3   0.226160 0.762833 0.658003 0.281376
C29   C     C_R   0.792292 0.995559 0.570697 -0.087508
C30   C     C_3   0.238609 0.881972 0.679842 -0.349098
C31   C     C_3   0.979587 0.232026 0.340863 0.262027
C32   C     C_3   0.057439 0.131134 0.328740 -0.315941
C33   C     C_3   0.712814 0.671070 0.736733 0.272577
C34   C     C_3   0.460729 0.295141 0.152877 -0.371412
C35   C     C_3   0.740807 0.695405 0.841867 -0.344333
C36   C     C_2   0.556347 0.003083 0.164829 0.878266
C37   C     C_2   0.029573 0.890808 0.064055 0.934116
C38   C     C_3   0.047134 0.197281 0.802920 0.345268
C39   C     C_3   0.055793 0.159732 0.902180 -0.347208
C40   C     C_3   0.541737 0.142468 0.764901 0.318587
C41   C     C_3   0.588379 0.052764 0.821925 -0.356365
C42   C     C_R   0.984889 0.442720 0.060958 -0.032428
H1    H     H_    0.725107 0.846734 0.315422 0.079153
H2    H     H_    0.824603 0.644091 0.706446 0.015213
H3    H     H_    0.606129 0.607138 0.725987 0.071276
H4    H     H_    0.701312 0.022699 0.290654 -0.011702
H5    H     H_    0.856568 0.751800 0.853900 0.165702
H6    H     H_    0.751208 0.621598 0.878395 0.057985
H7    H     H_    0.635694 0.731517 0.872093 0.141320
H8    H     H_    0.518846 0.832944 0.264796 -0.051729
H9    H     H_    0.365521 0.338901 0.287539 0.004280
H10   H     H_    0.584740 0.380307 0.273218 0.063716
H11   H     H_    0.346431 0.238901 0.135946 0.135625
H12   H     H_    0.321100 0.905111 0.741741 0.115901
H13   H     H_    0.451681 0.370939 0.119085 0.054061
H14   H     H_    0.568758 0.261346 0.123761 0.140981
H15   H     H_    0.806537 0.981918 0.188136 0.113414
H16   H     H_    0.281060 0.867102 0.081962 0.085416
H17   H     H_    0.133620 0.272569 0.798824 0.098472
H18   H     H_    0.919177 0.212360 0.788824 -0.066317
H19   H     H_    0.184651 0.150116 0.920862 0.168997
H20   H     H_    0.012522 0.218523 0.953072 0.069598
H21   H     H_    0.976040 0.081866 0.906307 0.131813
H22   H     H_    0.654811 0.178892 0.729322 -0.054344
H23   H     H_    0.289317 0.926431 0.619173 0.074824
H24   H     H_    0.449728 0.108709 0.709654 0.082757
H25   H     H_    0.683941 0.085344 0.875521 0.139691
H26   H     H_    0.637834 0.992833 0.774790 0.082383
H27   H     H_    0.030968 0.729200 0.199806 0.091636
H28   H     H_    0.478787 0.013737 0.858779 0.152757
H29   H     H_    0.372274 0.550055 0.299191 0.069698
H30   H     H_    0.493561 0.637906 0.019445 0.086411
H31   H     H_    0.696403 0.359258 0.980180 0.075151
H32   H     H_    0.820114 0.443797 0.699833 0.069511
H33   H     H_    0.897996 0.398332 0.106185 0.098956
H34   H     H_    0.114472 0.903303 0.695657 0.143724
H35   H     H_    0.291495 0.599459 0.893676 0.097254
H36   H     H_    0.335391 0.048337 0.396962 0.117523
H37   H     H_    0.862008 0.943216 0.606320 0.101930
H38   H     H_    0.816984 0.259499 0.535557 0.059761
H39   H     H_    0.251530 0.758561 0.214848 -0.058418
H40   H     H_    0.376665 0.730309 0.459132 0.072011
H41   H     H_    0.143791 0.750070 0.046573 0.011404
H42   H     H_    0.349368 0.742756 0.640445 0.008303
H43   H     H_    0.139991 0.741552 0.597150 0.072447
H44   H     H_    0.333217 0.051076 0.159987 0.345536
H45   H     H_    0.844557 0.210232 0.345506 -0.003883
H46   H     H_    0.963144 0.037629 0.062322 0.307970
H47   H     H_    0.027956 0.273631 0.407860 0.068281
H48   H     H_    0.001426 0.081381 0.268137 0.146504
H49   H     H_    0.041586 0.086050 0.393424 0.096660
H50   H     H_    0.189857 0.151538 0.313143 0.154055
O1    O     O_2   0.887370 0.460630 0.272300 -0.470941
O2    O     O_2   0.199621 0.111968 0.568477 -0.491187
O3    O     O_3   0.091742 0.118318 0.739487 -0.600506
O4    O     O_3   0.129410 0.451380 0.388510 -0.494111
O5    O     O_3   0.575400 0.626570 0.547370 -0.490067
O6    O     O_2   0.344320 0.238700 0.455090 -0.472971
O7    O     O_3   0.514569 0.221113 0.298730 -0.624607
O8    O     O_2   0.403107 0.408669 0.835753 -0.496517
O9    O     O_3   0.470567 0.214030 0.825323 -0.586644
O10   O     O_3   0.670210 0.653170 0.329170 -0.492198
O11   O     O_2   0.789823 0.597271 0.163179 -0.495351
O12   O     O_3   0.681608 0.764065 0.695609 -0.637829
O13   O     O_3   0.012845 0.289917 0.260286 -0.632803
O14   O     O_3   0.702846 0.788364 0.176849 -0.574267
O15   O     O_2   0.845380 0.761330 0.544970 -0.474129
O16   O     O_3   0.088930 0.704860 0.376040 -0.493887
O17   O     O_2   0.996920 0.889751 0.427655 -0.503421
O18   O     O_2   0.581148 0.018248 0.081610 -0.615212
O19   O     O_R   0.407466 0.020594 0.205371 -0.751047
O20   O     O_2   0.904852 0.849794 0.021128 -0.597953
O21   O     O_R   0.057302 0.000665 0.084241 -0.776304
O22   O     O_3   0.116230 0.879492 0.256685 -0.582210
O23   O     O_2   0.302330 0.539400 0.727760 -0.472391
O24   O     O_3   0.060300 0.548700 0.611500 -0.495808
O25   O     O_3   0.519500 0.346920 0.670840 -0.470226
O26   O     O_3   0.170357 0.710495 0.738231 -0.637603
O27   O     O_3   0.614310 0.373510 0.452640 -0.481450
O28   O     O_3   0.100780 0.295230 0.623970 -0.485719
P1    P     P_3+3 0.054400 0.427280 0.286870 0.972540
P2    P     P_3+3 0.668300 0.742890 0.573060 0.970348
P3    P     P_3+3 0.134510 0.842445 0.373216 0.957886
P4    P     P_3+3 0.135310 0.572810 0.713130 0.969625
P5    P     P_3+3 0.061488 0.156129 0.624821 0.946537
P6    P     P_3+3 0.653490 0.655932 0.206947 0.962864
P7    P     P_3+3 0.527202 0.241885 0.421269 0.942910
P8    P     P_3+3 0.533806 0.344503 0.793219 0.960079

loop_
_geom_bond_atom_site_label_1
_geom_bond_atom_site_label_2
_ccdc_geom_bond_type
C41   H28   S    
C18   H38   S    
O28   P5    S    
C31   O13   S    
C32   H49   S    
O13   P1    S    
O3    P5    S    
C33   H3    S    
C40   O9    S    
Ba1   O5    S    
Ba2   O24   S    
C5    C6    A    
Ba2   O4    S    
C9    C17   A    
C24   C25   A    
C42   H33   S    
C33   C35   S    
C23   H9    S    
C26   P7    S    
C34   H14   S    
C31   H47   S    
C34   H11   S    
C35   H7    S    
O26   P4    S    
C13   C14   A    
C1    H4    S    
C22   P2    S    
O25   P8    S    
C38   H18   S    
Ba1   Ba2   S    
H44   O19   S    
Ba1   O15   S    
C7    C17   A    
C12   H8    S    
C1    C36   S    
C14   C15   A    
C10   C15   A    
O17   P3    D    
C5    P6    S    
C28   H42   S    
C14   P8    S    
O23   P4    D    
C21   P3    S    
C12   O14   S    
C13   H32   S    
Ba2   O6    S    
C24   C29   A    
C41   H25   S    
C40   H24   S    
C4    H27   S    
Ba2   O23   S    
C12   H1    S    
Ba1   O27   S    
C18   C27   A    
Ba2   O28   S    
C19   C21   A    
O4    P1    S    
C4    C16   S    
C16   H41   S    
C8    C42   A    
C32   H50   S    
C23   H10   S    
C34   H13   S    
C38   O3    S    
C3    C5    A    
C36   O19   S    
O6    P7    D    
C6    C7    A    
C39   H21   S    
C18   C26   A    
C38   H17   S    
C2    P1    S    
C16   C37   S    
Ba1   P1    S    
C31   H45   S    
Ba1   O16   S    
C35   H5    S    
O10   P6    S    
C19   H40   S    
Ba1   O1    S    
C37   O20   D    
C6    H30   S    
C31   C32   S    
H46   O21   S    
O14   P6    S    
C17   H35   S    
Ba1   O10   S    
C4    O22   S    
C1    C12   S    
C30   H23   S    
C11   P4    S    
Ba2   P4    S    
C16   H16   S    
C38   C39   S    
Ba2   O5    S    
C41   H26   S    
C37   O21   S    
O22   P3    S    
C27   P5    S    
C40   C41   S    
C39   H19   S    
C36   O18   D    
C40   H22   S    
O16   P3    S    
C7    C8    A    
Ba2   O27   S    
O1    P1    D    
C4    H39   S    
O11   P6    D    
O8    P8    D    
O27   P7    S    
C2    C3    A    
Ba1   O4    S    
C9    C10   A    
O15   P2    D    
C29   H37   S    
C20   C25   A    
C11   C13   A    
Ba1   P2    S    
C20   H36   S    
C27   C29   A    
C33   O12   S    
C28   C30   S    
C35   H6    S    
C9    C11   A    
C22   C24   A    
C23   O7    S    
C28   O26   S    
Ba2   O25   S    
Ba1   O24   S    
C3    H29   S    
O9    P8    S    
C32   H48   S    
C23   C34   S    
C30   H34   S    
O2    P5    D    
C10   C42   A    
C19   C22   A    
O12   P2    S    
C25   C26   A    
C15   H31   S    
C20   C21   A    
O24   P4    S    
C39   H20   S    
C28   H43   S    
C33   H2    S    
C2    C8    A    
C30   H12   S    
C1    H15   S    
O5    P2    S    
O7    P7    S    
