data_mof_unit_41862.cif
_audit_creation_date              2012-12-11T19:49:25-0500
_audit_creation_method            fapswitch 2.2
_symmetry_space_group_name_H-M    P1
_symmetry_Int_Tables_number       1
_space_group_crystal_system       triclinic
_cell_length_a                    8.280522
_cell_length_b                    15.019086
_cell_length_c                    18.783511
_cell_angle_alpha                 101.178009
_cell_angle_beta                  91.182553
_cell_angle_gamma                 99.088465
_cell_volume                      2259.77105769

loop_
_atom_site_label
_atom_site_type_symbol
_atom_type_description
_atom_site_fract_x
_atom_site_fract_y
_atom_site_fract_z
_atom_type_partial_charge
Ba1   Ba    Ba6+2 0.853520 0.540910 0.466490 1.774116
Ba2   Ba    Ba6+2 0.336320 0.459170 0.533520 1.687998
C1    C     C_3   0.689976 0.833722 0.209863 -0.204529
C2    C     C_R   0.886884 0.416519 0.094836 0.005036
C3    C     C_R   0.722316 0.382364 0.073543 -0.049093
C4    C     C_3   0.149498 0.723497 0.278469 0.365302
C5    C     C_R   0.655516 0.389100 0.005626 -0.042360
C6    C     C_R   0.760330 0.425993 0.955344 -0.017604
C7    C     C_R   0.926501 0.461844 0.977282 0.034213
C8    C     C_R   0.705724 0.425714 0.883382 -0.111525
C9    C     C_R   0.812117 0.457935 0.832801 -0.025768
C10   C     C_R   0.974620 0.499312 0.856518 -0.003371
C11   C     C_R   0.031338 0.500833 0.928890 0.002874
C12   C     C_3   0.622380 0.759930 0.252800 0.350247
C13   C     C_R   0.761444 0.449044 0.758748 0.000247
C14   C     C_R   0.871424 0.482030 0.710328 -0.291660
C15   C     C_R   0.027024 0.531572 0.733904 0.041178
C16   C     C_3   0.166235 0.749887 0.204491 -0.349295
C17   C     C_R   0.080735 0.539278 0.808177 -0.056309
C18   C     C_R   0.152255 0.496899 0.070962 0.019211
C19   C     C_R   0.212328 0.496200 0.142415 0.032699
C20   C     C_R   0.107554 0.455264 0.190548 -0.040426
C21   C     C_R   0.949135 0.410675 0.163681 -0.023935
C22   C     C_R   0.238573 0.583514 0.835534 -0.043490
C23   C     C_3   0.375444 0.196386 0.298981 0.308921
C24   C     C_R   0.298689 0.579766 0.904963 0.036157
C25   C     C_R   0.194868 0.539093 0.952292 0.005148
C26   C     C_R   0.255449 0.536756 0.022938 0.019900
C27   C     C_R   0.463469 0.614061 0.926941 -0.072937
C28   C     C_3   0.317915 0.759705 0.679279 0.333367
C29   C     C_R   0.524515 0.608839 0.995594 -0.114089
C30   C     C_R   0.420758 0.572487 0.044747 0.007777
C31   C     C_R   0.376968 0.536366 0.165347 -0.019697
C32   C     C_R   0.480591 0.570919 0.114909 -0.114655
C33   C     C_R   0.432556 0.540180 0.237974 -0.008623
C34   C     C_3   0.423534 0.102838 0.267811 -0.455381
C35   C     C_R   0.327587 0.499662 0.284395 -0.178810
C36   C     C_R   0.165264 0.460052 0.263557 0.025573
C37   C     C_R   0.850970 0.173328 0.546519 -0.018503
C38   C     C_R   0.783919 0.079572 0.541662 -0.048484
C39   C     C_R   0.642952 0.892087 0.532552 -0.005443
C40   C     C_3   0.406243 0.799204 0.753544 -0.378637
C41   C     C_R   0.794506 0.929337 0.570226 -0.043126
C42   C     C_R   0.864583 0.020755 0.573879 -0.089982
C43   C     C_R   0.574436 0.797800 0.524458 0.019769
C44   C     C_R   0.417438 0.766442 0.490712 -0.302078
C45   C     C_3   0.067889 0.278603 0.725507 0.326990
C46   C     C_R   0.615968 0.194077 0.474812 -0.033723
C47   C     C_R   0.544360 0.101826 0.471995 -0.034564
C48   C     C_R   0.628906 0.044178 0.505003 0.053332
C49   C     C_R   0.386429 0.066950 0.440657 -0.051962
C50   C     C_R   0.314091 0.977534 0.439416 -0.060659
C51   C     C_R   0.397979 0.917820 0.468311 0.000078
C52   C     C_3   0.947055 0.254485 0.370715 0.289053
C53   C     C_R   0.556755 0.951187 0.501925 0.073782
C54   C     C_R   0.328166 0.825245 0.463064 -0.037339
C55   C     C_R   0.763336 0.229768 0.515501 -0.296815
C56   C     C_3   0.076601 0.254681 0.800383 -0.310841
C57   C     C_3   0.896704 0.150644 0.346480 -0.404820
C58   C     C_3   0.736506 0.669273 0.686775 0.304708
C59   C     C_3   0.797882 0.703674 0.766034 -0.387538
C60   C     C_2   0.600542 0.808576 0.328414 0.507955
C61   C     C_2   0.313715 0.234392 0.237094 0.534125
C62   C     C_2   0.682259 0.795525 0.129965 0.511990
C63   C     C_2   0.466984 0.179520 0.641021 0.550348
C64   C     C_2   0.598465 0.193278 0.840201 0.506170
C65   C     C_2   0.475611 0.359208 0.990427 0.492296
C66   C     C_2   0.339326 0.672337 0.489369 0.553508
C67   C     C_3   0.544306 0.223542 0.715068 0.280686
C68   C     C_2   0.292782 0.839453 0.644950 0.443796
C69   C     C_3   0.532569 0.151873 0.764329 -0.190688
C70   C     C_R   0.988309 0.458918 0.047806 0.020403
H1    H     H_    0.519618 0.847685 0.748463 0.096675
H2    H     H_    0.616417 0.890480 0.218543 -0.019045
H3    H     H_    0.271991 0.187830 0.334603 -0.042880
H4    H     H_    0.486727 0.076833 0.310065 0.098829
H5    H     H_    0.508947 0.108649 0.223430 0.140485
H6    H     H_    0.201395 0.692506 0.164497 0.069317
H7    H     H_    0.160041 0.340789 0.725069 0.100967
H8    H     H_    0.944108 0.294345 0.715554 -0.055498
H9    H     H_    0.038983 0.310005 0.841678 0.087920
H10   H     H_    0.676036 0.247805 0.709416 -0.140425
H11   H     H_    0.601348 0.096092 0.740729 0.087336
H12   H     H_    0.325481 0.836310 0.790885 0.122633
H13   H     H_    0.402534 0.120429 0.767177 0.097575
H14   H     H_    0.643890 0.353002 0.111533 0.153032
H15   H     H_    0.580959 0.397843 0.865559 0.081990
H16   H     H_    0.320437 0.617312 0.802261 0.095634
H17   H     H_    0.546099 0.643526 0.890466 0.073243
H18   H     H_    0.653092 0.633768 0.010355 0.119276
H19   H     H_    0.608543 0.597155 0.129656 0.095068
H20   H     H_    0.268134 0.706247 0.295644 -0.096192
H21   H     H_    0.375757 0.495116 0.337027 0.124434
H22   H     H_    0.861240 0.888934 0.597888 0.154867
H23   H     H_    0.785360 0.135278 0.309491 0.129879
H24   H     H_    0.982295 0.044381 0.602792 0.150673
H25   H     H_    0.313346 0.107983 0.417560 0.084337
H26   H     H_    0.814498 0.301691 0.520203 0.062896
H27   H     H_    0.047899 0.765066 0.185321 0.179303
H28   H     H_    0.394120 0.717534 0.644215 -0.065299
H29   H     H_    0.499761 0.846480 0.338263 -0.116250
H30   H     H_    0.442173 0.743618 0.777672 0.088655
H31   H     H_    0.841023 0.284883 0.392393 0.026575
H32   H     H_    0.047440 0.268722 0.413362 0.062972
H33   H     H_    0.995983 0.120015 0.317175 0.109836
H34   H     H_    0.871118 0.117849 0.393889 0.073169
H35   H     H_    0.802572 0.645212 0.793505 0.052184
H36   H     H_    0.501354 0.724307 0.227520 -0.193358
H37   H     H_    0.198164 0.201600 0.208156 -0.017086
H38   H     H_    0.312788 0.051908 0.246060 0.086990
H39   H     H_    0.564038 0.771450 0.100986 -0.006105
H40   H     H_    0.203252 0.246748 0.815088 0.133010
H41   H     H_    0.993802 0.189020 0.800496 0.171181
H42   H     H_    0.470077 0.220511 0.599751 0.026194
H43   H     H_    0.052879 0.661787 0.273153 0.085113
H44   H     H_    0.533767 0.240794 0.874177 0.003507
H45   H     H_    0.832114 0.637006 0.656241 0.037895
H46   H     H_    0.411214 0.378861 0.946744 -0.019605
H47   H     H_    0.831073 0.474154 0.653984 0.063624
H48   H     H_    0.870316 0.372541 0.196315 0.118416
H49   H     H_    0.191462 0.956536 0.414952 0.102133
H50   H     H_    0.253972 0.657995 0.529764 0.013127
H51   H     H_    0.261777 0.811730 0.208224 0.105350
H52   H     H_    0.397032 0.890427 0.638590 -0.037057
H53   H     H_    0.624024 0.617549 0.684192 0.057042
H54   H     H_    0.818486 0.863768 0.229499 0.128309
H55   H     H_    0.921869 0.745414 0.769300 0.157106
H56   H     H_    0.715588 0.747306 0.796025 0.122264
O1    O     O_2   0.871960 0.437280 0.322960 -0.444511
O2    O     O_2   0.184455 0.179244 0.539113 -0.463653
O3    O     O_3   0.100485 0.203952 0.673193 -0.582886
O4    O     O_3   0.121410 0.444460 0.412450 -0.468982
O5    O     O_3   0.580430 0.613240 0.540320 -0.476106
O6    O     O_2   0.337390 0.273050 0.457610 -0.481551
O7    O     O_3   0.513859 0.257079 0.334357 -0.598408
O8    O     O_2   0.436933 0.467438 0.754951 -0.495195
O9    O     O_3   0.461449 0.296086 0.745267 -0.635723
O10   O     O_3   0.661450 0.607570 0.372550 -0.400616
O11   O     O_2   0.758572 0.529526 0.246615 -0.490179
O12   O     O_3   0.701812 0.744195 0.658590 -0.651326
O13   O     O_3   0.998548 0.290626 0.310488 -0.648216
O14   O     O_3   0.734519 0.698222 0.252782 -0.585581
O15   O     O_2   0.852310 0.726980 0.542430 -0.418222
O16   O     O_3   0.084010 0.657370 0.410280 -0.486267
O17   O     O_2   0.986351 0.818529 0.456538 -0.406120
O18   O     O_2   0.698506 0.809208 0.377829 -0.546944
O19   O     O_2   0.392298 0.300998 0.218232 -0.574641
O20   O     O_2   0.807393 0.793260 0.096929 -0.587723
O21   O     O_2   0.398265 0.099443 0.626692 -0.592457
O22   O     O_2   0.720239 0.171272 0.864953 -0.580145
O23   O     O_3   0.105247 0.797364 0.328073 -0.592450
O24   O     O_2   0.394844 0.313033 0.028095 -0.551925
O25   O     O_2   0.364225 0.610768 0.440489 -0.573101
O26   O     O_2   0.156467 0.848559 0.624595 -0.557261
O27   O     O_2   0.317750 0.562750 0.677090 -0.490918
O28   O     O_3   0.068300 0.555620 0.587560 -0.485969
O29   O     O_3   0.528270 0.392500 0.627460 -0.484755
O30   O     O_3   0.164098 0.709818 0.688480 -0.622109
O31   O     O_3   0.609290 0.386840 0.459690 -0.437445
O32   O     O_3   0.105700 0.342700 0.589730 -0.492689
P1    P     P_3+3 0.039430 0.410940 0.333230 1.011856
P2    P     P_3+3 0.676770 0.715000 0.563590 1.009586
P3    P     P_3+3 0.124780 0.775982 0.415942 1.033026
P4    P     P_3+3 0.150290 0.589140 0.666780 0.970021
P5    P     P_3+3 0.058559 0.224643 0.586633 0.958963
P6    P     P_3+3 0.641276 0.595441 0.277313 1.022732
P7    P     P_3+3 0.516260 0.272023 0.429910 0.961700
P8    P     P_3+3 0.550023 0.400186 0.721474 0.913781

loop_
_geom_bond_atom_site_label_1
_geom_bond_atom_site_label_2
_ccdc_geom_bond_type
C49   H25   S    
C12   O14   S    
O13   P1    S    
Ba2   O27   S    
O11   P6    D    
C63   H42   S    
C7    C70   A    
C45   H7    S    
C43   P2    S    
Ba1   O4    S    
O5    P2    S    
C41   H22   S    
C27   H17   S    
C1    H54   S    
O17   P3    D    
C46   C55   A    
C43   C44   A    
C63   C67   S    
C54   P3    S    
C24   C25   A    
Ba2   O6    S    
C64   H44   S    
O6    P7    D    
C56   H40   S    
C18   C70   A    
C52   H32   S    
C58   H53   S    
C33   C35   A    
C22   C24   A    
C64   O22   D    
Ba1   O1    S    
C34   H5    S    
C4    H20   S    
C12   C60   S    
C19   C31   A    
O12   P2    S    
C13   C14   A    
C20   C36   A    
C28   H28   S    
C33   P6    S    
Ba1   Ba2   S    
C23   C61   S    
C67   C69   S    
C1    H2    S    
C7    C11   A    
C32   H19   S    
C39   C53   A    
C67   H10   S    
C34   H4    S    
C31   C33   A    
O4    P1    S    
C9    C13   A    
C21   H48   S    
C36   P1    S    
C29   C30   A    
C14   C15   A    
C47   C49   A    
C56   H41   S    
Ba2   O4    S    
O15   P2    D    
O30   P4    S    
C16   H51   S    
C60   H29   S    
C12   H36   S    
Ba1   P1    S    
C69   H13   S    
C19   C20   A    
C62   O20   D    
C39   C41   A    
C57   H23   S    
C45   H8    S    
Ba1   O5    S    
C40   H30   S    
O29   P8    S    
C61   O19   D    
C28   C68   S    
C69   H11   S    
C52   C57   S    
C51   C53   A    
C67   O9    S    
C4    C16   S    
C8    H15   S    
Ba2   O5    S    
C35   H21   S    
C49   C50   A    
C57   H34   S    
C52   H31   S    
C26   C30   A    
C40   H12   S    
C66   O25   D    
C14   H47   S    
Ba2   P4    S    
C37   C38   A    
C3    C5    A    
C2    C21   A    
Ba2   O31   S    
C62   H39   S    
C18   C26   A    
C1    C62   S    
C45   O3    S    
C58   C59   S    
C23   H3    S    
C30   C32   A    
C37   P5    S    
Ba1   O28   S    
C41   C42   A    
C44   C66   S    
C35   C36   A    
Ba1   O15   S    
C15   P4    S    
O14   P6    S    
C50   H49   S    
C64   C69   S    
Ba1   O31   S    
C16   H6    S    
C29   H18   S    
C31   C32   A    
C6    C7    A    
O1    P1    D    
C58   H45   S    
C59   H55   S    
C57   H33   S    
O32   P5    S    
C10   C11   A    
C22   H16   S    
O28   P4    S    
C1    C12   S    
C58   O12   S    
C4    O23   S    
Ba2   O32   S    
C46   C47   A    
Ba1   P2    S    
O23   P3    S    
O16   P3    S    
C34   H38   S    
C13   P8    S    
C56   H9    S    
C16   H27   S    
C3    H14   S    
C66   H50   S    
C2    C70   A    
C50   C51   A    
C51   C54   A    
C28   O30   S    
C40   H1    S    
Ba2   O28   S    
C42   H24   S    
C65   O24   D    
C68   O26   D    
C28   C40   S    
C2    C3    A    
C9    C10   A    
O27   P4    D    
O8    P8    D    
C48   C53   A    
O10   P6    S    
C17   C22   A    
C27   C29   A    
Ba1   O16   S    
C39   C43   A    
C45   C56   S    
O2    P5    D    
C46   P7    S    
Ba2   O29   S    
C38   C48   A    
C55   H26   S    
C10   C17   A    
C15   C17   A    
O31   P7    S    
C59   H56   S    
C63   O21   D    
C23   O7    S    
C65   H46   S    
C4    H43   S    
C5    C6    A    
C8    C9    A    
C23   C34   S    
C5    C65   S    
C68   H52   S    
C38   C42   A    
C52   O13   S    
C18   C19   A    
O3    P5    S    
C24   C27   A    
C6    C8    A    
C47   C48   A    
C60   O18   D    
C59   H35   S    
C44   C54   A    
C25   C26   A    
O7    P7    S    
C20   C21   A    
C11   C25   A    
O9    P8    S    
Ba1   O10   S    
C61   H37   S    
C37   C55   A    
