data_mof_unit_35413.cif
_audit_creation_date              2012-12-11T15:41:22-0500
_audit_creation_method            fapswitch 2.2
_symmetry_space_group_name_H-M    P1
_symmetry_Int_Tables_number       1
_space_group_crystal_system       triclinic
_cell_length_a                    14.846997
_cell_length_b                    15.107923
_cell_length_c                    15.089732
_cell_angle_alpha                 108.851225
_cell_angle_beta                  109.315082
_cell_angle_gamma                 109.466265
_cell_volume                      2630.32687302

loop_
_atom_site_label
_atom_site_type_symbol
_atom_type_description
_atom_site_fract_x
_atom_site_fract_y
_atom_site_fract_z
_atom_type_partial_charge
C1    C     C_R   0.194344 0.993216 0.902025 -0.120708
C2    C     C_R   0.724415 0.869564 0.415165 -0.159757
C3    C     C_R   0.342790 0.270993 0.786160 0.225839
C4    C     C_R   0.639384 0.769017 0.328710 0.216214
C5    C     C_R   0.317761 0.316241 0.865857 -0.001099
C6    C     C_R   0.660379 0.708188 0.253503 0.007929
C7    C     C_R   0.208819 0.272190 0.844672 -0.262618
C8    C     C_R   0.767268 0.745739 0.268968 -0.275544
C9    C     C_R   0.126185 0.180892 0.747202 0.242290
C10   C     C_R   0.851410 0.846129 0.355114 0.299677
C11   C     C_R   0.151869 0.132607 0.670509 -0.122199
C12   C     C_R   0.750610 0.936214 0.027973 -0.071263
C13   C     C_R   0.829709 0.908364 0.427281 -0.118234
C14   C     C_R   0.407340 0.506860 0.980873 -0.207278
C15   C     C_R   0.566396 0.511209 0.147659 -0.210321
C16   C     C_R   0.800762 0.207893 0.299576 0.161908
C17   C     C_R   0.230941 0.776266 0.686377 0.191120
C18   C     C_R   0.492679 0.604283 0.070002 0.074012
C19   C     C_R   0.484604 0.414385 0.054483 0.071612
C20   C     C_R   0.571333 0.607180 0.156215 0.090321
C21   C     C_R   0.403136 0.412313 0.970653 0.086972
C22   C     C_R   0.037958 0.463619 0.393225 -0.144816
C23   C     C_R   0.857411 0.304162 0.305846 0.005975
C24   C     C_R   0.044178 0.502290 0.590375 -0.150544
C25   C     C_R   0.125005 0.555207 0.486569 -0.119625
C26   C     C_R   0.958558 0.411702 0.498340 -0.126650
C27   C     C_R   0.125699 0.575219 0.584114 0.156545
C28   C     C_R   0.954656 0.393190 0.399947 0.158606
C29   C     C_R   0.540037 0.157268 0.599161 -0.142230
C30   C     C_R   0.450263 0.955639 0.424150 -0.120351
C31   C     C_R   0.540462 0.150767 0.505617 -0.179886
C32   C     C_R   0.449093 0.961823 0.515772 -0.144239
C33   C     C_R   0.494869 0.049475 0.418729 0.130387
C34   C     C_R   0.205095 0.675926 0.678822 -0.017556
C35   C     C_R   0.495019 0.062276 0.603294 0.106073
C36   C     C_R   0.960531 0.836564 0.935010 -0.167243
C37   C     C_R   0.870793 0.940295 0.842524 -0.133459
C38   C     C_R   0.872546 0.843696 0.942889 -0.147005
C39   C     C_R   0.959315 0.933608 0.835452 -0.123861
C40   C     C_R   0.405703 0.964600 0.220865 0.042578
C41   C     C_R   0.592432 0.094191 0.790843 0.032014
C42   C     C_R   0.835397 0.906108 0.906945 0.124118
C43   C     C_R   0.012128 0.892695 0.892320 0.122402
C44   C     C_R   0.588325 0.312722 0.058720 -0.098228
C45   C     C_R   0.495751 0.037937 0.321752 -0.036344
C46   C     C_R   0.408530 0.702101 0.003605 -0.142406
C47   C     C_R   0.589226 0.060395 0.312645 -0.116059
C48   C     C_R   0.409870 0.003544 0.701472 -0.122624
C49   C     C_R   0.404948 0.217150 0.974916 -0.110266
C50   C     C_R   0.591057 0.789633 0.091533 -0.121622
C51   C     C_R   0.798846 0.303369 0.213010 -0.183749
C52   C     C_R   0.244158 0.687224 0.780468 -0.164880
C53   C     C_R   0.191841 0.898380 0.986839 -0.123737
C54   C     C_R   0.749921 0.026231 0.935721 -0.121712
C55   C     C_R   0.128112 0.927280 0.925865 0.044086
C56   C     C_R   0.500419 0.062244 0.698971 0.009276
C57   C     C_R   0.776965 0.950875 0.951711 0.025290
C58   C     C_R   0.293621 0.898788 0.197270 0.086328
C59   C     C_R   0.246310 0.786473 0.150507 -0.178340
C60   C     C_R   0.140133 0.724339 0.129332 -0.111672
C61   C     C_R   0.080346 0.773823 0.153037 -0.087809
C62   C     C_R   0.127097 0.885533 0.198783 -0.073080
C63   C     C_R   0.234410 0.948229 0.223524 -0.122667
C64   C     C_R   0.704145 0.183548 0.833779 0.080437
C65   C     C_R   0.751191 0.188258 0.767171 -0.154645
C66   C     C_R   0.850365 0.278166 0.804250 -0.053802
C67   C     C_R   0.493098 0.319161 0.039830 0.064649
C68   C     C_R   0.907294 0.361233 0.910078 -0.077509
C69   C     C_R   0.864392 0.355090 0.978648 -0.116218
C70   C     C_R   0.763382 0.267158 0.940605 -0.107104
C71   C     C_R   0.499133 0.697837 0.060606 0.083737
C72   C     C_R   0.259662 0.177930 0.689362 -0.168758
H1    H     H_    0.167879 0.017783 0.842887 0.117759
H2    H     H_    0.042984 0.518145 0.665206 0.118091
H3    H     H_    0.189217 0.611993 0.482619 0.143226
H4    H     H_    0.892487 0.358806 0.503495 0.131189
H5    H     H_    0.578055 0.235013 0.668500 0.171608
H6    H     H_    0.417568 0.877516 0.357794 0.162666
H7    H     H_    0.576529 0.223256 0.501043 0.135296
H8    H     H_    0.415837 0.888378 0.519796 0.151610
H9    H     H_    0.993921 0.796496 0.972187 0.121048
H10   H     H_    0.838247 0.981572 0.806355 0.146030
H11   H     H_    0.841843 0.809180 0.986295 0.116052
H12   H     H_    0.761859 0.884748 0.060894 0.099267
H13   H     H_    0.992523 0.969927 0.794703 0.152580
H14   H     H_    0.671722 0.378309 0.103969 0.103423
H15   H     H_    0.324161 0.650227 0.978972 0.093317
H16   H     H_    0.672630 0.109257 0.377626 0.144863
H17   H     H_    0.327721 0.982299 0.649226 0.163250
H18   H     H_    0.319608 0.192924 0.947893 0.116765
H19   H     H_    0.675415 0.816862 0.144708 0.123339
H20   H     H_    0.826237 0.362651 0.188798 0.106532
H21   H     H_    0.231883 0.624652 0.802586 0.115738
H22   H     H_    0.159789 0.830154 0.997900 0.116728
H23   H     H_    0.278274 0.141402 0.628286 0.173531
H24   H     H_    0.760259 0.056489 0.882467 0.117994
H25   H     H_    0.088089 0.061005 0.595977 0.181876
H26   H     H_    0.894372 0.987119 0.491925 0.185323
H27   H     H_    0.291850 0.747490 0.131361 0.139030
H28   H     H_    0.103838 0.637877 0.093591 0.115755
H29   H     H_    0.997351 0.725599 0.134678 0.127746
H30   H     H_    0.079766 0.923690 0.213631 0.155141
H31   H     H_    0.269957 0.034716 0.259528 0.127608
H32   H     H_    0.710888 0.123153 0.686005 0.145594
H33   H     H_    0.883385 0.283339 0.750927 0.145796
H34   H     H_    0.708909 0.917799 0.472655 0.173366
H35   H     H_    0.984642 0.430119 0.938915 0.100145
H36   H     H_    0.908582 0.419251 0.060937 0.107836
H37   H     H_    0.731396 0.266271 0.994454 0.116364
H38   H     H_    0.188511 0.308492 0.904369 0.166260
H39   H     H_    0.784046 0.698943 0.211677 0.158981
H40   H     H_    0.347818 0.503854 0.912921 0.138362
H41   H     H_    0.628293 0.512235 0.211956 0.141636
H42   H     H_    0.034285 0.448820 0.316579 0.123888
I1    I     I_    0.502920 0.342667 0.807287 -0.481482
I2    I     I_    0.482810 0.709698 0.317416 -0.489735
I3    I     I_    0.963267 0.118905 0.716507 -0.564670
I4    I     I_    0.009391 0.905079 0.372710 -0.450394
I5    I     I_    0.874278 0.136792 0.378127 -0.459595
I6    I     I_    0.132832 0.801527 0.569458 -0.445026
N1    N     N_R   0.293810 0.002730 0.945950 -0.044744
N2    N     N_R   0.443210 0.997250 0.791090 -0.049765
N3    N     N_R   0.443180 0.152110 0.945950 -0.038700
N4    N     N_R   0.556820 0.847890 0.054050 -0.041681
N5    N     N_R   0.706170 0.208950 0.152090 -0.055245
N6    N     N_R   0.293830 0.791050 0.847910 -0.051554
N7    N     N_R   0.293800 0.945910 0.002760 -0.047064
N8    N     N_R   0.706200 0.054090 0.997240 -0.047688
N9    N     N_R   0.706190 0.997270 0.054050 -0.036263
N10   N     N_R   0.706160 0.152130 0.208910 -0.058808
N11   N     N_R   0.293840 0.847870 0.791090 -0.058549
N12   N     N_R   0.443140 0.945920 0.152090 -0.061938
N13   N     N_R   0.556860 0.054080 0.847910 -0.065507
N14   N     N_R   0.556830 0.208940 0.002760 -0.050117
N15   N     N_R   0.443170 0.791060 0.997240 -0.042027
N16   N     N_R   0.556790 0.002750 0.208910 -0.040710
Ni1   Ni    Ni4+2 0.369690 0.999990 0.869700 0.235456
Ni2   Ni    Ni4+2 0.630310 0.000010 0.130300 0.251376
Ni3   Ni    Ni4+2 0.369670 0.869670 0.000000 0.206771
Ni4   Ni    Ni4+2 0.630330 0.130330 0.000000 0.214379

loop_
_geom_bond_atom_site_label_1
_geom_bond_atom_site_label_2
_ccdc_geom_bond_type
C66   C68   A    
C38   H11   S    
C17   N11   A    
C33   C45   S    
C14   C18   A    
C61   H29   S    
C24   C27   A    
C49   H18   S    
C40   N12   A    
N8    N9    A    
C41   N13   A    
C41   C56   A    
N12   Ni3   S    
C14   H40   S    
N11   Ni1   S    
C14   C21   A    
N4    Ni2   S    
C19   C21   A    
C24   C26   A    
C38   C42   A    
N14   Ni4   S    
C47   N16   A    
C49   N3    A    
C58   C63   A    
C59   H27   S    
C12   H12   S    
C48   C56   A    
N3    Ni1   S    
N1    Ni1   S    
C37   C42   A    
C2    C13   A    
C53   N7    A    
C17   I6    S    
C46   N15   A    
C15   C19   A    
C72   H23   S    
N5    N10   A    
N9    Ni2   S    
C68   C69   A    
C22   C25   A    
C26   H4    S    
C15   H41   S    
C19   C67   S    
C68   H35   S    
C64   C70   A    
C16   N10   A    
C54   H24   S    
C61   C62   A    
N4    N15   A    
C45   C47   A    
C53   H22   S    
C59   C60   A    
N5    Ni4   S    
C22   C28   A    
C15   C20   A    
N7    Ni3   S    
C44   H14   S    
C42   C57   S    
C69   H36   S    
C53   C55   A    
C27   C34   S    
C44   N14   A    
C40   C45   A    
C48   N2    A    
N6    Ni3   S    
C40   C58   S    
C12   N9    A    
N3    N14   A    
C51   N5    A    
C32   C35   A    
C50   N4    A    
C4    C6    A    
C8    H39   S    
C5    C7    A    
C52   N6    A    
C11   C72   A    
C39   C43   A    
C3    C5    A    
C58   C59   A    
C54   N8    A    
C2    H34   S    
C60   C61   A    
C25   H3    S    
C2    C4    A    
C50   C71   A    
N2    N13   A    
C62   C63   A    
C10   I4    S    
C70   H37   S    
C51   H20   S    
C32   H8    S    
C23   C51   A    
C36   H9    S    
N12   N16   A    
C31   C33   A    
C36   C43   A    
C29   H5    S    
C52   H21   S    
C23   C28   S    
C31   H7    S    
C9    C11   A    
C46   C71   A    
C12   C57   A    
C63   H31   S    
C16   C23   A    
C48   H17   S    
C37   H10   S    
C16   I5    S    
C17   C34   A    
C39   H13   S    
C66   H33   S    
N10   Ni2   S    
N16   Ni2   S    
C46   H15   S    
C43   C55   S    
C18   C71   S    
C7    C9    A    
C29   C35   A    
C49   C67   A    
C30   C33   A    
C35   C56   S    
C34   C52   A    
C4    I2    S    
C8    C10   A    
N2    Ni1   S    
C60   H28   S    
C10   C13   A    
C6    C8    A    
N1    N7    A    
C25   C27   A    
C6    C20   S    
N15   Ni3   S    
C26   C28   A    
C65   H32   S    
C7    H38   S    
C11   H25   S    
C1    H1    S    
C64   C65   A    
C36   C38   A    
C3    C72   A    
C1    C55   A    
C29   C31   A    
C3    I1    S    
C47   H16   S    
C30   C32   A    
C24   H2    S    
C13   H26   S    
N6    N11   A    
C18   C20   A    
N8    Ni4   S    
C69   C70   A    
C1    N1    A    
C30   H6    S    
C50   H19   S    
C22   H42   S    
C5    C21   S    
N13   Ni4   S    
C37   C39   A    
C65   C66   A    
C44   C67   A    
C41   C64   S    
C9    I3    S    
C62   H30   S    
C54   C57   A    
