data_mof_unit_50540.cif
_audit_creation_date              2012-12-11T15:25:37-0500
_audit_creation_method            fapswitch 2.2
_symmetry_space_group_name_H-M    P1
_symmetry_Int_Tables_number       1
_space_group_crystal_system       triclinic
_cell_length_a                    24.930657
_cell_length_b                    17.0866
_cell_length_c                    15.676659
_cell_angle_alpha                 90.001187
_cell_angle_beta                  49.353114
_cell_angle_gamma                 90.000374
_cell_volume                      5066.81465443

loop_
_atom_site_label
_atom_site_type_symbol
_atom_type_description
_atom_site_fract_x
_atom_site_fract_y
_atom_site_fract_z
_atom_type_partial_charge
C1    C     C_R   0.330532 0.097510 0.812718 0.545591
C2    C     C_2   0.351575 0.739000 0.855879 0.525533
C3    C     C_3   0.163526 0.039161 0.205109 -0.012719
C4    C     C_3   0.673319 0.278614 0.014041 -0.184020
C5    C     C_3   0.336594 0.539127 0.794989 -0.013513
C6    C     C_3   0.326775 0.278763 0.985764 -0.184259
C7    C     C_3   0.663534 0.539160 0.205123 -0.012761
C8    C     C_3   0.453312 0.685551 0.690615 -0.197662
C9    C     C_3   0.667711 0.971341 0.003854 -0.144326
C10   C     C_3   0.546687 0.685538 0.309326 -0.197575
C11   C     C_3   0.332116 0.971399 0.996323 -0.144894
C12   C     C_3   0.953328 0.185573 0.690393 -0.197481
C13   C     C_2   0.299778 0.099529 0.003257 0.440648
C14   C     C_3   0.167837 0.471381 0.003719 -0.144724
C15   C     C_3   0.046685 0.185542 0.309318 -0.197598
C16   C     C_3   0.832113 0.471393 0.996314 -0.144907
C17   C     C_2   0.648436 0.739002 0.144088 0.525537
C18   C     C_2   0.200236 0.599495 0.996737 0.440770
C19   C     C_2   0.851628 0.238961 0.855750 0.525480
C20   C     C_2   0.799780 0.599526 0.003256 0.440656
C21   C     C_2   0.148436 0.239007 0.144081 0.525545
C22   C     C_2   0.762367 0.137695 0.917629 0.376942
C23   C     C_2   0.282005 0.717754 0.931541 0.403287
C24   C     C_2   0.237742 0.137904 0.082381 0.376946
C25   C     C_R   0.654490 0.862599 0.228649 0.414811
C26   C     C_2   0.718012 0.717784 0.068429 0.403480
C27   C     C_2   0.262287 0.637845 0.917620 0.376935
C28   C     C_2   0.782071 0.217659 0.931446 0.402968
C29   C     C_2   0.737745 0.637903 0.082384 0.376953
C30   C     C_2   0.218011 0.217787 0.068422 0.403454
C31   C     C_R   0.586301 0.145121 0.593460 -0.139053
C32   C     C_R   0.389578 0.890792 0.405872 -0.080469
C33   C     C_R   0.413698 0.145118 0.406541 -0.139181
C34   C     C_R   0.610420 0.890792 0.594130 -0.080463
C35   C     C_R   0.086298 0.645122 0.593461 -0.139159
C36   C     C_R   0.669474 0.097488 0.187283 0.545740
C37   C     C_R   0.889578 0.390799 0.405869 -0.080457
C38   C     C_R   0.913699 0.645119 0.406542 -0.139196
C39   C     C_R   0.110424 0.390796 0.594127 -0.080459
C40   C     C_R   0.659063 0.146512 0.407747 0.466299
C41   C     C_R   0.312292 0.893832 0.590702 0.580784
C42   C     C_R   0.340927 0.146508 0.592255 0.466389
C43   C     C_R   0.687709 0.893836 0.409301 0.580769
C44   C     C_R   0.159060 0.646515 0.407749 0.466356
C45   C     C_R   0.812288 0.393849 0.590697 0.580704
C46   C     C_R   0.840932 0.646510 0.592256 0.466387
C47   C     C_R   0.345505 0.862606 0.771360 0.414744
C48   C     C_R   0.187712 0.393843 0.409298 0.580755
C49   C     C_R   0.578836 0.102327 0.193607 0.436467
C50   C     C_R   0.434361 0.861659 0.770611 0.418405
C51   C     C_R   0.421178 0.102346 0.806375 0.436601
C52   C     C_R   0.565638 0.861660 0.229386 0.418300
C53   C     C_R   0.078826 0.602340 0.193620 0.436523
C54   C     C_R   0.934368 0.361647 0.770590 0.418501
C55   C     C_R   0.921179 0.602346 0.806374 0.436550
C56   C     C_R   0.065637 0.361660 0.229387 0.418341
C57   C     C_R   0.348288 0.114117 0.878473 -0.342680
C58   C     C_R   0.830533 0.597512 0.812718 0.545623
C59   C     C_R   0.627587 0.821316 0.187933 -0.278334
C60   C     C_R   0.651733 0.114067 0.121507 -0.342687
C61   C     C_R   0.372406 0.821323 0.812075 -0.278251
C62   C     C_R   0.848289 0.614119 0.878473 -0.342652
C63   C     C_R   0.127590 0.321321 0.187924 -0.278311
C64   C     C_R   0.151718 0.614101 0.121521 -0.342687
C65   C     C_R   0.872414 0.321309 0.812050 -0.277962
C66   C     C_R   0.636004 0.189809 0.500561 0.002830
C67   C     C_R   0.323167 0.869917 0.497583 -0.014012
C68   C     C_R   0.363990 0.189806 0.499440 0.002805
C69   C     C_R   0.154494 0.362604 0.228637 0.414803
C70   C     C_R   0.676831 0.869920 0.502421 -0.013970
C71   C     C_R   0.136000 0.689813 0.500565 0.002808
C72   C     C_R   0.823165 0.369934 0.497576 -0.013976
C73   C     C_R   0.863993 0.689808 0.499441 0.002825
C74   C     C_R   0.176836 0.369929 0.502415 -0.013942
C75   C     C_R   0.250972 0.210722 0.552489 -0.393902
C76   C     C_R   0.792136 0.858554 0.452515 -0.336936
C77   C     C_R   0.749048 0.210768 0.447402 -0.393980
C78   C     C_R   0.207853 0.858549 0.547516 -0.337062
C79   C     C_R   0.750961 0.710738 0.552543 -0.393944
C80   C     C_R   0.169469 0.597502 0.187282 0.545664
C81   C     C_R   0.292129 0.358567 0.452549 -0.337009
C82   C     C_R   0.249039 0.710753 0.447430 -0.393949
C83   C     C_R   0.707845 0.358552 0.547526 -0.337176
C84   C     C_R   0.702651 0.755559 0.559138 0.634692
C85   C     C_R   0.340259 0.313590 0.448754 0.633891
C86   C     C_R   0.297350 0.755572 0.440833 0.634665
C87   C     C_R   0.659710 0.313570 0.551331 0.633874
C88   C     C_R   0.202665 0.255541 0.559070 0.634672
C89   C     C_R   0.840268 0.813578 0.448717 0.633953
C90   C     C_R   0.797357 0.255591 0.440806 0.634618
C91   C     C_R   0.845508 0.362600 0.771349 0.414447
C92   C     C_R   0.159720 0.813576 0.551314 0.633908
C93   C     C_R   0.724729 0.828424 0.505699 -0.067262
C94   C     C_R   0.317859 0.240661 0.501773 -0.111841
C95   C     C_R   0.275268 0.828426 0.494303 -0.067241
C96   C     C_R   0.682136 0.240675 0.498216 -0.111727
C97   C     C_R   0.224733 0.328424 0.505685 -0.067252
C98   C     C_R   0.817860 0.740664 0.501778 -0.111832
C99   C     C_R   0.775267 0.328441 0.494293 -0.067195
C100  C     C_R   0.182133 0.740672 0.498224 -0.111824
C101  C     C_3   0.597643 0.708532 0.719711 -0.194221
C102  C     C_2   0.700268 0.099420 0.996730 0.441012
C103  C     C_3   0.447292 0.351201 0.284379 -0.222351
C104  C     C_3   0.402359 0.708580 0.280224 -0.194179
C105  C     C_3   0.552754 0.351373 0.715739 -0.222558
C106  C     C_3   0.097645 0.208456 0.719561 -0.194099
C107  C     C_3   0.947294 0.851166 0.284302 -0.222393
C108  C     C_3   0.902367 0.208605 0.280189 -0.194138
C109  C     C_3   0.052701 0.851152 0.715755 -0.222575
C110  C     C_3   0.173245 0.778710 0.014151 -0.184241
C111  C     C_3   0.836818 0.038973 0.795322 -0.014763
C112  C     C_3   0.826774 0.778760 0.985777 -0.184414
H1    H     H_    0.561680 0.158489 0.679160 0.183628
H2    H     H_    0.806691 0.916359 0.415200 0.191577
H3    H     H_    0.389194 0.965263 0.924622 0.207666
H4    H     H_    0.994500 0.229685 0.662489 0.182409
H5    H     H_    0.928508 0.197952 0.653074 0.154092
H6    H     H_    0.980808 0.128453 0.656674 0.169797
H7    H     H_    0.199504 0.459365 0.029484 0.112238
H8    H     H_    0.182073 0.426099 0.941277 0.162937
H9    H     H_    0.110753 0.465279 0.075375 0.207686
H10   H     H_    0.005523 0.229629 0.337089 0.182530
H11   H     H_    0.071389 0.197952 0.346814 0.154025
H12   H     H_    0.019207 0.128418 0.342979 0.169813
H13   H     H_    0.763114 0.151573 0.414657 0.185839
H14   H     H_    0.800405 0.459400 0.970620 0.112266
H15   H     H_    0.817881 0.426121 0.058762 0.162870
H16   H     H_    0.889185 0.465251 0.924620 0.207630
H17   H     H_    0.193295 0.916348 0.584853 0.191570
H18   H     H_    0.736906 0.651536 0.585258 0.185807
H19   H     H_    0.306676 0.416383 0.415268 0.191561
H20   H     H_    0.263099 0.651556 0.414695 0.185829
H21   H     H_    0.693288 0.416348 0.584869 0.191564
H22   H     H_    0.266751 0.044443 0.803991 0.323685
H23   H     H_    0.743332 0.897956 0.171612 0.325520
H24   H     H_    0.733238 0.044424 0.196053 0.323658
H25   H     H_    0.409007 0.894536 0.321181 0.193552
H26   H     H_    0.256660 0.897963 0.828423 0.325521
H27   H     H_    0.766751 0.544435 0.803998 0.323663
H28   H     H_    0.243322 0.397971 0.171643 0.325558
H29   H     H_    0.233246 0.544435 0.196020 0.323662
H30   H     H_    0.756684 0.397951 0.828321 0.325555
H31   H     H_    0.726358 0.220661 0.293461 0.326455
H32   H     H_    0.252953 0.965134 0.711722 0.291327
H33   H     H_    0.273612 0.220644 0.706541 0.326479
H34   H     H_    0.747043 0.965149 0.288302 0.291295
H35   H     H_    0.226363 0.720661 0.293464 0.326452
H36   H     H_    0.438318 0.158479 0.320841 0.183587
H37   H     H_    0.752966 0.465180 0.711681 0.291311
H38   H     H_    0.773618 0.720650 0.706545 0.326492
H39   H     H_    0.247036 0.465170 0.288316 0.291297
H40   H     H_    0.565451 0.120627 0.087422 0.338569
H41   H     H_    0.452028 0.804010 0.855459 0.325986
H42   H     H_    0.434595 0.120666 0.912520 0.338615
H43   H     H_    0.547970 0.804008 0.144540 0.325955
H44   H     H_    0.065418 0.620649 0.087463 0.338599
H45   H     H_    0.952053 0.303967 0.855395 0.326014
H46   H     H_    0.934595 0.620661 0.912520 0.338608
H47   H     H_    0.590988 0.894534 0.678823 0.193587
H48   H     H_    0.047978 0.304023 0.144519 0.325959
H49   H     H_    0.596100 0.759423 0.765701 0.139496
H50   H     H_    0.618130 0.655739 0.731591 0.142676
H51   H     H_    0.542464 0.695384 0.758006 0.197732
H52   H     H_    0.429315 0.402979 0.266013 0.154438
H53   H     H_    0.446533 0.297743 0.244458 0.129986
H54   H     H_    0.503053 0.361771 0.245303 0.163974
H55   H     H_    0.403908 0.759494 0.234260 0.139474
H56   H     H_    0.381863 0.655807 0.268316 0.142695
H57   H     H_    0.457537 0.695411 0.241920 0.197702
H58   H     H_    0.061680 0.658484 0.679161 0.183536
H59   H     H_    0.570668 0.403385 0.733794 0.154512
H60   H     H_    0.553717 0.298139 0.755763 0.130158
H61   H     H_    0.496935 0.361680 0.754972 0.163872
H62   H     H_    0.096070 0.259328 0.765609 0.139470
H63   H     H_    0.118131 0.155657 0.731430 0.142632
H64   H     H_    0.042478 0.195300 0.757799 0.197827
H65   H     H_    0.929318 0.902949 0.265940 0.154450
H66   H     H_    0.946511 0.797707 0.244406 0.129973
H67   H     H_    0.003062 0.861721 0.245196 0.163963
H68   H     H_    0.903912 0.259522 0.234230 0.139474
H69   H     H_    0.909011 0.394542 0.321175 0.193572
H70   H     H_    0.881870 0.155833 0.268282 0.142685
H71   H     H_    0.957546 0.195436 0.241879 0.197700
H72   H     H_    0.070677 0.902939 0.734111 0.154446
H73   H     H_    0.053500 0.797695 0.755633 0.130048
H74   H     H_    0.996928 0.861698 0.754883 0.163882
H75   H     H_    0.125880 0.754988 0.095546 0.126819
H76   H     H_    0.180595 0.750158 0.943298 0.165738
H77   H     H_    0.161542 0.841338 0.014217 0.174725
H78   H     H_    0.848657 0.033181 0.852489 0.122126
H79   H     H_    0.887705 0.034478 0.707857 0.131103
H80   H     H_    0.938318 0.658481 0.320843 0.183555
H81   H     H_    0.803988 0.989138 0.807628 0.150001
H82   H     H_    0.874132 0.755047 0.904362 0.126856
H83   H     H_    0.819450 0.750204 0.056605 0.165747
H84   H     H_    0.838469 0.841391 0.985722 0.174660
H85   H     H_    0.152384 0.032516 0.147148 0.120793
H86   H     H_    0.112299 0.035076 0.292238 0.130488
H87   H     H_    0.196129 0.989602 0.194250 0.150287
H88   H     H_    0.625920 0.254945 0.095447 0.126817
H89   H     H_    0.680673 0.250029 0.943199 0.165604
H90   H     H_    0.661664 0.341249 0.014032 0.174799
H91   H     H_    0.090993 0.394538 0.678819 0.193552
H92   H     H_    0.348008 0.532779 0.852644 0.121291
H93   H     H_    0.387691 0.534913 0.707719 0.130698
H94   H     H_    0.303907 0.489462 0.806368 0.150219
H95   H     H_    0.374130 0.255047 0.904351 0.126862
H96   H     H_    0.319452 0.250212 0.056593 0.165719
H97   H     H_    0.338474 0.341395 0.985700 0.174709
H98   H     H_    0.652399 0.532503 0.147155 0.120775
H99   H     H_    0.612304 0.535083 0.292248 0.130472
H100  H     H_    0.696133 0.489605 0.194283 0.150287
H101  H     H_    0.494480 0.729643 0.662802 0.182527
H102  H     H_    0.236925 0.151511 0.585172 0.185781
H103  H     H_    0.428576 0.697951 0.653168 0.154074
H104  H     H_    0.480786 0.628425 0.656945 0.169775
H105  H     H_    0.699185 0.959325 0.029973 0.111979
H106  H     H_    0.682071 0.926024 0.941377 0.162946
H107  H     H_    0.610578 0.965284 0.075302 0.207809
H108  H     H_    0.505526 0.729626 0.337096 0.182544
H109  H     H_    0.571392 0.697949 0.346821 0.154036
H110  H     H_    0.519209 0.628414 0.342989 0.169781
H111  H     H_    0.300406 0.959398 0.970625 0.112300
H112  H     H_    0.317883 0.926129 0.058781 0.162885
N1    N     N_R   0.388930 0.078160 0.705470 -0.133777
N2    N     N_R   0.419500 0.922160 0.443350 -0.073498
N3    N     N_R   0.419500 0.077840 0.443350 -0.065405
N4    N     N_R   0.580500 0.922160 0.556650 -0.073507
N5    N     N_R   0.080500 0.577840 0.556650 -0.065406
N6    N     N_R   0.919500 0.422160 0.443350 -0.073504
N7    N     N_R   0.919500 0.577840 0.443350 -0.065402
N8    N     N_R   0.080500 0.422160 0.556650 -0.073495
N9    N     N_R   0.626210 0.077590 0.443410 -0.104412
N10   N     N_R   0.373790 0.922410 0.556590 -0.128109
N11   N     N_R   0.373790 0.077590 0.556590 -0.104405
N12   N     N_R   0.611070 0.921840 0.294530 -0.144854
N13   N     N_R   0.626210 0.922410 0.443410 -0.128118
N14   N     N_R   0.126210 0.577590 0.443410 -0.104411
N15   N     N_R   0.873790 0.422410 0.556590 -0.128103
N16   N     N_R   0.873790 0.577590 0.556590 -0.104408
N17   N     N_R   0.126210 0.422410 0.443410 -0.128130
N18   N     N_R   0.554800 0.077270 0.294580 -0.092904
N19   N     N_R   0.445200 0.922730 0.705420 -0.091707
N20   N     N_R   0.445200 0.077270 0.705420 -0.092935
N21   N     N_R   0.554800 0.922730 0.294580 -0.091690
N22   N     N_R   0.054800 0.577270 0.294580 -0.092919
N23   N     N_R   0.611070 0.078160 0.294530 -0.133763
N24   N     N_R   0.945200 0.422730 0.705420 -0.091727
N25   N     N_R   0.945200 0.577270 0.705420 -0.092930
N26   N     N_R   0.054800 0.422730 0.294580 -0.091696
N27   N     N_R   0.388930 0.921840 0.705470 -0.144835
N28   N     N_R   0.888930 0.578160 0.705470 -0.133776
N29   N     N_R   0.111070 0.421840 0.294530 -0.144864
N30   N     N_R   0.111070 0.578160 0.294530 -0.133770
N31   N     N_R   0.888930 0.421840 0.705470 -0.144828
N32   N     N_R   0.580500 0.077840 0.556650 -0.065432
Ni1   Ni    Ni4+2 0.382710 0.000000 0.629850 0.187454
Ni2   Ni    Ni4+2 0.617290 0.000000 0.370150 0.187441
Ni3   Ni    Ni4+2 0.882710 0.500000 0.629850 0.187434
Ni4   Ni    Ni4+2 0.117290 0.500000 0.370150 0.187432
Ni5   Ni    Ni4+2 0.513020 0.000000 0.629850 0.249843
Ni6   Ni    Ni4+2 0.486980 0.000000 0.370150 0.249766
Ni7   Ni    Ni4+2 0.013020 0.500000 0.629850 0.249834
Ni8   Ni    Ni4+2 0.986980 0.500000 0.370150 0.249819
O1    O     O_3   0.263391 0.073248 0.861786 -0.755113
O2    O     O_3   0.246556 0.915539 0.687038 -0.757275
O3    O     O_3   0.285653 0.164759 0.702776 -0.758286
O4    O     O_3   0.753446 0.915551 0.312976 -0.757288
O5    O     O_3   0.214324 0.664773 0.297226 -0.758297
O6    O     O_3   0.746554 0.415585 0.687011 -0.757347
O7    O     O_3   0.785660 0.664762 0.702778 -0.758272
O8    O     O_3   0.253446 0.415573 0.312981 -0.757292
O9    O     O_3   0.540242 0.092807 0.159907 -0.752500
O10   O     O_3   0.474817 0.847002 0.799558 -0.776168
O11   O     O_3   0.459768 0.092795 0.840078 -0.752267
O12   O     O_3   0.717682 0.847597 0.201215 -0.724185
O13   O     O_3   0.525180 0.847000 0.200445 -0.776302
O14   O     O_3   0.040234 0.592795 0.159918 -0.752335
O15   O     O_3   0.974836 0.346970 0.799509 -0.776136
O16   O     O_3   0.959768 0.592790 0.840079 -0.752268
O17   O     O_3   0.025185 0.347011 0.200430 -0.776202
O18   O     O_3   0.637104 0.725280 0.604555 -0.617905
O19   O     O_3   0.406711 0.341533 0.401203 -0.613005
O20   O     O_3   0.362904 0.725296 0.395388 -0.617898
O21   O     O_3   0.593222 0.341459 0.598990 -0.613080
O22   O     O_3   0.137137 0.225246 0.604410 -0.617862
O23   O     O_3   0.736609 0.073219 0.138240 -0.755301
O24   O     O_3   0.906731 0.841511 0.401124 -0.612960
O25   O     O_3   0.862914 0.225321 0.395352 -0.617907
O26   O     O_3   0.093250 0.841502 0.598935 -0.613014
O27   O     O_3   0.232601 0.774250 0.007455 -0.643234
O28   O     O_3   0.804481 0.111028 0.807062 -0.594736
O29   O     O_3   0.767398 0.774294 0.992523 -0.643239
O30   O     O_3   0.195694 0.111435 0.193041 -0.595124
O31   O     O_3   0.732645 0.274114 0.007422 -0.643210
O32   O     O_3   0.304349 0.611324 0.806983 -0.594980
O33   O     O_3   0.267398 0.274297 0.992514 -0.643238
O34   O     O_3   0.282316 0.847610 0.798790 -0.724228
O35   O     O_3   0.695701 0.611437 0.193045 -0.595129
O36   O     O_3   0.402796 0.680445 0.809289 -0.650309
O37   O     O_3   0.680635 0.045595 0.954718 -0.591653
O38   O     O_3   0.597239 0.680420 0.190657 -0.650164
O39   O     O_3   0.319417 0.045693 0.045241 -0.591814
O40   O     O_3   0.902900 0.180464 0.809073 -0.650521
O41   O     O_3   0.180597 0.545665 0.954744 -0.591750
O42   O     O_3   0.097237 0.180427 0.190649 -0.650163
O43   O     O_3   0.819420 0.545686 0.045233 -0.591811
O44   O     O_3   0.763391 0.573252 0.861788 -0.755088
O45   O     O_3   0.217691 0.347608 0.201190 -0.724233
O46   O     O_3   0.236609 0.573239 0.138221 -0.755160
O47   O     O_3   0.782325 0.347592 0.798760 -0.724410
O48   O     O_3   0.714325 0.164771 0.297224 -0.758286

loop_
_geom_bond_atom_site_label_1
_geom_bond_atom_site_label_2
_ccdc_geom_bond_type
C9    H106  S    
N7    Ni8   S    
C111  H79   S    
N8    Ni7   S    
C51   N20   A    
H31   O48   S    
C5    H92   S    
C7    H100  S    
C41   C67   A    
C54   C65   A    
C49   C60   A    
C80   N30   A    
C101  O18   S    
C112  O29   S    
N15   Ni3   S    
N17   Ni4   S    
C78   H17   S    
C53   C64   A    
C55   C62   A    
C39   C74   A    
C33   N3    A    
C106  H63   S    
C55   N25   A    
C26   O29   S    
C51   C57   A    
C11   H3    S    
C88   C97   A    
N26   N29   A    
C49   O9    S    
C14   H9    S    
C73   C98   S    
C109  O26   S    
C53   O14   S    
N8    N17   A    
C48   C74   A    
C101  H51   S    
C70   C93   S    
C11   H111  S    
C40   O48   S    
C79   H18   S    
C56   O17   S    
H38   O7    S    
C112  H83   S    
C80   O46   S    
H28   O45   S    
C12   O40   S    
C37   H69   S    
C50   O10   S    
N25   Ni7   S    
N26   Ni8   S    
C31   N32   A    
C109  H72   S    
C20   O43   S    
C7    H98   S    
C77   H13   S    
N4    Ni5   S    
C21   C30   D    
C65   C91   A    
C105  H59   S    
C107  H67   S    
C87   O21   S    
C3    O30   S    
C40   N9    A    
C8    H104  S    
C44   N14   A    
C10   O38   S    
C24   O30   S    
C38   N7    A    
N12   Ni2   S    
C29   O35   S    
N29   Ni4   S    
C18   C64   S    
C4    H89   S    
C91   N31   A    
C84   C93   A    
N16   Ni3   S    
C68   C94   S    
C86   C95   A    
C10   H110  S    
C12   H5    S    
C17   O38   S    
C14   H7    S    
C85   O19   S    
C92   O26   S    
N13   Ni2   S    
C35   H58   S    
C86   O20   S    
C19   O40   S    
C104  O20   S    
N3    Ni6   S    
C52   O13   S    
C110  O27   S    
N1    N20   A    
C110  H76   S    
H37   O6    S    
C75   C94   A    
C25   O12   S    
C23   O27   S    
C79   C84   A    
C81   H19   S    
C13   C57   S    
C90   O25   S    
C85   C94   A    
C43   N13   A    
C11   O39   S    
C8    O36   S    
H26   O34   S    
C6    H96   S    
C76   C89   A    
C34   H47   S    
H22   O1    S    
C105  H61   S    
C107  H65   S    
C67   C95   S    
N6    N15   A    
C60   C102  S    
C45   O6    S    
N6    Ni8   S    
N19   N27   A    
C15   H12   S    
C47   O34   S    
C50   N19   A    
C5    O32   S    
H27   O44   S    
C78   C92   A    
C105  O21   S    
N7    N16   A    
C34   N4    A    
C45   N15   A    
H44   O14   S    
C1    C57   A    
H45   O15   S    
C42   N11   A    
H46   O16   S    
H30   O47   S    
N18   Ni6   S    
C19   C28   D    
C112  H82   S    
C111  H78   S    
C32   C67   A    
C17   C59   S    
C103  H53   S    
C14   O41   S    
C90   C99   A    
N22   Ni8   S    
C15   O42   S    
C9    H105  S    
N25   N28   A    
H32   O2    S    
C32   N2    A    
C6    O33   S    
C7    H99   S    
N9    Ni2   S    
C77   C96   A    
N2    N10   A    
C51   O11   S    
C89   C98   A    
C39   N8    A    
H43   O13   S    
C104  H55   S    
C21   O42   S    
C16   H15   S    
C35   C71   A    
C4    H88   S    
C48   O8    S    
C2    C23   D    
C36   N23   A    
C106  H64   S    
C40   C66   A    
C25   C59   A    
C42   O3    S    
H24   O23   S    
C31   H1    S    
C46   C73   A    
C81   C85   A    
C33   C68   A    
C44   O5    S    
C12   H4    S    
C72   C99   S    
C58   C62   A    
C83   C87   A    
C46   N16   A    
C54   O15   S    
C15   H10   S    
C39   H91   S    
C31   C66   A    
C47   N27   A    
C4    O31   S    
C52   N21   A    
N24   N31   A    
C6    H97   S    
C103  H52   S    
C101  H50   S    
H40   O9    S    
H39   O8    S    
C3    H86   S    
C53   N22   A    
C112  H84   S    
N9    N32   A    
C5    H94   S    
C25   N12   A    
C56   N26   A    
C54   N24   A    
C34   C70   A    
C2    C61   S    
C9    H107  S    
C55   O16   S    
C22   C28   S    
N32   Ni5   S    
C64   C80   A    
C41   O2    S    
N5    Ni7   S    
C77   C90   A    
C10   H108  S    
H48   O17   S    
C8    H101  S    
C69   O45   S    
N22   N30   A    
C82   C86   A    
C84   O18   S    
C111  O28   S    
C18   O41   S    
C83   C99   A    
C33   H36   S    
C76   C93   A    
C4    H90   S    
C16   O43   S    
N30   Ni4   S    
C78   C95   A    
C106  H62   S    
H33   O3    S    
H34   O4    S    
C111  H81   S    
C12   H6    S    
C14   H8    S    
C82   H20   S    
N23   Ni2   S    
C66   C96   S    
C1    N1    A    
C108  H71   S    
C106  O22   S    
N12   N21   A    
C2    O36   S    
C11   H112  S    
C47   C61   A    
C109  H74   S    
C71   C100  S    
C110  H77   S    
C109  H73   S    
N4    N13   A    
H35   O5    S    
N27   Ni1   S    
C102  O37   S    
C19   C65   S    
C20   C62   S    
C21   C63   S    
C43   O4    S    
C89   O24   S    
C37   C72   A    
C36   O23   S    
N5    N14   A    
C16   H14   S    
N28   Ni3   S    
N10   Ni1   S    
C46   O7    S    
C105  H60   S    
C79   C98   A    
C58   N28   A    
C27   O32   S    
C8    H103  S    
C49   N18   A    
C69   N29   A    
C15   H11   S    
C17   C26   D    
C41   N10   A    
C108  H68   S    
C44   C71   A    
H23   O12   S    
C58   O44   S    
C10   H109  S    
C76   H2    S    
N14   Ni4   S    
H41   O10   S    
C23   C27   S    
C22   O28   S    
N2    Ni6   S    
N24   Ni7   S    
C45   C72   A    
C42   C68   A    
N21   Ni6   S    
C103  O19   S    
C74   C97   S    
C20   C29   D    
C37   N6    A    
N31   Ni3   S    
C110  H75   S    
C63   C69   A    
N19   Ni5   S    
C13   C24   D    
C35   N5    A    
C9    O37   S    
C52   C59   A    
C88   O22   S    
C104  H56   S    
C108  O25   S    
C3    H87   S    
N11   Ni1   S    
C87   C96   A    
C56   C63   A    
C16   H16   S    
C6    H95   S    
C103  H54   S    
C43   C70   A    
C38   H80   S    
C107  H66   S    
C92   C100  A    
C50   C61   A    
C82   C100  A    
C18   C27   D    
C48   N17   A    
C36   C60   A    
C30   O33   S    
C7    O35   S    
N3    N11   A    
C75   H102  S    
N18   N23   A    
C22   C102  D    
C108  H70   S    
C101  H49   S    
C107  O24   S    
N1    Ni1   S    
C32   H25   S    
C81   C97   A    
C3    H85   S    
H42   O11   S    
C24   C30   S    
C91   O47   S    
C83   H21   S    
C5    H93   S    
C75   C88   A    
C1    O1    S    
C26   C29   S    
H29   O46   S    
C13   O39   S    
N20   Ni5   S    
C28   O31   S    
C104  H57   S    
C38   C73   A    
