data_mof_unit_65176.cif
_audit_creation_date              2012-12-10T19:25:18-0500
_audit_creation_method            fapswitch 2.2
_symmetry_space_group_name_H-M    P1
_symmetry_Int_Tables_number       1
_space_group_crystal_system       triclinic
_cell_length_a                    18.849806
_cell_length_b                    18.635539
_cell_length_c                    18.7637
_cell_angle_alpha                 109.274998
_cell_angle_beta                  109.458043
_cell_angle_gamma                 109.499834
_cell_volume                      5085.2138539

loop_
_atom_site_label
_atom_site_type_symbol
_atom_type_description
_atom_site_fract_x
_atom_site_fract_y
_atom_site_fract_z
_atom_type_partial_charge
C1    C     C_R   0.880587 0.379661 0.000276 0.875790
C2    C     C_R   0.814255 0.312053 0.997654 -0.074832
C3    C     C_R   0.828803 0.248358 0.013251 -0.222357
C4    C     C_R   0.764144 0.183395 0.012315 -0.220564
C5    C     C_R   0.684705 0.181440 0.993417 -0.102677
C6    C     C_R   0.667308 0.237215 0.965142 0.152777
C7    C     C_3   0.632484 0.295156 0.995104 -0.493485
C8    C     C_3   0.703777 0.367050 0.997999 -0.485379
C9    C     C_R   0.182090 0.502783 0.256501 0.129342
C10   C     C_R   0.186228 0.501907 0.184137 -0.094437
C11   C     C_R   0.257385 0.501149 0.175494 -0.217607
C12   C     C_R   0.882956 0.502463 0.880070 0.947679
C13   C     C_R   0.322197 0.501763 0.240225 -0.218602
C14   C     C_R   0.313899 0.500389 0.311648 -0.095226
C15   C     C_R   0.242459 0.500247 0.316793 0.132298
C16   C     C_3   0.198653 0.499226 0.369721 -0.494413
C17   C     C_3   0.128629 0.501189 0.299776 -0.488553
C18   C     C_R   0.183379 0.758101 0.002022 0.134710
C19   C     C_R   0.187567 0.685632 0.002413 -0.094352
C20   C     C_R   0.259353 0.677384 0.003183 -0.219952
C21   C     C_R   0.324461 0.742359 0.003703 -0.207186
C22   C     C_R   0.315961 0.813701 0.000698 -0.098306
C23   C     C_R   0.120153 0.620092 0.000369 0.882528
C24   C     C_R   0.244066 0.818592 0.999423 0.126732
C25   C     C_3   0.199342 0.870801 0.995693 -0.491515
C26   C     C_3   0.128929 0.800562 0.997490 -0.488947
C27   C     C_R   0.497877 0.379500 0.378082 0.879595
C28   C     C_R   0.616023 0.501411 0.618470 0.945528
C29   C     C_R   0.495805 0.620057 0.615844 0.893567
C30   C     C_R   0.377946 0.500126 0.377510 0.885539
C31   C     C_R   0.500041 0.879588 0.880650 0.914463
C32   C     C_R   0.619985 0.119886 0.999198 0.874688
C33   C     C_R   0.499451 0.120343 0.119428 0.876402
C34   C     C_R   0.119409 0.500292 0.119222 0.878168
C35   C     C_R   0.380339 0.879795 0.000136 0.895274
C36   C     C_R   0.486062 0.314267 0.235719 0.106884
C37   C     C_R   0.495390 0.311891 0.311482 -0.086144
C38   C     C_R   0.493461 0.238708 0.318587 -0.213126
C39   C     C_R   0.494864 0.174876 0.255184 -0.222513
C40   C     C_R   0.495471 0.183534 0.183976 -0.092370
C41   C     C_R   0.485189 0.250083 0.172063 0.149043
C42   C     C_3   0.538199 0.314360 0.154313 -0.516941
C43   C     C_3   0.538761 0.385109 0.224333 -0.466468
C44   C     C_R   0.568448 0.765706 0.741962 0.139626
C45   C     C_2   0.756659 0.578175 0.748721 -0.215725
C46   C     C_R   0.494685 0.685104 0.681142 -0.132398
C47   C     C_R   0.418854 0.667076 0.687435 -0.255792
C48   C     C_R   0.419065 0.730809 0.753918 0.078978
C49   C     C_R   0.496875 0.811698 0.814772 -0.102118
C50   C     C_R   0.569841 0.825636 0.806871 0.081385
C51   C     C_3   0.662503 0.890686 0.844827 -0.504670
C52   C     C_3   0.661347 0.821304 0.770844 -0.460066
C53   C     C_2   0.679618 0.505459 0.690987 -0.358107
C54   C     C_2   0.819185 0.580435 0.822752 0.139075
C55   C     C_2   0.823561 0.507302 0.811776 -0.337938
C56   C     C_R   0.731755 0.302343 0.967797 0.101957
H1    H     H_    0.772444 0.637507 0.744004 0.164915
H2    H     H_    0.752741 0.422903 0.064978 0.217767
H3    H     H_    0.263106 0.500949 0.119863 0.155455
H4    H     H_    0.377259 0.501733 0.233881 0.154902
H5    H     H_    0.175102 0.436773 0.371123 0.211673
H6    H     H_    0.237161 0.560062 0.434201 0.198192
H7    H     H_    0.064820 0.439623 0.260399 0.199423
H8    H     H_    0.126203 0.562912 0.323933 0.212314
H9    H     H_    0.265250 0.621768 0.004051 0.155647
H10   H     H_    0.379872 0.736147 0.004731 0.162507
H11   H     H_    0.236775 0.936193 0.055380 0.202416
H12   H     H_    0.659708 0.449339 0.700864 0.153726
H13   H     H_    0.176579 0.871062 0.933041 0.212349
H14   H     H_    0.124896 0.825403 0.057784 0.213598
H15   H     H_    0.065975 0.759809 0.935480 0.199579
H16   H     H_    0.495461 0.233431 0.374950 0.156320
H17   H     H_    0.497387 0.120357 0.262532 0.159320
H18   H     H_    0.603411 0.320903 0.172358 0.194225
H19   H     H_    0.501288 0.303311 0.087929 0.207875
H20   H     H_    0.604372 0.432915 0.282446 0.217372
H21   H     H_    0.501636 0.414615 0.198388 0.196409
H22   H     H_    0.359888 0.604509 0.640635 0.161808
H23   H     H_    0.670274 0.950070 0.839221 0.202778
H24   H     H_    0.704145 0.903274 0.910617 0.209825
H25   H     H_    0.669273 0.840966 0.722926 0.208239
H26   H     H_    0.701807 0.793265 0.793804 0.194507
H27   H     H_    0.786299 0.449516 0.747468 0.134068
H28   H     H_    0.891135 0.251672 0.030392 0.149396
H29   H     H_    0.777041 0.136936 0.028913 0.163689
H30   H     H_    0.566278 0.272471 0.944202 0.206997
H31   H     H_    0.640312 0.309254 0.060379 0.194621
H32   H     H_    0.678789 0.385721 0.948539 0.201725
O1    O     O_R   0.908050 0.460100 0.051390 -0.627401
O2    O     O_R   0.445680 0.356610 0.405790 -0.623395
O3    O     O_R   0.639540 0.551640 0.587850 -0.618582
O4    O     O_R   0.536110 0.448210 0.587860 -0.625823
O5    O     O_R   0.547900 0.643240 0.587840 -0.625413
O6    O     O_R   0.444470 0.539800 0.587850 -0.627293
O7    O     O_R   0.457480 0.551640 0.405780 -0.624810
O8    O     O_R   0.354050 0.448210 0.405780 -0.623209
O9    O     O_R   0.449170 0.908380 0.857510 -0.628170
O10   O     O_R   0.551950 0.908320 0.960240 -0.625619
O11   O     O_R   0.540220 0.091590 0.948580 -0.621808
O12   O     O_R   0.908730 0.356680 0.948620 -0.620680
O13   O     O_R   0.643000 0.091540 0.051310 -0.625428
O14   O     O_R   0.448050 0.091580 0.039660 -0.623020
O15   O     O_R   0.550830 0.091520 0.142390 -0.621024
O16   O     O_R   0.357000 0.908370 0.948590 -0.622039
O17   O     O_R   0.459780 0.908310 0.051320 -0.626622
O18   O     O_R   0.908630 0.551710 0.960350 -0.592856
O19   O     O_R   0.909310 0.448290 0.857570 -0.629936
O20   O     O_R   0.091270 0.643320 0.051380 -0.620352
O21   O     O_R   0.091950 0.539900 0.948610 -0.626371
O22   O     O_R   0.090690 0.551710 0.142430 -0.622585
O23   O     O_R   0.091370 0.448290 0.039650 -0.627928
O24   O     O_R   0.549120 0.460050 0.405790 -0.625773
Zn1   Zn    Zn3+2 0.999540 0.569060 0.068630 0.953756
Zn2   Zn    Zn3+2 0.000460 0.430940 0.931370 0.951371
Zn3   Zn    Zn3+2 0.565860 0.568990 0.496810 0.941525
Zn4   Zn    Zn3+2 0.427730 0.430860 0.496820 0.946527
Zn5   Zn    Zn3+2 0.431370 0.999990 0.931350 0.944583
Zn6   Zn    Zn3+2 0.568630 0.999910 0.068550 0.949862
N1    N     N_3   0.877144 0.661417 0.903708 -0.427923
H33   H     H_    0.911187 0.708310 0.891189 0.162665
H34   H     H_    0.839362 0.681812 0.925591 0.187111
N2    N     N_3   0.342208 0.713239 0.761070 -0.456010
H35   H     H_    0.316494 0.748597 0.739456 0.199783
H36   H     H_    0.295083 0.646988 0.719117 0.179983

loop_
_geom_bond_atom_site_label_1
_geom_bond_atom_site_label_2
_ccdc_geom_bond_type
C12   O18   A    
C26   H15   S    
C21   H10   S    
C41   C42   S    
C19   C20   A    
C18   C26   S    
C8    C56   S    
C7    C8    S    
C13   H4    S    
C22   C35   S    
C45   H1    S    
C42   H19   S    
C37   C38   A    
C18   C24   A    
O13   Zn6   S    
C36   C37   A    
C31   C49   S    
C54   N1    S    
C18   C19   A    
C17   H8    S    
C48   N2    S    
C38   C39   A    
C7    H30   S    
C15   C16   S    
C27   O2    A    
C1    C2    S    
O5    Zn3   S    
C31   O10   A    
C53   H12   S    
C51   H24   S    
C30   O8    A    
C8    H2    S    
C54   C55   D    
C7    H31   S    
O7    Zn3   S    
C16   C17   S    
C25   H11   S    
C32   O13   A    
O2    Zn4   S    
C28   O3    A    
C9    C10   A    
C5    C32   S    
C44   C52   S    
C31   O9    A    
C45   C53   D    
C13   C14   A    
C34   O23   A    
C36   C41   A    
C16   H6    S    
C14   C30   S    
C11   H3    S    
C1    O12   A    
C44   C46   A    
O10   Zn6   S    
C38   H16   S    
N1    H34   S    
C23   O21   A    
O1    Zn1   S    
C42   H18   S    
C33   C40   S    
O18   Zn1   S    
C51   C52   S    
C20   H9    S    
O12   Zn2   S    
C24   C25   S    
C10   C34   S    
C35   O16   A    
C39   C40   A    
O6    Zn4   S    
C4    H29   S    
C25   C26   S    
C33   O14   A    
C8    H32   S    
O20   Zn1   S    
C19   C23   S    
O19   Zn2   S    
C30   O7    A    
C35   O17   A    
O11   Zn5   S    
C47   C48   A    
C28   C53   S    
C50   C51   S    
C28   O4    A    
C52   H26   S    
O4    Zn4   S    
O22   Zn1   S    
O14   Zn5   S    
O21   Zn2   S    
C9    C17   S    
C48   C49   A    
C45   C54   S    
C34   O22   A    
C22   C24   A    
O17   Zn6   S    
O15   Zn6   S    
C25   H13   S    
C42   C43   S    
N2    H36   S    
C3    C4    A    
O16   Zn5   S    
C44   C50   A    
C43   H20   S    
C46   C47   A    
C40   C41   A    
C1    O1    A    
C33   O15   A    
C6    C56   A    
C4    C5    A    
C27   O24   A    
C12   O19   A    
N1    H33   S    
C6    C7    S    
C43   H21   S    
C32   O11   A    
C29   C46   S    
C2    C3    A    
C9    C15   A    
C2    C56   A    
C17   H7    S    
C29   O5    A    
C11   C13   A    
C29   O6    A    
C27   C37   S    
C26   H14   S    
C23   O20   A    
O3    Zn3   S    
O23   Zn2   S    
C39   H17   S    
O9    Zn5   S    
C52   H25   S    
C51   H23   S    
C12   C55   S    
C10   C11   A    
C20   C21   A    
C49   C50   A    
C16   H5    S    
C3    H28   S    
C5    C6    A    
C14   C15   A    
O8    Zn4   S    
C36   C43   S    
C47   H22   S    
N2    H35   S    
C21   C22   A    
C55   H27   S    
O24   Zn3   S    
