data_mof_unit_26529.cif
_audit_creation_date              2012-12-10T19:53:09-0500
_audit_creation_method            fapswitch 2.2
_symmetry_space_group_name_H-M    P1
_symmetry_Int_Tables_number       1
_space_group_crystal_system       triclinic
_cell_length_a                    14.960713
_cell_length_b                    14.145506
_cell_length_c                    15.71956
_cell_angle_alpha                 89.880807
_cell_angle_beta                  89.942759
_cell_angle_gamma                 90.184047
_cell_volume                      3326.6550089

loop_
_atom_site_label
_atom_site_type_symbol
_atom_type_description
_atom_site_fract_x
_atom_site_fract_y
_atom_site_fract_z
_atom_type_partial_charge
C1    C     C_R   0.327785 0.499834 0.500345 0.854477
C2    C     C_R   0.187803 0.428078 0.548395 -0.194241
C3    C     C_R   0.232116 0.499297 0.502934 -0.008439
C4    C     C_R   0.048408 0.497803 0.508089 0.145318
C5    C     C_R   0.906353 0.428128 0.458857 0.098528
C6    C     C_R   0.905213 0.564770 0.556378 0.100036
C7    C     C_R   0.500750 0.500099 0.338149 0.905928
C8    C     C_R   0.813733 0.430354 0.457291 -0.235445
C9    C     C_R   0.812658 0.566564 0.551076 -0.245011
C10   C     C_R   0.767830 0.499683 0.502156 -0.077152
C11   C     C_R   0.952111 0.496070 0.508684 0.031901
C12   C     C_3   0.606828 0.468480 0.949958 0.241683
C13   C     C_R   0.450616 0.104101 0.441662 -0.388207
C14   C     C_R   0.420421 0.895534 0.498384 -0.381049
C15   C     C_R   0.451332 0.203475 0.441527 0.002889
C16   C     C_R   0.421369 0.796129 0.497775 -0.009177
C17   C     C_R   0.547770 0.205660 0.560492 -0.132337
C18   C     C_R   0.579202 0.795647 0.501959 -0.122348
C19   C     C_R   0.547219 0.105879 0.564736 0.444039
C20   C     C_R   0.581709 0.895321 0.501160 0.445699
C21   C     C_R   0.499830 0.053504 0.502825 0.045109
C22   C     C_R   0.500888 0.946995 0.501415 0.052573
C23   C     C_3   0.602134 0.466595 0.050089 -0.352645
C24   C     C_R   0.672185 0.500066 0.500112 0.883567
C25   C     C_R   0.499705 0.499886 0.661864 0.912106
C26   C     C_3   0.488231 0.600287 0.048751 0.305685
C27   C     C_3   0.436748 0.428744 0.050340 0.310421
C28   C     C_3   0.435638 0.430214 0.952176 -0.495834
C29   C     C_3   0.484180 0.598158 0.950471 -0.496315
C30   C     C_1   0.501687 0.499506 0.750655 -0.205750
C31   C     C_3   0.509073 0.499128 0.082514 0.151598
C32   C     C_3   0.509512 0.498206 0.917466 0.179412
C33   C     C_3   0.548605 0.066478 0.705064 0.057362
C34   C     C_1   0.504636 0.498920 0.825897 -0.090724
C35   C     C_3   0.598667 0.010074 0.772853 -0.289071
C36   C     C_3   0.551921 0.015663 0.859067 -1.003883
C37   C     C_3   0.688868 0.965312 0.419805 0.059413
C38   C     C_3   0.769691 0.031500 0.423745 -0.281663
C39   C     C_3   0.799393 0.062595 0.335068 -1.002288
C40   C     C_3   0.378879 0.284926 0.102007 0.084595
C41   C     C_3   0.356753 0.300179 0.196209 -0.337959
C42   C     C_3   0.279466 0.237163 0.224923 -0.995076
C43   C     C_3   0.521443 0.746893 0.112830 0.106945
C44   C     C_3   0.490001 0.817130 0.044741 -0.376431
C45   C     C_1   0.507594 0.500049 0.174114 -0.040820
C46   C     C_3   0.463910 0.911663 0.084049 -0.969131
C47   C     C_3   0.677165 0.545736 0.920844 -0.408307
C48   C     C_3   0.776273 0.522248 0.936440 -0.370531
C49   C     C_3   0.836111 0.606437 0.914269 -0.899886
C50   C     C_3   0.633762 0.369981 0.909338 -0.355180
C51   C     C_3   0.697028 0.305521 0.960900 -0.376358
C52   C     C_3   0.744115 0.234406 0.903423 -0.898507
C53   C     C_3   0.953490 0.354273 0.405289 -0.423116
C54   C     C_3   0.984394 0.395791 0.320001 -0.324022
C55   C     C_3   0.031717 0.321406 0.266329 -0.896975
C56   C     C_1   0.504558 0.500310 0.249374 -0.211709
C57   C     C_3   0.951201 0.634865 0.614931 -0.422030
C58   C     C_3   0.978736 0.587521 0.698711 -0.330686
C59   C     C_3   0.022281 0.658422 0.758934 -0.894137
C60   C     C_R   0.092512 0.568759 0.462381 -0.205746
C61   C     C_R   0.095588 0.428053 0.551841 -0.210187
C62   C     C_R   0.184773 0.570192 0.460591 -0.206989
H1    H     H_    0.415011 0.616058 0.929873 0.145668
H2    H     H_    0.641367 0.757025 0.503527 0.153747
H3    H     H_    0.420283 0.620106 0.072419 0.040589
H4    H     H_    0.370595 0.454487 0.074009 0.040371
H5    H     H_    0.440843 0.357590 0.926382 0.191706
H6    H     H_    0.526826 0.654258 0.921856 0.196213
H7    H     H_    0.654358 0.512764 0.078590 0.180309
H8    H     H_    0.615402 0.395613 0.076735 0.187033
H9    H     H_    0.055309 0.622399 0.428288 0.128068
H10   H     H_    0.060828 0.373627 0.587603 0.126350
H11   H     H_    0.219059 0.625193 0.425125 0.138648
H12   H     H_    0.368752 0.455071 0.930682 0.142797
H13   H     H_    0.224488 0.373654 0.581978 0.146786
H14   H     H_    0.479862 0.036549 0.698661 0.136782
H15   H     H_    0.544334 0.141455 0.726244 0.126266
H16   H     H_    0.602879 0.934829 0.753003 0.229924
H17   H     H_    0.667749 0.038342 0.779111 0.224456
H18   H     H_    0.546886 0.090325 0.880269 0.268433
H19   H     H_    0.590938 0.975576 0.907049 0.271874
H20   H     H_    0.483824 0.984476 0.855075 0.267000
H21   H     H_    0.707411 0.900381 0.384002 0.129383
H22   H     H_    0.634154 0.002555 0.385259 0.136737
H23   H     H_    0.777104 0.379382 0.419291 0.154161
H24   H     H_    0.752158 0.095162 0.461568 0.232990
H25   H     H_    0.825986 0.994850 0.455864 0.221412
H26   H     H_    0.818362 0.000199 0.296334 0.266934
H27   H     H_    0.858242 0.110274 0.340332 0.262819
H28   H     H_    0.744710 0.101417 0.302590 0.268949
H29   H     H_    0.393027 0.208726 0.091825 0.166492
H30   H     H_    0.320502 0.302436 0.060847 0.116237
H31   H     H_    0.416636 0.283898 0.235318 0.236635
H32   H     H_    0.338402 0.375213 0.207129 0.206878
H33   H     H_    0.218757 0.252392 0.186724 0.269348
H34   H     H_    0.775062 0.618236 0.587189 0.148732
H35   H     H_    0.264471 0.250921 0.292975 0.264934
H36   H     H_    0.297439 0.161471 0.217684 0.264753
H37   H     H_    0.576350 0.780360 0.149686 0.165450
H38   H     H_    0.467357 0.731104 0.159593 0.122402
H39   H     H_    0.544612 0.828982 0.997902 0.231200
H40   H     H_    0.431265 0.787707 0.010551 0.209742
H41   H     H_    0.408847 0.901575 0.130684 0.260933
H42   H     H_    0.440820 0.960530 0.033307 0.269768
H43   H     H_    0.522254 0.944223 0.116531 0.264987
H44   H     H_    0.825936 0.627980 0.847000 0.265795
H45   H     H_    0.412655 0.066926 0.393502 0.169803
H46   H     H_    0.820917 0.667243 0.956425 0.267190
H47   H     H_    0.907254 0.586657 0.923144 0.253258
H48   H     H_    0.787627 0.503912 0.004225 0.218920
H49   H     H_    0.796999 0.462006 0.895897 0.235753
H50   H     H_    0.669298 0.560131 0.851721 0.191917
H51   H     H_    0.664031 0.613173 0.954320 0.246315
H52   H     H_    0.694240 0.191686 0.867898 0.268872
H53   H     H_    0.788353 0.271749 0.857479 0.256939
H54   H     H_    0.785572 0.186130 0.942647 0.254756
H55   H     H_    0.748299 0.346468 0.995780 0.215611
H56   H     H_    0.356923 0.932060 0.497563 0.166711
H57   H     H_    0.657446 0.264783 0.008420 0.236384
H58   H     H_    0.574631 0.325987 0.894980 0.188457
H59   H     H_    0.663585 0.383802 0.845607 0.197109
H60   H     H_    0.091215 0.294138 0.300590 0.269757
H61   H     H_    0.985646 0.261739 0.252194 0.261013
H62   H     H_    0.054017 0.353451 0.205325 0.246411
H63   H     H_    0.925613 0.422691 0.284241 0.217638
H64   H     H_    0.031142 0.455626 0.330675 0.231504
H65   H     H_    0.010831 0.323499 0.440153 0.207618
H66   H     H_    0.907425 0.294048 0.392457 0.196394
H67   H     H_    0.413076 0.241557 0.394342 0.144649
H68   H     H_    0.082969 0.689623 0.729147 0.266094
H69   H     H_    0.974610 0.715753 0.774956 0.263131
H70   H     H_    0.042130 0.622021 0.818604 0.246241
H71   H     H_    0.918837 0.556472 0.730135 0.221795
H72   H     H_    0.026882 0.529689 0.686360 0.230422
H73   H     H_    0.010168 0.667132 0.583276 0.207390
H74   H     H_    0.905360 0.694411 0.629734 0.198883
H75   H     H_    0.358651 0.758128 0.495896 0.145803
H76   H     H_    0.586031 0.245896 0.606299 0.144950
N1    N     N_R   0.499980 0.252470 0.500000 -0.107818
N2    N     N_R   0.499980 0.747530 0.500000 -0.107971
O1    O     O_R   0.369070 0.579480 0.500010 -0.632730
O2    O     O_3   0.663405 0.941025 0.503581 -0.613096
O3    O     O_3   0.456895 0.336010 0.079644 -0.635265
O4    O     O_3   0.556493 0.664061 0.075247 -0.644727
O5    O     O_R   0.369070 0.420520 0.500010 -0.621128
O6    O     O_R   0.500010 0.579510 0.377140 -0.611124
O7    O     O_R   0.500010 0.420490 0.377140 -0.619064
O8    O     O_R   0.630940 0.579480 0.499990 -0.631994
O9    O     O_R   0.630940 0.420520 0.499990 -0.617095
O10   O     O_R   0.500000 0.579440 0.622860 -0.604038
O11   O     O_R   0.500000 0.420560 0.622860 -0.624209
O12   O     O_3   0.595435 0.059902 0.627279 -0.610194
Zn1   Zn    Zn3+2 0.500010 0.606140 0.500000 0.940647
Zn2   Zn    Zn3+2 0.500010 0.393860 0.500000 0.937509

loop_
_geom_bond_atom_site_label_1
_geom_bond_atom_site_label_2
_ccdc_geom_bond_type
C48   H48   S    
C29   H1    S    
C59   H68   S    
C41   C42   S    
C23   H7    S    
C1    O5    A    
C16   H75   S    
C23   H8    S    
C13   H45   S    
C28   H12   S    
C6    C9    A    
C41   H32   S    
C53   C54   S    
C58   H72   S    
C54   H64   S    
C12   C23   S    
C59   H69   S    
C38   H24   S    
C50   H58   S    
C7    C56   S    
C5    C53   S    
C19   C21   A    
C43   H37   S    
C5    C11   A    
C29   C32   S    
C42   H36   S    
C38   C39   S    
C52   H53   S    
O1    Zn1   S    
C47   H50   S    
C46   H43   S    
C60   C62   A    
C8    H23   S    
O11   Zn2   S    
C33   H15   S    
O7    Zn2   S    
C53   H65   S    
C51   H55   S    
C54   C55   S    
C41   H31   S    
C35   C36   S    
C45   C56   T    
C36   H20   S    
C14   H56   S    
O10   Zn1   S    
C51   H57   S    
C57   H74   S    
C17   H76   S    
C9    C10   A    
C39   H28   S    
C7    O7    A    
C2    C61   A    
N2    Zn1   S    
C7    O6    A    
C55   H60   S    
C26   C31   S    
C21   C22   S    
C12   C32   S    
C6    C57   S    
C43   O4    S    
C16   N2    A    
C50   H59   S    
C39   H26   S    
C12   C47   S    
C26   O4    S    
C44   C46   S    
C50   C51   S    
C49   H46   S    
C15   N1    A    
C52   H54   S    
C58   H71   S    
C54   H63   S    
C55   H61   S    
C59   H70   S    
C37   O2    S    
C30   C34   T    
C27   C31   S    
C51   C52   S    
C20   O2    S    
C28   C32   S    
C28   H5    S    
C43   H38   S    
C36   H18   S    
C42   H35   S    
C6    C11   A    
C44   H40   S    
C17   C19   A    
C60   H9    S    
C10   C24   S    
C58   C59   S    
C46   H42   S    
C4    C61   A    
C42   H33   S    
C25   O10   A    
C1    C3    S    
C32   C34   S    
C62   H11   S    
O9    Zn2   S    
C37   C38   S    
C53   H66   S    
C29   H6    S    
C33   H14   S    
C27   O3    S    
C47   C48   S    
C15   H67   S    
C36   H19   S    
C4    C60   A    
C19   O12   S    
C13   C21   A    
C17   N1    A    
C40   H30   S    
C4    C11   S    
C18   N2    A    
C9    H34   S    
O5    Zn2   S    
C61   H10   S    
C48   C49   S    
C20   C22   A    
C13   C15   A    
C43   C44   S    
C24   O8    A    
C14   C16   A    
O8    Zn1   S    
C49   H47   S    
C3    C62   A    
C25   C30   S    
C47   H51   S    
C55   H62   S    
C40   C41   S    
C26   H3    S    
C37   H21   S    
C33   O12   S    
C5    C8    A    
C12   C50   S    
C44   H39   S    
C49   H44   S    
C37   H22   S    
C52   H52   S    
C46   H41   S    
C35   H16   S    
N1    Zn2   S    
C38   H25   S    
C25   O11   A    
C14   C22   A    
C2    C3    A    
C27   H4    S    
C18   H2    S    
C57   C58   S    
O6    Zn1   S    
C35   H17   S    
C33   C35   S    
C18   C20   A    
C40   H29   S    
C1    O1    A    
C24   O9    A    
C48   H49   S    
C26   C29   S    
C8    C10   A    
C31   C45   S    
C40   O3    S    
C27   C28   S    
C57   H73   S    
C39   H27   S    
C2    H13   S    
C23   C31   S    
