data_mof_unit_61190.cif
_audit_creation_date              2012-12-10T19:51:49-0500
_audit_creation_method            fapswitch 2.2
_symmetry_space_group_name_H-M    P1
_symmetry_Int_Tables_number       1
_space_group_crystal_system       triclinic
_cell_length_a                    25.993559
_cell_length_b                    26.021483
_cell_length_c                    22.200438
_cell_angle_alpha                 90.038408
_cell_angle_beta                  125.916115
_cell_angle_gamma                 89.956174
_cell_volume                      12161.2463718

loop_
_atom_site_label
_atom_site_type_symbol
_atom_type_description
_atom_site_fract_x
_atom_site_fract_y
_atom_site_fract_z
_atom_type_partial_charge
C1    C     C_R   0.650332 0.749927 0.300583 0.820386
C2    C     C_3   0.487683 0.791480 0.024852 -0.160006
C3    C     C_R   0.248256 0.526017 0.446547 0.016900
C4    C     C_R   0.745270 0.945761 0.496162 -0.066478
C5    C     C_R   0.745125 0.054126 0.495859 -0.066847
C6    C     C_R   0.249777 0.445508 0.500511 -0.065110
C7    C     C_R   0.249805 0.554494 0.500503 -0.065073
C8    C     C_R   0.729298 0.973124 0.537793 -0.209441
C9    C     C_R   0.729278 0.026914 0.537689 -0.209598
C10   C     C_R   0.251096 0.473026 0.556243 -0.210433
C11   C     C_R   0.251112 0.527044 0.556240 -0.210205
C12   C     C_3   0.799258 0.029521 0.428168 -0.101334
C13   C     C_3   0.982238 0.712208 0.024792 -0.158371
C14   C     C_3   0.799925 0.969699 0.429189 -0.105130
C15   C     C_3   0.244730 0.530058 0.377041 -0.112334
C16   C     C_3   0.244722 0.469822 0.377036 -0.112238
C17   C     C_R   0.609653 0.750300 0.499667 0.803402
C18   C     C_R   0.609649 0.249711 0.499651 0.803159
C19   C     C_R   0.109646 0.250258 0.499651 0.805831
C20   C     C_R   0.109883 0.749871 0.499789 0.810420
C21   C     C_R   0.749847 0.890079 0.499908 0.813309
C22   C     C_R   0.749788 0.109880 0.499785 0.813259
C23   C     C_R   0.249803 0.389959 0.499908 0.809362
C24   C     C_3   0.990037 0.293022 0.024847 -0.157205
C25   C     C_R   0.249817 0.610041 0.499892 0.809080
C26   C     C_R   0.749849 0.609839 0.501180 0.809657
C27   C     C_R   0.749832 0.390162 0.501175 0.809957
C28   C     C_R   0.249847 0.109839 0.501186 0.810144
C29   C     C_R   0.249831 0.890163 0.501179 0.810659
C30   C     C_R   0.699297 0.526416 0.447090 0.128528
C31   C     C_R   0.699280 0.473606 0.447089 0.128353
C32   C     C_R   0.199257 0.026416 0.447142 0.128070
C33   C     C_R   0.199241 0.973606 0.447141 0.127892
C34   C     C_R   0.748469 0.554120 0.507467 -0.142155
C35   C     C_3   0.940101 0.757714 0.975207 -0.164352
C36   C     C_R   0.748435 0.445890 0.507467 -0.142195
C37   C     C_R   0.248462 0.054120 0.507488 -0.141983
C38   C     C_R   0.248429 0.945889 0.507487 -0.141870
C39   C     C_R   0.792979 0.527219 0.574306 -0.084825
C40   C     C_R   0.792960 0.472797 0.574308 -0.084755
C41   C     C_R   0.293002 0.027219 0.574314 -0.084634
C42   C     C_R   0.292984 0.972796 0.574316 -0.084461
C43   C     C_1   0.838601 0.554727 0.642531 0.215180
C44   C     C_1   0.838563 0.445295 0.642540 0.215168
C45   C     C_1   0.338656 0.054726 0.642527 0.215972
C46   C     C_3   0.939499 0.251691 0.975197 -0.164319
C47   C     C_1   0.338619 0.945295 0.642535 0.216352
C48   C     C_3   0.358560 0.675821 0.327267 -0.324296
C49   C     C_3   0.342372 0.722268 0.276001 -0.334109
C50   C     C_3   0.277721 0.715350 0.201515 -0.900600
C51   C     C_3   0.358286 0.323815 0.327030 -0.324200
C52   C     C_3   0.342217 0.277249 0.275938 -0.335119
C53   C     C_3   0.277530 0.284010 0.201444 -0.899091
C54   C     C_3   0.871882 0.153206 0.353685 -0.329719
C55   C     C_3   0.849196 0.190840 0.289071 -0.330628
C56   C     C_3   0.785966 0.173530 0.218830 -0.866978
C57   C     C_3   0.439140 0.249702 0.975171 -0.162729
C58   C     C_3   0.859313 0.819730 0.330109 -0.332925
C59   C     C_3   0.850689 0.766257 0.295610 -0.318729
C60   C     C_3   0.785898 0.761744 0.220687 -0.898380
C61   C     C_1   0.769648 0.053698 0.354706 0.184360
C62   C     C_1   0.771611 0.943996 0.356922 0.199593
C63   C     C_1   0.185773 0.555408 0.316426 0.195290
C64   C     C_1   0.185762 0.444504 0.316408 0.195534
C65   C     C_1   0.859461 0.054897 0.486352 0.177044
C66   C     C_1   0.860546 0.945315 0.488492 0.179187
C67   C     C_1   0.301816 0.554533 0.390859 0.212640
C68   C     C_3   0.439473 0.748799 0.975191 -0.162790
C69   C     C_1   0.301799 0.445288 0.390827 0.212673
C70   C     C_1   0.889665 0.749967 0.778971 -0.135458
C71   C     C_1   0.889676 0.250051 0.778960 -0.135486
C72   C     C_1   0.389555 0.249913 0.778958 -0.136844
C73   C     C_R   0.650294 0.250035 0.300565 0.820838
C74   C     C_1   0.389682 0.750006 0.778956 -0.136425
C75   C     C_1   0.610629 0.250041 0.221083 -0.145277
C76   C     C_1   0.610778 0.749800 0.221104 -0.147998
C77   C     C_1   0.110756 0.750094 0.221098 -0.143161
C78   C     C_1   0.110742 0.249897 0.221108 -0.142834
C79   C     C_3   0.005649 0.704394 0.975354 -0.153223
C80   C     C_3   0.014054 0.291448 0.975411 -0.153735
C81   C     C_3   0.512513 0.207743 0.975335 -0.153976
C82   C     C_3   0.511707 0.792624 0.975417 -0.153836
C83   C     C_3   0.964146 0.749907 0.927057 0.198488
C84   C     C_R   0.150315 0.249953 0.300585 0.825195
C85   C     C_3   0.964152 0.250110 0.927054 0.198740
C86   C     C_3   0.463820 0.249832 0.927029 0.199434
C87   C     C_3   0.464132 0.749939 0.927044 0.199325
C88   C     C_3   0.561530 0.250010 0.024930 -0.162991
C89   C     C_3   0.561841 0.750975 0.024961 -0.164091
C90   C     C_3   0.061250 0.742152 0.024971 -0.164246
C91   C     C_3   0.061846 0.248472 0.024979 -0.165570
C92   C     C_3   0.536825 0.249888 0.073047 0.200840
C93   C     C_3   0.537141 0.749832 0.073067 0.201335
C94   C     C_3   0.037158 0.749968 0.073074 0.200309
C95   C     C_R   0.150313 0.750042 0.300569 0.825211
C96   C     C_3   0.037147 0.250043 0.073077 0.200077
C97   C     C_3   0.019091 0.787662 0.975347 -0.163717
C98   C     C_3   0.011289 0.207137 0.975297 -0.163640
C99   C     C_3   0.512182 0.292098 0.975307 -0.165579
C100  C     C_3   0.513610 0.708290 0.975264 -0.165649
C101  C     C_R   0.849723 0.749959 0.699456 0.824872
C102  C     C_R   0.849722 0.250047 0.699440 0.824036
C103  C     C_R   0.349707 0.249952 0.699451 0.822202
C104  C     C_R   0.349720 0.750043 0.699439 0.822082
C105  C     C_3   0.488141 0.291970 0.024738 -0.162350
C106  C     C_3   0.672725 0.470776 0.366569 -0.477654
C107  C     C_3   0.489584 0.707151 0.024697 -0.162330
C108  C     C_3   0.995674 0.795472 0.024779 -0.162764
C109  C     C_3   0.987262 0.208716 0.024717 -0.162238
C110  C     C_1   0.923329 0.749934 0.845841 -0.079390
C111  C     C_1   0.923340 0.250086 0.845833 -0.079574
C112  C     C_1   0.423107 0.249863 0.845823 -0.081090
C113  C     C_1   0.423335 0.749981 0.845827 -0.080829
C114  C     C_1   0.577320 0.249974 0.154232 -0.085163
C115  C     C_1   0.577568 0.749785 0.154253 -0.084938
C116  C     C_1   0.077561 0.750045 0.154252 -0.083235
C117  C     C_3   0.672743 0.529188 0.366570 -0.477656
C118  C     C_1   0.077546 0.249953 0.154259 -0.083257
C119  C     C_R   0.495316 0.731485 0.437648 0.083612
C120  C     C_R   0.495241 0.268388 0.437565 0.083308
C121  C     C_R   0.998654 0.224004 0.444232 0.089915
C122  C     C_R   0.003738 0.782471 0.455813 0.089864
C123  C     C_R   0.551923 0.754154 0.495683 -0.067400
C124  C     C_R   0.551929 0.245861 0.495681 -0.067290
C125  C     C_R   0.051650 0.253772 0.495139 -0.070583
C126  C     C_R   0.053877 0.748631 0.498915 -0.073424
C127  C     C_R   0.551083 0.783574 0.548347 -0.222453
C128  C     C_3   0.172598 0.970775 0.366594 -0.477870
C129  C     C_R   0.551195 0.216540 0.548457 -0.222191
C130  C     C_R   0.046778 0.288964 0.539753 -0.220711
C131  C     C_R   0.048315 0.712785 0.542541 -0.221697
C132  C     C_R   0.497364 0.783555 0.548431 -0.212944
C133  C     C_R   0.497480 0.216533 0.548550 -0.213197
C134  C     C_R   0.993110 0.288850 0.539960 -0.213736
C135  C     C_R   0.994385 0.712876 0.542757 -0.217678
C136  C     C_R   0.443817 0.754136 0.495839 -0.099635
C137  C     C_R   0.443832 0.245832 0.495861 -0.099528
C138  C     C_R   0.943717 0.253534 0.495583 -0.101304
C139  C     C_3   0.172614 0.029187 0.366595 -0.477662
C140  C     C_R   0.945215 0.748893 0.499489 -0.102582
C141  C     C_R   0.442268 0.731567 0.437742 0.095339
C142  C     C_R   0.442203 0.268290 0.437680 0.095453
C143  C     C_R   0.945693 0.223891 0.444539 0.104912
C144  C     C_R   0.951998 0.782714 0.456250 0.116282
C145  C     C_3   0.423196 0.678866 0.404689 -0.112184
C146  C     C_3   0.422949 0.320923 0.404444 -0.111832
C147  C     C_3   0.935245 0.167512 0.428088 -0.128212
C148  C     C_3   0.923615 0.828582 0.406275 -0.127641
C149  C     C_R   0.889989 0.749962 0.500077 0.809253
C150  C     C_3   0.488480 0.207617 0.024778 -0.160434
C151  C     C_R   0.890062 0.250201 0.499808 0.805834
C152  C     C_R   0.390010 0.249650 0.499722 0.799491
C153  C     C_R   0.390006 0.750333 0.499708 0.799697
C154  C     C_3   0.481733 0.678993 0.404255 -0.485122
C155  C     C_3   0.481465 0.320805 0.403973 -0.485384
C156  C     C_3   0.993459 0.167886 0.427159 -0.482903
C157  C     C_3   0.982666 0.827803 0.405458 -0.490501
C158  C     C_R   0.753440 0.973344 0.448392 0.021606
C159  C     C_R   0.753127 0.026273 0.447973 0.024517
C160  C     C_R   0.248247 0.473922 0.446551 0.017247
H1    H     H_    0.592846 0.804329 0.591843 0.175933
H2    H     H_    0.427164 0.349443 0.444419 0.178324
H3    H     H_    0.943599 0.145192 0.475747 0.174532
H4    H     H_    0.922869 0.862769 0.435855 0.170240
H5    H     H_    0.518195 0.650400 0.443126 0.194943
H6    H     H_    0.517833 0.349485 0.442723 0.195035
H7    H     H_    0.034000 0.145524 0.473579 0.190388
H8    H     H_    0.014367 0.861470 0.433954 0.195279
H9    H     H_    0.471424 0.679428 0.348107 0.204679
H10   H     H_    0.471133 0.320246 0.347814 0.204637
H11   H     H_    0.983537 0.160390 0.371996 0.206064
H12   H     H_    0.593034 0.195884 0.592029 0.175997
H13   H     H_    0.973262 0.817866 0.351152 0.206206
H14   H     H_    0.719322 0.953206 0.572697 0.173326
H15   H     H_    0.719335 0.046956 0.572577 0.173481
H16   H     H_    0.252399 0.453060 0.599907 0.171872
H17   H     H_    0.252423 0.547064 0.599906 0.171944
H18   H     H_    0.706644 0.453743 0.357029 0.194961
H19   H     H_    0.706672 0.546135 0.357030 0.194877
H20   H     H_    0.206469 0.953743 0.356979 0.195010
H21   H     H_    0.206495 0.046136 0.356979 0.195019
H22   H     H_    0.624184 0.453990 0.332551 0.210673
H23   H     H_    0.085451 0.314834 0.577029 0.177133
H24   H     H_    0.624213 0.546029 0.332552 0.210705
H25   H     H_    0.124056 0.953988 0.332639 0.210356
H26   H     H_    0.124082 0.046028 0.332640 0.210245
H27   H     H_    0.889813 0.764106 0.953736 0.135480
H28   H     H_    0.888718 0.253016 0.953716 0.135249
H29   H     H_    0.388338 0.249573 0.953688 0.135203
H30   H     H_    0.388683 0.747909 0.953714 0.135494
H31   H     H_    0.479279 0.172907 0.046158 0.136406
H32   H     H_    0.477561 0.825659 0.046275 0.136396
H33   H     H_    0.967634 0.681207 0.046167 0.138703
H34   H     H_    0.085521 0.685021 0.576840 0.177991
H35   H     H_    0.981850 0.328309 0.046265 0.140281
H36   H     H_    0.478654 0.326574 0.046082 0.134095
H37   H     H_    0.481023 0.672035 0.045993 0.134141
H38   H     H_    0.992105 0.832890 0.046137 0.134423
H39   H     H_    0.976780 0.174726 0.046021 0.134620
H40   H     H_    0.033708 0.818662 0.953988 0.134899
H41   H     H_    0.019495 0.171849 0.953900 0.134795
H42   H     H_    0.521393 0.326809 0.953941 0.133125
H43   H     H_    0.523738 0.674111 0.953847 0.133254
H44   H     H_    0.612352 0.250113 0.046479 0.133802
H45   H     H_    0.499195 0.804298 0.591963 0.178652
H46   H     H_    0.612666 0.751873 0.046552 0.136986
H47   H     H_    0.111577 0.735758 0.046569 0.137584
H48   H     H_    0.112666 0.247178 0.046581 0.136151
H49   H     H_    0.009219 0.666975 0.953998 0.141726
H50   H     H_    0.024537 0.325439 0.954110 0.141204
H51   H     H_    0.522000 0.173138 0.953992 0.140890
H52   H     H_    0.520268 0.827742 0.954125 0.140991
H53   H     H_    0.277797 0.680480 0.172678 0.262916
H54   H     H_    0.239816 0.711745 0.210059 0.271371
H55   H     H_    0.267111 0.749281 0.165634 0.248551
H56   H     H_    0.499387 0.195877 0.592158 0.178576
H57   H     H_    0.340731 0.757872 0.302503 0.223329
H58   H     H_    0.378966 0.727122 0.265585 0.220450
H59   H     H_    0.358007 0.640199 0.299219 0.204854
H60   H     H_    0.320692 0.671865 0.335817 0.235480
H61   H     H_    0.239632 0.287653 0.210005 0.271658
H62   H     H_    0.277486 0.318808 0.172460 0.263116
H63   H     H_    0.267008 0.249994 0.165693 0.247732
H64   H     H_    0.378808 0.272352 0.265513 0.220488
H65   H     H_    0.340697 0.241712 0.302590 0.223275
H66   H     H_    0.320424 0.327817 0.335592 0.235492
H67   H     H_    0.991789 0.314685 0.577298 0.179633
H68   H     H_    0.357617 0.359367 0.298837 0.204791
H69   H     H_    0.790800 0.134775 0.201642 0.265072
H70   H     H_    0.748725 0.172440 0.228693 0.279279
H71   H     H_    0.770912 0.201015 0.173007 0.241669
H72   H     H_    0.842525 0.229782 0.304076 0.225063
H73   H     H_    0.884810 0.193367 0.276782 0.217917
H74   H     H_    0.876758 0.114080 0.337427 0.200813
H75   H     H_    0.834849 0.151115 0.363762 0.237636
H76   H     H_    0.747266 0.767452 0.227614 0.272656
H77   H     H_    0.781231 0.790828 0.181146 0.262163
H78   H     H_    0.991636 0.685125 0.577105 0.180666
H79   H     H_    0.780754 0.722894 0.197024 0.247484
H80   H     H_    0.888246 0.759135 0.287294 0.218887
H81   H     H_    0.853968 0.736053 0.333072 0.221711
H82   H     H_    0.820838 0.825875 0.337179 0.237237
H83   H     H_    0.853699 0.849724 0.291016 0.201611
H84   H     H_    0.427476 0.650416 0.444737 0.178120
N1    N     N_1   0.874991 0.576615 0.697014 -0.194435
N2    N     N_1   0.907968 0.926170 0.534944 -0.224110
N3    N     N_1   0.346997 0.573216 0.402029 -0.245579
N4    N     N_1   0.346978 0.426567 0.401970 -0.245652
N5    N     N_1   0.874937 0.423412 0.697028 -0.194269
N6    N     N_1   0.375071 0.076614 0.697000 -0.194078
N7    N     N_1   0.375017 0.923413 0.697013 -0.193984
N8    N     N_1   0.746085 0.072462 0.296882 -0.216784
N9    N     N_1   0.749390 0.923794 0.300259 -0.216556
N10   N     N_1   0.139547 0.575388 0.268915 -0.208000
N11   N     N_1   0.139534 0.424549 0.268886 -0.208356
N12   N     N_1   0.906590 0.074648 0.532247 -0.232970
O1    O     O_3   0.749980 0.749980 0.500000 -0.481903
O2    O     O_R   0.612630 0.280380 0.456900 -0.642122
O3    O     O_R   0.112630 0.219620 0.456900 -0.641549
O4    O     O_R   0.112630 0.780380 0.456900 -0.642496
O5    O     O_R   0.698160 0.780350 0.335610 -0.639984
O6    O     O_R   0.698160 0.219650 0.335610 -0.638140
O7    O     O_R   0.198160 0.280350 0.335610 -0.639272
O8    O     O_R   0.198160 0.719650 0.335610 -0.639187
O9    O     O_R   0.801810 0.780340 0.664390 -0.639800
O10   O     O_R   0.801810 0.219660 0.664390 -0.639610
O11   O     O_R   0.301810 0.280340 0.664390 -0.640746
O12   O     O_3   0.749980 0.250020 0.500000 -0.481481
O13   O     O_R   0.301810 0.719660 0.664390 -0.640366
O14   O     O_R   0.637440 0.719620 0.335610 -0.640408
O15   O     O_R   0.637440 0.280380 0.335610 -0.641039
O16   O     O_R   0.137440 0.219620 0.335610 -0.641013
O17   O     O_R   0.137440 0.780380 0.335610 -0.641583
O18   O     O_R   0.862520 0.719620 0.664390 -0.628660
O19   O     O_R   0.862520 0.280380 0.664390 -0.629031
O20   O     O_R   0.362520 0.219620 0.664390 -0.629792
O21   O     O_R   0.362520 0.780380 0.664390 -0.629819
O22   O     O_R   0.844240 0.780350 0.456900 -0.651033
O23   O     O_3   0.249980 0.249980 0.500000 -0.481395
O24   O     O_R   0.844240 0.219650 0.456900 -0.652013
O25   O     O_R   0.344240 0.280350 0.456900 -0.652160
O26   O     O_R   0.344240 0.719650 0.456900 -0.652193
O27   O     O_R   0.655730 0.780340 0.543100 -0.649105
O28   O     O_R   0.655730 0.219660 0.543100 -0.648986
O29   O     O_R   0.155730 0.280340 0.543100 -0.647591
O30   O     O_R   0.155730 0.719660 0.543100 -0.648392
O31   O     O_R   0.758800 0.865790 0.456890 -0.639498
O32   O     O_R   0.758800 0.134210 0.456890 -0.641243
O33   O     O_R   0.258800 0.365790 0.456890 -0.640249
O34   O     O_3   0.249980 0.750020 0.500000 -0.481631
O35   O     O_R   0.258800 0.634210 0.456890 -0.640369
O36   O     O_R   0.698070 0.634180 0.456910 -0.641461
O37   O     O_R   0.698070 0.365820 0.456910 -0.641551
O38   O     O_R   0.198070 0.134180 0.456910 -0.641959
O39   O     O_R   0.198070 0.865820 0.456910 -0.641629
O40   O     O_R   0.741170 0.865780 0.543090 -0.648641
O41   O     O_R   0.741170 0.134220 0.543090 -0.648192
O42   O     O_R   0.241170 0.365780 0.543090 -0.649457
O43   O     O_R   0.241170 0.634220 0.543090 -0.649606
O44   O     O_R   0.801880 0.634180 0.543110 -0.635243
O45   O     O_R   0.887330 0.719620 0.543100 -0.645115
O46   O     O_R   0.801880 0.365820 0.543110 -0.634851
O47   O     O_R   0.301880 0.134180 0.543110 -0.634073
O48   O     O_R   0.301880 0.865820 0.543110 -0.634076
O49   O     O_R   0.887330 0.280380 0.543100 -0.643753
O50   O     O_R   0.387330 0.219620 0.543100 -0.643940
O51   O     O_R   0.387330 0.780380 0.543100 -0.643876
O52   O     O_R   0.612630 0.719620 0.456900 -0.641979
Zn1   Zn    Zn3+2 0.824140 0.706600 0.561580 0.981822
Zn2   Zn    Zn3+2 0.737390 0.206640 0.561570 0.967804
Zn3   Zn    Zn3+2 0.237390 0.293360 0.561570 0.966384
Zn4   Zn    Zn3+2 0.237390 0.706640 0.561570 0.966271
Zn5   Zn    Zn3+2 0.675820 0.706600 0.438430 0.961663
Zn6   Zn    Zn3+2 0.675820 0.293400 0.438430 0.961850
Zn7   Zn    Zn3+2 0.175820 0.206600 0.438430 0.963584
Zn8   Zn    Zn3+2 0.175820 0.793400 0.438430 0.963450
Zn9   Zn    Zn3+2 0.824140 0.293400 0.561580 0.982076
Zn10  Zn    Zn3+2 0.324140 0.206600 0.561580 0.979481
Zn11  Zn    Zn3+2 0.324140 0.793400 0.561580 0.979710
Zn12  Zn    Zn3+2 0.762580 0.793360 0.438420 0.967156
Zn13  Zn    Zn3+2 0.762580 0.206640 0.438420 0.966165
Zn14  Zn    Zn3+2 0.262580 0.293360 0.438420 0.964979
Zn15  Zn    Zn3+2 0.262580 0.706640 0.438420 0.964778
Zn16  Zn    Zn3+2 0.737390 0.793360 0.561570 0.968031

loop_
_geom_bond_atom_site_label_1
_geom_bond_atom_site_label_2
_ccdc_geom_bond_type
C72   C112  T    
C133  C137  A    
C62   N9    T    
C142  C146  S    
C13   C79   S    
C91   H48   S    
C25   O35   A    
C26   O36   A    
C128  C139  S    
C2    H32   S    
C103  O20   A    
C138  C143  A    
C24   C96   S    
C19   O3    A    
C53   H61   S    
C82   C87   S    
C19   O29   A    
C104  O13   A    
C79   C90   S    
C129  H12   S    
O18   Zn1   S    
C91   C96   S    
C128  H20   S    
C103  O11   A    
C81   C86   S    
C139  H21   S    
C141  C145  S    
O12   Zn6   S    
C59   C60   S    
C98   C109  S    
C73   C75   S    
C97   H40   S    
C130  C134  A    
C21   O40   A    
C88   C99   S    
O31   Zn12  S    
C157  H8    S    
C151  O49   A    
C128  H25   S    
O51   Zn11  S    
C32   C139  S    
C73   O15   A    
C24   H35   S    
C19   C125  S    
C120  C155  S    
C49   H57   S    
C136  C141  A    
C86   C99   S    
C129  C133  A    
C81   H51   S    
C71   C102  S    
C14   C158  S    
C52   H64   S    
C149  O45   A    
C99   H42   S    
C158  C159  A    
C119  C141  A    
C109  H39   S    
C22   O41   A    
O11   Zn3   S    
C80   H50   S    
C66   N2    T    
C55   H72   S    
C7    C25   S    
O34   Zn15  S    
C6    C160  A    
O2    Zn6   S    
C72   C103  S    
C119  C123  A    
C138  C151  S    
C53   H63   S    
C96   C109  S    
C33   C38   A    
C13   C94   S    
C24   C46   S    
C134  H67   S    
C136  C153  S    
C50   H55   S    
C61   N8    T    
C56   H69   S    
C12   C159  S    
O41   Zn2   S    
C87   C113  S    
C81   C88   S    
O52   Zn5   S    
O38   Zn7   S    
C44   N5    T    
O5    Zn12  S    
C51   H68   S    
C41   C45   S    
C31   C36   A    
C117  H19   S    
C48   H59   S    
C137  C142  A    
C121  C156  S    
C16   C160  S    
C28   O38   A    
C76   C115  T    
C70   C101  S    
C57   H29   S    
C82   C89   S    
O26   Zn15  S    
O23   Zn14  S    
C78   C118  T    
C13   C35   S    
C2    C68   S    
C130  H23   S    
C100  H43   S    
C8    H14   S    
C14   C62   S    
C58   H82   S    
C70   C110  T    
C67   N3    T    
C29   C38   S    
C154  H5    S    
C11   H17   S    
C47   N7    T    
C132  H45   S    
C91   C98   S    
C27   O37   A    
C82   H52   S    
C30   C34   A    
C34   C39   A    
C148  H4    S    
C39   C40   A    
O48   Zn11  S    
O29   Zn3   S    
C50   H53   S    
O30   Zn4   S    
C56   H71   S    
O16   Zn7   S    
C151  O24   A    
C28   O47   A    
C5    C9    A    
C123  C127  A    
C132  C136  A    
C15   C67   S    
C48   C145  S    
C51   H66   S    
C83   C110  S    
C32   C37   A    
C88   H44   S    
C23   O42   A    
C145  C154  S    
C152  O50   A    
O50   Zn10  S    
C101  O18   A    
C54   H74   S    
C52   C53   S    
C74   C104  S    
C87   C100  S    
O14   Zn5   S    
C54   C55   S    
C153  O26   A    
C1    C76   S    
O37   Zn6   S    
C23   O33   A    
C104  O21   A    
O23   Zn3   S    
O13   Zn4   S    
C59   H80   S    
O9    Zn16  S    
C147  H3    S    
O7    Zn14  S    
C28   C37   S    
C43   N1    T    
O39   Zn8   S    
C17   O52   A    
O34   Zn11  S    
C9    H15   S    
C148  C157  S    
C37   C41   A    
O10   Zn2   S    
C10   C11   A    
C29   O48   A    
O43   Zn4   S    
C40   C44   S    
C49   C50   S    
C68   C87   S    
C60   H77   S    
C140  C149  S    
C106  H18   S    
O32   Zn13  S    
O3    Zn7   S    
C105  H36   S    
C55   C56   S    
O34   Zn4   S    
C41   C42   A    
C98   H41   S    
C29   O39   A    
O47   Zn10  S    
C117  H24   S    
C73   O6    A    
O23   Zn7   S    
C146  H2    S    
C27   O46   A    
C3    C7    A    
C30   C31   A    
C63   N10   T    
O1    Zn16  S    
O27   Zn16  S    
C150  H31   S    
O44   Zn1   S    
O23   Zn10  S    
C146  C155  S    
C137  C152  S    
C68   C107  S    
C102  O19   A    
C139  H26   S    
C90   C97   S    
C4    C8    A    
C64   N11   T    
C13   H33   S    
O34   Zn8   S    
C90   C94   S    
C135  C140  A    
C16   C69   S    
C89   C100  S    
C107  H37   S    
O28   Zn2   S    
C51   C146  S    
C53   H62   S    
C74   C113  T    
C51   C52   S    
C145  H84   S    
C7    C11   A    
C20   C126  S    
C80   C85   S    
O42   Zn3   S    
C89   H46   S    
C68   H30   S    
O4    Zn8   S    
C26   O44   A    
C60   H79   S    
C147  C156  S    
O24   Zn13  S    
C48   C49   S    
C119  C154  S    
C106  C117  S    
C92   C150  S    
O15   Zn6   S    
C2    C82   S    
C48   H60   S    
C79   H49   S    
C101  O9    A    
C35   C83   S    
C133  H56   S    
C140  C144  A    
C85   C111  S    
C6    C10   A    
C27   C36   S    
C12   C65   S    
C95   O17   A    
C135  H78   S    
C49   H58   S    
C32   C33   A    
C80   C91   S    
C58   C59   S    
C79   C83   S    
C12   C61   S    
C155  H10   S    
O19   Zn9   S    
C122  C157  S    
C94   C116  S    
C124  C129  A    
C108  H38   S    
C58   H83   S    
C18   O2    A    
C17   O27   A    
C92   C105  S    
C18   O28   A    
C154  H9    S    
C35   H27   S    
C83   C97   S    
C46   C109  S    
C17   C123  S    
C81   C150  S    
C157  H13   S    
C57   C105  S    
O12   Zn9   S    
C121  C143  A    
C60   H76   S    
C122  C144  A    
C144  C148  S    
C143  C147  S    
C94   C108  S    
C96   C118  S    
C38   C42   A    
C131  C135  A    
C58   C148  S    
C50   H54   S    
C155  H6    S    
C15   C16   S    
C65   N12   T    
C57   C86   S    
C93   C115  S    
O1    Zn1   S    
C127  C132  A    
C106  H22   S    
C85   C98   S    
C121  C125  A    
C97   C108  S    
C125  C130  A    
C24   C80   S    
O6    Zn13  S    
C4    C158  A    
C5    C22   S    
C88   C92   S    
C8    C9    A    
C5    C159  A    
C71   C111  T    
C84   O7    A    
C35   C108  S    
C77   C116  T    
O45   Zn1   S    
C127  H1    S    
C89   C93   S    
C25   O43   A    
C54   H75   S    
C55   H73   S    
C26   C34   S    
O33   Zn14  S    
C10   H16   S    
C99   C105  S    
O49   Zn9   S    
C84   O16   A    
O46   Zn9   S    
C56   H70   S    
C36   C40   A    
C120  C142  A    
O36   Zn5   S    
C39   C43   S    
C1    O14   A    
C156  H7    S    
C77   C95   S    
C33   C128  S    
C122  C126  A    
C86   C112  S    
O1    Zn5   S    
C45   N6    T    
C69   N4    T    
O35   Zn15  S    
C57   C150  S    
C14   C66   S    
C75   C114  T    
C20   O30   A    
C149  O22   A    
C21   O31   A    
C22   O32   A    
C20   O4    A    
C46   C85   S    
C1    O5    A    
C12   C14   S    
O40   Zn16  S    
C3    C160  A    
C31   C106  S    
C131  H34   S    
O1    Zn12  S    
C3    C15   S    
C152  O25   A    
C95   O8    A    
C100  C107  S    
C2    C93   S    
O25   Zn14  S    
C134  C138  A    
C153  O51   A    
C30   C117  S    
O12   Zn13  S    
C156  H11   S    
C59   H81   S    
C93   C107  S    
C4    C21   S    
C126  C131  A    
C6    C23   S    
C42   C47   S    
O20   Zn10  S    
O21   Zn11  S    
O17   Zn8   S    
O22   Zn12  S    
C90   H47   S    
C78   C84   S    
C52   H65   S    
O8    Zn15  S    
C102  O10   A    
C15   C63   S    
C16   C64   S    
C46   H28   S    
C92   C114  S    
O12   Zn2   S    
C120  C124  A    
C18   C124  S    
C54   C147  S    
