data_mof_unit_6803.cif
_audit_creation_date              2012-12-11T14:52:39-0500
_audit_creation_method            fapswitch 2.2
_symmetry_space_group_name_H-M    P1
_symmetry_Int_Tables_number       1
_space_group_crystal_system       triclinic
_cell_length_a                    20.622063
_cell_length_b                    7.296943
_cell_length_c                    20.378258
_cell_angle_alpha                 90.438034
_cell_angle_beta                  101.209259
_cell_angle_gamma                 90.536839
_cell_volume                      3007.71084199

loop_
_atom_site_label
_atom_site_type_symbol
_atom_type_description
_atom_site_fract_x
_atom_site_fract_y
_atom_site_fract_z
_atom_type_partial_charge
O1    O     O_R   0.673670 0.377510 0.185950 -0.532772
O2    O     O_R   0.326330 0.622490 0.814050 -0.532814
O3    O     O_R   0.826330 0.877510 0.314050 -0.534050
O4    O     O_R   0.173670 0.122490 0.685950 -0.534011
O5    O     O_R   0.806260 0.705340 0.185590 -0.534537
O6    O     O_R   0.193740 0.294660 0.814410 -0.534536
O7    O     O_R   0.693740 0.205340 0.314410 -0.534473
O8    O     O_R   0.306260 0.794660 0.685590 -0.534461
C1    C     C_R   0.825522 0.539053 0.170901 0.705341
C2    C     C_R   0.174478 0.460947 0.829099 0.705373
C3    C     C_R   0.674500 0.038879 0.329144 0.714157
C4    C     C_R   0.325501 0.961121 0.670856 0.714155
O9    O     O_R   0.672940 0.707120 0.178050 -0.533930
O10   O     O_R   0.327060 0.292880 0.821950 -0.533942
O11   O     O_R   0.827060 0.207120 0.321950 -0.540809
O12   O     O_R   0.172940 0.792880 0.678050 -0.540805
O13   O     O_R   0.692060 0.879040 0.306460 -0.534580
O14   O     O_R   0.307940 0.120960 0.693540 -0.534574
O15   O     O_R   0.807940 0.379040 0.193540 -0.534615
O16   O     O_R   0.192060 0.620960 0.806460 -0.534642
C5    C     C_R   0.650163 0.537900 0.160379 0.712600
C6    C     C_R   0.349830 0.462102 0.839633 0.712530
C7    C     C_R   0.850140 0.040577 0.339873 0.710596
C8    C     C_R   0.149858 0.959423 0.660131 0.710660
O17   O     O_3   0.756430 0.544390 0.292140 -0.379089
O18   O     O_3   0.243570 0.455610 0.707860 -0.379060
O19   O     O_3   0.743570 0.044390 0.207860 -0.373416
O20   O     O_3   0.256430 0.955610 0.792140 -0.373454
V1    V     V_3+5 0.748810 0.818610 0.242180 1.413776
V2    V     V_3+5 0.251190 0.181390 0.757820 1.413796
V3    V     V_3+5 0.751190 0.318610 0.257820 1.407020
V4    V     V_3+5 0.248810 0.681390 0.742180 1.407042
C9    C     C_R   0.090772 0.957251 0.604371 -0.127881
C10   C     C_R   0.909220 0.042757 0.395642 -0.127615
C11   C     C_R   0.409811 0.470251 0.893438 -0.108333
C12   C     C_R   0.590181 0.529731 0.106579 -0.108387
C13   C     C_R   0.007000 0.216677 0.452616 0.468712
C14   C     C_R   0.992982 0.783376 0.547420 0.468413
C15   C     C_R   0.474336 0.613771 0.074088 0.444221
C16   C     C_R   0.525625 0.385858 0.925972 0.444241
C17   C     C_R   0.952894 0.192056 0.399342 -0.313261
C18   C     C_R   0.047083 0.807997 0.600689 -0.313110
C19   C     C_R   0.534057 0.612946 0.120236 -0.295191
C20   C     C_R   0.465904 0.386765 0.879818 -0.295234
C21   C     C_R   0.918411 0.915021 0.448450 0.102512
C22   C     C_R   0.081590 0.084954 0.551554 0.102636
C23   C     C_R   0.589079 0.451572 0.042479 0.102939
C24   C     C_R   0.410927 0.548498 0.957527 0.102818
C25   C     C_R   0.977690 0.923476 0.498900 -0.052788
C26   C     C_R   0.022304 0.076517 0.501110 -0.052515
C27   C     C_R   0.529180 0.458267 0.992055 -0.041865
C28   C     C_R   0.470802 0.541590 0.007976 -0.042001
H1    H     H_    0.057938 0.703586 0.638422 0.129901
H2    H     H_    0.942024 0.296456 0.361606 0.129648
H3    H     H_    0.463273 0.320215 0.831606 0.130461
H4    H     H_    0.536647 0.679285 0.168481 0.130539
C29   C     C_3   0.557565 0.073033 0.533629 -0.219695
C30   C     C_3   0.442436 0.926970 0.466371 -0.219678
C31   C     C_3   0.942597 0.569583 0.966402 -0.218959
C32   C     C_3   0.057403 0.430417 0.033598 -0.218955
C33   C     C_3   0.525402 0.891538 0.550893 0.178791
C34   C     C_3   0.474598 0.108465 0.449108 0.178782
C35   C     C_3   0.974348 0.388467 0.949062 0.177609
C36   C     C_3   0.025653 0.611533 0.050939 0.177592
H5    H     H_    0.604685 0.134088 0.561107 0.128800
H6    H     H_    0.395316 0.865916 0.438894 0.128814
H7    H     H_    0.895612 0.627778 0.938943 0.129064
H8    H     H_    0.104388 0.372223 0.061057 0.129073
C37   C     C_1   0.371090 0.967920 0.625022 -0.184386
C38   C     C_1   0.628910 0.032081 0.374978 -0.184384
C39   C     C_1   0.128888 0.467431 0.874954 -0.183253
C40   C     C_1   0.871112 0.532569 0.125047 -0.183243
C41   C     C_3   0.488785 0.164433 0.523870 0.169085
C42   C     C_3   0.511215 0.835570 0.476131 0.169083
C43   C     C_3   0.011602 0.663816 0.976207 0.168666
C44   C     C_3   0.988398 0.336184 0.023793 0.168664
C45   C     C_3   0.457390 0.983950 0.541314 0.085977
C46   C     C_3   0.542610 0.016053 0.458687 0.085981
C47   C     C_3   0.042589 0.483669 0.958678 0.085954
C48   C     C_3   0.957411 0.516331 0.041322 0.085954
C49   C     C_1   0.409740 0.973132 0.587103 -0.022180
C50   C     C_1   0.590261 0.026870 0.412898 -0.022179
C51   C     C_1   0.090237 0.472645 0.912880 -0.022778
C52   C     C_1   0.909763 0.527356 0.087120 -0.022768
C53   C     C_3   0.139002 0.209807 0.544034 -0.636184
H9    H     H_    0.143228 0.218978 0.490702 0.197427
H10   H     H_    0.132679 0.347923 0.565017 0.237750
H11   H     H_    0.187460 0.155018 0.568856 0.166336
C54   C     C_3   0.861016 0.790112 0.455965 -0.636871
H12   H     H_    0.856743 0.781158 0.509288 0.197315
H13   H     H_    0.812554 0.844702 0.431072 0.166599
H14   H     H_    0.867404 0.651933 0.435070 0.237690
C55   C     C_3   0.347502 0.629979 0.971843 -0.661798
H15   H     H_    0.331131 0.552222 0.012259 0.207008
H16   H     H_    0.355124 0.777488 0.985059 0.240444
H17   H     H_    0.305051 0.622897 0.929417 0.169335
C56   C     C_3   0.652554 0.370536 0.028118 -0.661625
H18   H     H_    0.668756 0.448233 0.987593 0.206920
H19   H     H_    0.695056 0.378188 0.070482 0.169049
H20   H     H_    0.645089 0.222910 0.015036 0.240520
O21   O     O_3   0.039317 0.386143 0.464553 -0.532379
C57   C     C_3   0.049356 0.474005 0.405679 0.116918
H21   H     H_    0.004197 0.549968 0.382822 0.134732
H22   H     H_    0.062997 0.374932 0.368828 0.090420
C58   C     C_3   0.105424 0.613481 0.423841 -0.715780
H23   H     H_    0.151973 0.543474 0.446187 0.211527
H24   H     H_    0.112806 0.686641 0.378231 0.170645
H25   H     H_    0.093447 0.715159 0.460384 0.233978
O22   O     O_3   0.960714 0.613850 0.535528 -0.532270
C59   C     C_3   0.950205 0.526991 0.594430 0.116749
H26   H     H_    0.936260 0.626725 0.630917 0.090372
H27   H     H_    0.995260 0.451257 0.617793 0.134177
C60   C     C_3   0.894199 0.387337 0.576120 -0.715364
H28   H     H_    0.906618 0.284604 0.540153 0.233661
H29   H     H_    0.886279 0.315484 0.621802 0.170541
H30   H     H_    0.847787 0.456923 0.553032 0.211656
O23   O     O_3   0.421505 0.702187 0.092819 -0.554100
C61   C     C_3   0.398775 0.600613 0.142988 0.086938
H31   H     H_    0.435885 0.601474 0.190551 0.119010
H32   H     H_    0.387073 0.456010 0.126444 0.116062
C62   C     C_3   0.336156 0.687648 0.157369 -0.718701
H33   H     H_    0.297023 0.687208 0.111462 0.217756
H34   H     H_    0.317999 0.609236 0.196809 0.175939
H35   H     H_    0.346633 0.831283 0.175004 0.225051
O24   O     O_3   0.578400 0.296918 0.907331 -0.554074
C63   C     C_3   0.601121 0.397631 0.856954 0.086956
H36   H     H_    0.612760 0.542503 0.873170 0.115946
H37   H     H_    0.564036 0.395945 0.809374 0.119024
C64   C     C_3   0.663789 0.310337 0.842812 -0.718802
H38   H     H_    0.653383 0.166392 0.825527 0.225089
H39   H     H_    0.681922 0.388008 0.803187 0.175922
H40   H     H_    0.702912 0.311621 0.888729 0.217738
C65   C     C_3   0.555279 0.777719 0.611222 -0.810779
H41   H     H_    0.598001 0.699757 0.600424 0.210781
H42   H     H_    0.572347 0.869748 0.654900 0.211322
H43   H     H_    0.517449 0.682734 0.623920 0.218195
C66   C     C_3   0.444722 0.222285 0.388779 -0.810747
H44   H     H_    0.402000 0.300248 0.399577 0.210786
H45   H     H_    0.482552 0.317269 0.376081 0.218193
H46   H     H_    0.427654 0.130256 0.345100 0.211326
C67   C     C_3   0.944163 0.270719 0.888777 -0.810273
H47   H     H_    0.901348 0.191560 0.899675 0.212432
H48   H     H_    0.927170 0.360089 0.845115 0.209079
H49   H     H_    0.981786 0.176612 0.876007 0.218213
C68   C     C_3   0.055837 0.729281 0.111223 -0.810237
H50   H     H_    0.098652 0.808441 0.100325 0.212434
H51   H     H_    0.018214 0.823388 0.123993 0.218206
H52   H     H_    0.072830 0.639911 0.154885 0.209103
C69   C     C_3   0.522737 0.653910 0.444043 -0.809168
H53   H     H_    0.481667 0.560072 0.448516 0.228192
H54   H     H_    0.522394 0.673193 0.390007 0.211830
H55   H     H_    0.570928 0.596467 0.468569 0.218275
C70   C     C_3   0.477264 0.346093 0.555958 -0.809186
H56   H     H_    0.518334 0.439931 0.551485 0.228190
H57   H     H_    0.429073 0.403536 0.531432 0.218289
H58   H     H_    0.477607 0.326810 0.609994 0.211803
C71   C     C_3   0.976383 0.155279 0.055662 -0.807620
H59   H     H_    0.017435 0.063014 0.051516 0.227861
H60   H     H_    0.976294 0.176771 0.109616 0.211637
H61   H     H_    0.928257 0.094656 0.030734 0.218989
C72   C     C_3   0.023618 0.844721 0.944338 -0.807633
H62   H     H_    0.982566 0.936986 0.948484 0.227862
H63   H     H_    0.071743 0.905345 0.969267 0.218992
H64   H     H_    0.023706 0.823229 0.890385 0.211630

loop_
_geom_bond_atom_site_label_1
_geom_bond_atom_site_label_2
_ccdc_geom_bond_type
O17   V3    S    
C13   O21   S    
C4    C37   S    
C32   C47   S    
O1    C5    A    
O21   C57   S    
C36   C68   S    
O19   V1    S    
O13   V1    S    
O12   C8    A    
C58   H23   S    
O3    C7    A    
C1    C40   S    
C48   C52   S    
O15   V3    S    
C56   H20   S    
C61   H32   S    
C56   H18   S    
C3    C38   S    
C33   C65   S    
C14   C25   A    
C35   C47   S    
C53   H9    S    
O7    C3    A    
C6    C11   S    
C58   H24   S    
C55   H15   S    
C12   C23   A    
C9    C18   A    
O9    V1    S    
C14   C18   A    
C69   H54   S    
C18   H1    S    
C68   H50   S    
O4    C8    A    
C35   C44   S    
O1    V3    S    
C57   C58   S    
O2    V4    S    
C29   C41   S    
O3    V1    S    
C61   H31   S    
C62   H35   S    
C30   C45   S    
C68   H51   S    
C59   H26   S    
C67   H47   S    
C30   H6    S    
C71   H59   S    
C23   C27   A    
C2    O16   A    
O2    C6    A    
C65   H43   S    
C42   C69   S    
O12   V4    S    
O14   V2    S    
C45   C49   S    
C14   O22   S    
C54   H13   S    
C21   C54   S    
C16   C20   A    
O5    V1    S    
C60   H30   S    
C31   H7    S    
C2    C39   S    
O11   C7    A    
C15   C28   A    
C55   H16   S    
C9    C22   A    
C36   C48   S    
C10   C17   A    
O10   V2    S    
C11   C24   A    
C56   H19   S    
C1    O15   A    
C72   H62   S    
C39   C51   T    
C53   H10   S    
C66   H46   S    
C44   C71   S    
O7    V3    S    
C24   C55   S    
C27   C28   A    
O8    V4    S    
O22   C59   S    
C67   H49   S    
C33   C45   S    
C5    C12   S    
O18   V4    S    
C72   H63   S    
C63   C64   S    
C15   O23   S    
O11   V3    S    
C32   C44   S    
C54   H14   S    
C61   C62   S    
O5    C1    A    
C66   H45   S    
C46   C50   S    
C21   C25   A    
O8    C4    A    
C7    C10   S    
C35   C67   S    
O9    C5    A    
C34   C41   S    
C10   C21   A    
C58   H25   S    
C70   H58   S    
C57   H22   S    
C11   C20   A    
C59   C60   S    
C62   H33   S    
C40   C52   T    
C30   C34   S    
C22   C53   S    
O6    V2    S    
C71   H61   S    
O24   C63   S    
C69   H55   S    
C70   H57   S    
C4    O14   A    
C54   H12   S    
C31   C43   S    
C72   H64   S    
C68   H52   S    
C30   C42   S    
C60   H28   S    
O16   V4    S    
C53   H11   S    
C3    O13   A    
C63   H37   S    
C29   C46   S    
C34   C46   S    
C44   C48   S    
C29   H5    S    
C31   C48   S    
O6    C2    A    
C15   C19   A    
C29   C33   S    
C33   C42   S    
C55   H17   S    
C16   C27   A    
C66   H44   S    
C22   C26   A    
C31   C35   S    
C8    C9    S    
C23   C56   S    
C32   C36   S    
C43   C72   S    
C64   H40   S    
C67   H48   S    
C64   H38   S    
O23   C61   S    
C47   C51   S    
C13   C26   A    
C20   H3    S    
O10   C6    A    
C65   H41   S    
C63   H36   S    
C16   O24   S    
O20   V2    S    
C36   C43   S    
C34   C66   S    
C13   C17   A    
C57   H21   S    
C38   C50   T    
C59   H27   S    
C17   H2    S    
C62   H34   S    
C37   C49   T    
C19   H4    S    
C24   C28   A    
C32   H8    S    
C71   H60   S    
C25   C26   A    
C42   C46   S    
C41   C70   S    
C65   H42   S    
C41   C45   S    
C12   C19   A    
C64   H39   S    
C70   H56   S    
C69   H53   S    
C43   C47   S    
O4    V2    S    
C60   H29   S    
