data_mof_unit_20340.cif
_audit_creation_date              2012-12-10T16:59:16-0500
_audit_creation_method            fapswitch 2.2
_symmetry_space_group_name_H-M    P1
_symmetry_Int_Tables_number       1
_space_group_crystal_system       triclinic
_cell_length_a                    7.744096
_cell_length_b                    8.554831
_cell_length_c                    27.728642
_cell_angle_alpha                 90.969914
_cell_angle_beta                  85.928755
_cell_angle_gamma                 93.870374
_cell_volume                      1828.05620313

loop_
_atom_site_label
_atom_site_type_symbol
_atom_type_description
_atom_site_fract_x
_atom_site_fract_y
_atom_site_fract_z
_atom_type_partial_charge
C1    C     C_R   0.546017 0.794867 0.498729 0.973568
C2    C     C_R   0.453983 0.205133 0.501271 0.973568
C3    C     C_R   0.514221 0.492794 0.897698 -0.116871
C4    C     C_R   0.485731 0.507223 0.102303 -0.116864
C5    C     C_R   0.600954 0.617720 0.871323 0.008977
C6    C     C_R   0.399006 0.382295 0.128679 0.008976
C7    C     C_R   0.685170 0.741408 0.895437 -0.183524
C8    C     C_R   0.314780 0.258609 0.104565 -0.183525
C9    C     C_R   0.432335 0.366252 0.872645 -0.141226
C10   C     C_R   0.567629 0.633762 0.127355 -0.141228
C11   C     C_R   0.507660 0.502302 0.646362 -0.081862
C12   C     C_R   0.492340 0.497701 0.353638 -0.081861
C13   C     C_R   0.583103 0.628418 0.024709 -0.029250
C14   C     C_R   0.416822 0.371605 0.975292 -0.029247
C15   C     C_R   0.408236 0.375775 0.026602 0.097907
C16   C     C_R   0.591694 0.624245 0.973399 0.097908
C17   C     C_R   0.491777 0.504233 0.051003 0.070029
C18   C     C_R   0.508159 0.495787 0.948998 0.070027
C19   C     C_R   0.663453 0.753255 0.050794 -0.322280
C20   C     C_R   0.336460 0.246775 0.949206 -0.322286
C21   C     C_R   0.652820 0.759080 0.101102 0.556638
C22   C     C_R   0.347119 0.240943 0.898897 0.556638
C23   C     C_R   0.502519 0.500510 0.593875 0.880943
C24   C     C_R   0.497481 0.499490 0.406125 0.880943
C25   C     C_R   0.680783 0.745105 0.945341 -0.227583
C26   C     C_R   0.319155 0.254912 0.054661 -0.227573
C27   C     C_2   0.570244 0.958463 0.497995 -0.376065
C28   C     C_2   0.429756 0.041537 0.502005 -0.376065
C29   C     C_R   0.599400 0.617611 0.821059 0.481460
C30   C     C_R   0.400579 0.382399 0.178942 0.481453
C31   C     C_R   0.437605 0.370254 0.821856 0.527588
C32   C     C_R   0.562387 0.629751 0.178143 0.527572
C33   C     C_R   0.651476 0.444916 0.717650 -0.135096
C34   C     C_R   0.348523 0.555091 0.282351 -0.135108
C35   C     C_R   0.649556 0.446530 0.667727 -0.226069
C36   C     C_R   0.350444 0.553476 0.332274 -0.226066
C37   C     C_R   0.369433 0.559885 0.675300 -0.200125
C38   C     C_R   0.630567 0.440117 0.324699 -0.200127
C39   C     C_R   0.371123 0.561806 0.725822 0.207377
C40   C     C_R   0.628875 0.438199 0.274178 0.207379
C41   C     C_R   0.513215 0.500871 0.746529 0.270314
C42   C     C_R   0.486783 0.499136 0.253471 0.270320
H1    H     H_    0.261944 0.603667 0.658017 0.169860
H2    H     H_    0.738054 0.396332 0.341983 0.169860
H3    H     H_    0.014059 0.383063 0.463447 0.191933
H4    H     H_    0.985940 0.616937 0.536553 0.191933
H5    H     H_    0.754000 0.837715 0.875776 0.195177
H6    H     H_    0.245957 0.162300 0.124228 0.195174
H7    H     H_    0.242539 0.598123 0.354083 0.169843
H8    H     H_    0.757462 0.401884 0.645918 0.169844
H9    H     H_    0.239763 0.600408 0.265870 0.154125
H10   H     H_    0.760235 0.399601 0.734131 0.154129
H11   H     H_    0.738043 0.849884 0.033629 0.158772
H12   H     H_    0.261833 0.150163 0.966371 0.158769
H13   H     H_    0.748301 0.846325 0.960360 0.147869
H14   H     H_    0.251642 0.153686 0.039642 0.147866
H15   H     H_    0.702761 0.009954 0.494169 0.180043
H16   H     H_    0.297239 0.990046 0.505831 0.180043
N1    N     N_R   0.518142 0.495506 0.797722 -0.361129
N2    N     N_R   0.481852 0.504500 0.202278 -0.361125
N3    N     N_2   0.950320 0.457960 0.486880 -0.176122
N4    N     N_2   0.049680 0.542040 0.513120 -0.176122
O1    O     O_R   0.389250 0.738570 0.503220 -0.613540
O2    O     O_R   0.610750 0.261430 0.496780 -0.613540
O3    O     O_R   0.678390 0.711630 0.494810 -0.628373
O4    O     O_R   0.321610 0.288370 0.505190 -0.628373
O5    O     O_R   0.355440 0.513440 0.575450 -0.622979
O6    O     O_R   0.644560 0.486560 0.424550 -0.622979
O7    O     O_R   0.644590 0.486500 0.567040 -0.628045
O8    O     O_R   0.355410 0.513500 0.432960 -0.628045
O9    O     O_2   0.675552 0.739719 0.795561 -0.584894
O10   O     O_2   0.324433 0.260290 0.204442 -0.584913
O11   O     O_2   0.638213 0.748238 0.203506 -0.500667
O12   O     O_2   0.361804 0.251758 0.796492 -0.500654
Zn1   Zn    Zn3+2 0.306940 0.517990 0.505620 0.946360
Zn2   Zn    Zn3+2 0.693060 0.482010 0.494380 0.946360
C43   C     C_3   0.226397 0.626784 0.758701 -0.427879
C44   C     C_3   0.088729 0.707860 0.733286 -0.797688
H17   H     H_    0.149846 0.804584 0.710393 0.262624
H18   H     H_    0.013629 0.622385 0.711001 0.250114
H19   H     H_    0.997620 0.759138 0.760871 0.301702
H20   H     H_    0.160654 0.530036 0.780763 0.226283
H21   H     H_    0.285258 0.714197 0.783807 0.221131
C45   C     C_3   0.773600 0.373219 0.241298 -0.427871
C46   C     C_3   0.911273 0.292149 0.266713 -0.797686
H22   H     H_    0.986375 0.377627 0.288996 0.250117
H23   H     H_    0.850161 0.195426 0.289607 0.262618
H24   H     H_    0.002379 0.240868 0.239127 0.301706
H25   H     H_    0.714737 0.285804 0.216193 0.221127
H26   H     H_    0.839340 0.469966 0.219235 0.226288
O13   O     O_3   0.740109 0.882236 0.124110 -0.567882
C47   C     C_3   0.641078 0.014655 0.123881 -0.210455
H27   H     H_    0.510295 0.990572 0.142660 0.185149
H28   H     H_    0.629168 0.055800 0.086491 0.134959
H29   H     H_    0.708338 0.111489 0.143777 0.188872
O14   O     O_3   0.259826 0.117793 0.875887 -0.567872
C48   C     C_3   0.358810 0.985347 0.876132 -0.210451
H30   H     H_    0.370647 0.944204 0.913527 0.134953
H31   H     H_    0.489625 0.009395 0.857369 0.185127
H32   H     H_    0.291558 0.888522 0.856231 0.188869

loop_
_geom_bond_atom_site_label_1
_geom_bond_atom_site_label_2
_ccdc_geom_bond_type
C8    C26   A    
C40   C45   S    
C34   C42   A    
C48   H30   S    
C24   O8    A    
C39   C41   A    
C43   C44   S    
C33   H10   S    
C34   H9    S    
O3    Zn2   S    
H4    N4    S    
C39   C43   S    
C19   C21   A    
C44   H18   S    
C9    C22   A    
C43   H21   S    
C31   N1    A    
C3    C18   A    
C23   O5    A    
C11   C37   A    
C14   C18   A    
C29   N1    A    
C30   N2    A    
C1    O3    A    
C12   C36   A    
C19   H11   S    
C40   C42   A    
N3    Zn2   S    
C45   H26   S    
C1    O1    A    
C48   H31   S    
C2    O2    A    
C5    C29   A    
C46   H23   S    
C10   C21   A    
C13   C19   A    
C14   C20   A    
C45   C46   S    
C41   N1    S    
C20   H12   S    
C27   H15   S    
C42   N2    S    
C32   O11   S    
C5    C7    A    
C9    C31   A    
C44   H17   S    
C15   C26   A    
C6    C8    A    
C3    C5    A    
C46   H22   S    
C23   O7    A    
C47   H29   S    
H3    N3    S    
C7    H5    S    
C37   H1    S    
C8    H6    S    
C38   H2    S    
C3    C9    A    
O14   C48   S    
C35   H8    S    
C47   H28   S    
O2    Zn2   S    
C4    C17   A    
C4    C6    A    
C6    C30   A    
C20   C22   A    
N4    Zn1   S    
O5    Zn1   S    
C45   H25   S    
C32   N2    A    
C4    C10   A    
O13   C47   S    
C48   H32   S    
C21   O13   S    
C46   H24   S    
C16   C25   A    
C15   C17   A    
C22   O14   S    
C25   H13   S    
C2    O4    A    
C26   H14   S    
C30   O10   S    
C28   H16   S    
O6    Zn2   S    
C12   C24   S    
C7    C25   A    
C13   C17   A    
C33   C41   A    
C11   C35   A    
C37   C39   A    
C38   C40   A    
C44   H19   S    
O1    Zn1   S    
C43   H20   S    
O4    Zn1   S    
C11   C23   S    
C47   H27   S    
C33   C35   A    
C34   C36   A    
C12   C38   A    
N3    N4    D    
C31   O12   S    
C24   O6    A    
C10   C32   A    
O7    Zn2   S    
O8    Zn1   S    
C16   C18   A    
C13   C16   A    
C27   C28   D    
C1    C27   S    
C14   C15   A    
C2    C28   S    
C36   H7    S    
C29   O9    S    
