data_mof_unit_46507.cif
_audit_creation_date              2012-12-11T14:35:54-0500
_audit_creation_method            fapswitch 2.2
_symmetry_space_group_name_H-M    P1
_symmetry_Int_Tables_number       1
_space_group_crystal_system       triclinic
_cell_length_a                    13.54871
_cell_length_b                    13.630651
_cell_length_c                    27.412864
_cell_angle_alpha                 90.798642
_cell_angle_beta                  90.59798
_cell_angle_gamma                 60.145202
_cell_volume                      4390.23173676

loop_
_atom_site_label
_atom_site_type_symbol
_atom_type_description
_atom_site_fract_x
_atom_site_fract_y
_atom_site_fract_z
_atom_type_partial_charge
C1    C     C_R   0.621095 0.100942 0.569849 0.542332
C2    C     C_1   0.660256 0.686888 0.654865 -0.032075
C3    C     C_3   0.372633 0.624886 0.187389 -0.132253
C4    C     C_3   0.033302 0.007876 0.132370 -0.053743
C5    C     C_3   0.736847 0.848543 0.694014 -0.122490
C6    C     C_3   0.326777 0.355153 0.189450 -0.134504
C7    C     C_3   0.324207 0.380475 0.319296 -0.055628
C8    C     C_3   0.066809 0.391384 0.415575 -0.093765
C9    C     C_3   0.234672 0.879203 0.762172 -0.143020
C10   C     C_3   0.093979 0.138924 0.736231 -0.170395
C11   C     C_R   0.601132 0.777127 0.567840 0.540789
C12   C     C_3   0.178824 0.065827 0.776498 0.274312
C13   C     C_1   0.093737 0.203219 0.902088 0.006889
C14   C     C_1   0.237469 0.135220 0.618604 0.009328
C15   C     C_3   0.059669 0.247314 0.767734 -0.174039
C16   C     C_3   0.144458 0.171835 0.807746 0.057150
C17   C     C_3   0.157578 0.257815 0.744782 0.332398
C18   C     C_3   0.191243 0.151282 0.713590 0.019076
C19   C     C_1   0.637907 0.720333 0.613591 -0.018066
C20   C     C_3   0.239996 0.183779 0.784573 0.104776
C21   C     C_3   0.277234 0.075806 0.753466 -0.118877
C22   C     C_1   0.120244 0.184865 0.859892 0.008592
C23   C     C_R   0.279900 0.120979 0.569934 0.537203
C24   C     C_1   0.213577 0.143245 0.661176 -0.004131
C25   C     C_3   0.625638 0.274742 0.739622 0.091656
C26   C     C_3   0.548179 0.258607 0.776011 -0.087013
C27   C     C_1   0.686558 0.209965 0.904099 -0.002727
C28   C     C_1   0.639277 0.132233 0.617638 -0.002386
C29   C     C_3   0.729178 0.210830 0.773126 0.093197
C30   C     C_3   0.689258 0.560102 0.768967 -0.123030
C31   C     C_3   0.653912 0.192096 0.809564 0.000119
C32   C     C_3   0.759769 0.098665 0.746873 0.260550
C33   C     C_3   0.655832 0.164158 0.712631 0.066986
C34   C     C_3   0.683706 0.080276 0.782865 0.096946
C35   C     C_R   0.621273 0.096578 0.430381 0.541051
C36   C     C_3   0.580689 0.145719 0.749042 0.109798
C37   C     C_1   0.665886 0.201921 0.862048 -0.036495
C38   C     C_1   0.649859 0.149827 0.659923 -0.002050
C39   C     C_R   0.738483 0.681179 0.362550 -0.148296
C40   C     C_R   0.752781 0.658325 0.312317 0.064946
C41   C     C_3   0.680986 0.653479 0.804618 0.022030
C42   C     C_R   0.766404 0.649579 0.209595 -0.006225
C43   C     C_R   0.858448 0.636285 0.238506 -0.094067
C44   C     C_R   0.853732 0.637367 0.289409 0.120231
C45   C     C_R   0.773495 0.643288 0.158094 0.236914
C46   C     C_R   0.683105 0.646629 0.130975 0.009652
C47   C     C_R   0.602040 0.773157 0.430945 0.529627
C48   C     C_R   0.559003 0.682770 0.358939 0.119368
C49   C     C_R   0.563582 0.676069 0.307378 0.041965
C50   C     C_R   0.660944 0.666006 0.284060 -0.030668
C51   C     C_R   0.470934 0.686557 0.278589 0.108887
C52   C     C_3   0.591114 0.654004 0.739314 0.077785
C53   C     C_R   0.472142 0.696622 0.227506 0.295602
C54   C     C_R   0.570079 0.685518 0.204349 0.025962
C55   C     C_R   0.666667 0.664328 0.232650 -0.073619
C56   C     C_R   0.576062 0.689205 0.153215 0.064988
C57   C     C_R   0.637012 0.705551 0.384968 -0.029287
C58   C     C_R   0.193372 0.070148 0.361163 -0.158178
C59   C     C_R   0.275324 0.122350 0.431759 0.536552
C60   C     C_R   0.170337 0.080537 0.310895 0.050683
C61   C     C_R   0.148486 0.090756 0.208169 0.024059
C62   C     C_R   0.145961 0.003856 0.234360 -0.062636
C63   C     C_3   0.676309 0.666013 0.707438 0.044436
C64   C     C_R   0.150048 0.001945 0.285479 0.114610
C65   C     C_R   0.127632 0.102950 0.157204 0.270139
C66   C     C_R   0.115873 0.200711 0.133989 0.002662
C67   C     C_R   0.182703 0.252958 0.362189 0.276518
C68   C     C_R   0.183583 0.253643 0.310962 -0.020317
C69   C     C_R   0.174521 0.167854 0.285184 -0.067602
C70   C     C_R   0.197763 0.334955 0.285024 0.296218
C71   C     C_3   0.777151 0.573349 0.737205 -0.171409
C72   C     C_R   0.198077 0.333006 0.233903 0.273080
C73   C     C_R   0.173297 0.257038 0.208560 -0.039791
C74   C     C_3   0.580982 0.746894 0.775103 -0.086875
C75   C     C_R   0.165209 0.171961 0.233983 -0.044803
C76   C     C_R   0.149262 0.269627 0.158736 -0.183560
C77   C     C_R   0.209097 0.151233 0.385988 -0.036080
C78   C     C_R   0.608952 0.230997 0.366627 -0.173908
C79   C     C_R   0.624366 0.251320 0.318160 0.001787
C80   C     C_R   0.635479 0.291051 0.218924 -0.002290
C81   C     C_R   0.592851 0.380905 0.252675 -0.137960
C82   C     C_R   0.585964 0.361449 0.302016 -0.143996
C83   C     C_3   0.766875 0.666314 0.773451 0.128547
C84   C     C_R   0.639309 0.310079 0.169520 -0.177160
C85   C     C_3   0.669235 0.757162 0.743325 0.333179
C86   C     C_R   0.681141 0.219554 0.136119 -0.008969
C87   C     C_R   0.700501 0.028915 0.347650 0.099842
C88   C     C_R   0.727110 0.048086 0.301103 0.057684
C89   C     C_R   0.678461 0.159605 0.284917 -0.000610
C90   C     C_R   0.800148 0.957692 0.270029 0.129414
C91   C     C_R   0.796964 0.976407 0.219489 0.098902
C92   C     C_R   0.729427 0.087133 0.201728 0.040456
C93   C     C_R   0.681491 0.179269 0.235178 -0.007425
C94   C     C_R   0.714974 0.109494 0.151501 0.100060
C95   C     C_1   0.695724 0.609264 0.899989 -0.002112
C96   C     C_1   0.687172 0.635445 0.857593 -0.029627
C97   C     C_R   0.643691 0.120565 0.381168 -0.000171
C98   C     C_R   0.048224 0.236925 0.949972 0.546891
C99   C     C_R   0.711285 0.562878 0.948128 0.548863
C100  C     C_R   0.721172 0.225798 0.951437 0.542940
C101  C     C_R   0.050385 0.243369 0.088013 0.551131
C102  C     C_R   0.707001 0.577812 0.085685 0.547184
C103  C     C_R   0.718961 0.235217 0.089171 0.537767
C104  C     C_3   0.110966 0.442742 0.758376 -0.117746
C105  C     C_3   0.946526 0.972101 0.767000 -0.121341
C106  C     C_3   0.961433 0.554889 0.133226 -0.081636
Cr1   Cr    Cr6+3 0.417550 0.169090 0.500530 1.054601
Cr2   Cr    Cr6+3 0.669180 0.913420 0.499920 1.012235
Cr3   Cr    Cr6+3 0.413260 0.917540 0.499520 1.018030
Cr4   Cr    Cr6+3 0.909170 0.177380 0.020380 1.037525
Cr5   Cr    Cr6+3 0.912710 0.429210 0.018220 1.024349
Cr6   Cr    Cr6+3 0.657170 0.432570 0.019030 1.015898
H1    H     H_    0.972524 0.318397 0.774693 0.111897
H2    H     H_    0.566588 0.300676 0.392351 0.117808
H3    H     H_    0.564056 0.465980 0.240786 0.103975
H4    H     H_    0.549431 0.432173 0.327405 0.127774
H5    H     H_    0.502030 0.818200 0.790499 0.111521
H6    H     H_    0.696120 0.479516 0.780667 0.155019
H7    H     H_    0.036322 0.118590 0.714882 0.129415
H8    H     H_    0.364656 0.005252 0.746666 0.110167
H9    H     H_    0.913435 0.671443 0.765593 0.208260
H10   H     H_    0.903778 0.615055 0.818536 0.224217
H11   H     H_    0.347023 0.247128 0.791453 0.266257
H12   H     H_    0.462632 0.326288 0.787560 0.120758
H13   H     H_    0.378352 0.137082 0.828425 0.242391
H14   H     H_    0.171344 0.423676 0.789202 0.145486
H15   H     H_    0.026645 0.461772 0.772185 0.101819
H16   H     H_    0.100639 0.519629 0.740342 0.137014
H17   H     H_    0.561910 0.442674 0.742560 0.254838
H18   H     H_    0.667439 0.375870 0.701780 0.247770
H19   H     H_    0.503007 0.054293 0.761092 0.278219
H20   H     H_    0.525385 0.065391 0.701878 0.260358
H21   H     H_    0.773755 0.908630 0.789013 0.286660
H22   H     H_    0.743302 0.977327 0.842282 0.222136
H23   H     H_    0.856857 0.503159 0.721741 0.124037
H24   H     H_    0.912600 0.957937 0.801211 0.113309
H25   H     H_    0.980697 0.029155 0.774824 0.173344
H26   H     H_    0.017674 0.888962 0.755167 0.144962
H27   H     H_    0.852081 0.245662 0.754838 0.230552
H28   H     H_    0.862613 0.199728 0.812557 0.235782
H29   H     H_    0.959740 0.481738 0.150011 0.122320
H30   H     H_    0.026162 0.569084 0.152043 0.139169
H31   H     H_    0.990366 0.533736 0.094938 0.179175
H32   H     H_    0.980605 0.540368 0.335468 0.255758
H33   H     H_    0.017702 0.607669 0.295649 0.271550
H34   H     H_    0.802509 0.688543 0.383684 0.156489
H35   H     H_    0.480774 0.797995 0.099516 0.233751
H36   H     H_    0.460508 0.685232 0.105127 0.260727
H37   H     H_    0.297925 0.648447 0.163355 0.153812
H38   H     H_    0.363028 0.581902 0.219567 0.106886
H39   H     H_    0.449587 0.565625 0.166415 0.106826
H40   H     H_    0.301303 0.733652 0.279616 0.258998
H41   H     H_    0.389920 0.607075 0.303584 0.224739
H42   H     H_    0.512865 0.619631 0.416256 0.236270
H43   H     H_    0.404927 0.743238 0.392401 0.275104
H44   H     H_    0.005135 0.002095 0.094937 0.194025
H45   H     H_    0.935425 0.624612 0.222180 0.131070
H46   H     H_    0.961906 0.080078 0.152126 0.120653
H47   H     H_    0.052861 0.927283 0.149688 0.113709
H48   H     H_    0.813911 0.762999 0.692249 0.111885
H49   H     H_    0.766589 0.909493 0.700786 0.188004
H50   H     H_    0.693109 0.870341 0.658119 0.136687
H51   H     H_    0.192965 0.871834 0.332065 0.245851
H52   H     H_    0.102996 0.879846 0.287594 0.213911
H53   H     H_    0.392509 0.296067 0.215529 0.113936
H54   H     H_    0.330094 0.308128 0.155573 0.121732
H55   H     H_    0.350093 0.419510 0.179526 0.127647
H56   H     H_    0.206155 0.996293 0.380693 0.148351
H57   H     H_    0.373000 0.289615 0.329778 0.119308
H58   H     H_    0.329703 0.430439 0.350421 0.153699
H59   H     H_    0.364294 0.396166 0.287612 0.123351
H60   H     H_    0.077041 0.336842 0.447163 0.123453
H61   H     H_    0.993278 0.403231 0.392680 0.090937
H62   H     H_    0.046411 0.475674 0.430198 0.145106
H63   H     H_    0.684381 0.987149 0.126530 0.242890
H64   H     H_    0.705801 0.054402 0.081963 0.226158
H65   H     H_    0.952231 0.855758 0.194486 0.207072
H66   H     H_    0.847127 0.821186 0.190320 0.274590
H67   H     H_    0.136168 0.939111 0.215883 0.144641
H68   H     H_    0.937987 0.794814 0.265428 0.216951
H69   H     H_    0.930970 0.866214 0.315862 0.242219
H70   H     H_    0.781895 0.876157 0.381977 0.275814
H71   H     H_    0.638908 0.927534 0.369732 0.242677
H72   H     H_    0.445106 0.649524 0.748957 0.216345
H73   H     H_    0.446732 0.717369 0.698347 0.232034
H74   H     H_    0.324437 0.854409 0.755150 0.115105
H75   H     H_    0.185469 0.902295 0.727395 0.119877
H76   H     H_    0.233582 0.804567 0.777129 0.137734
H77   H     H_    0.148224 0.338969 0.139644 0.152981
H78   H     H_    0.616126 0.394158 0.157367 0.126049
N1    N     N_3   0.858598 0.680525 0.793932 -0.626069
N2    N     N_3   0.476777 0.665339 0.384380 -0.604469
N3    N     N_3   0.122279 0.928119 0.311701 -0.643226
N4    N     N_3   0.735493 0.021088 0.116592 -0.557452
N5    N     N_3   0.866419 0.885803 0.186456 -0.589589
N6    N     N_3   0.880998 0.850883 0.291017 -0.571700
N7    N     N_3   0.715349 0.919055 0.357181 -0.573541
N8    N     N_3   0.495341 0.645825 0.719560 -0.623151
N9    N     N_3   0.312158 0.212094 0.814267 -0.640425
N10   N     N_3   0.593418 0.380536 0.715358 -0.587731
N11   N     N_3   0.499159 0.110506 0.734728 -0.614017
N12   N     N_3   0.709123 0.976552 0.808053 -0.579893
N13   N     N_3   0.805751 0.252918 0.786147 -0.659354
N14   N     N_3   0.951361 0.617610 0.318062 -0.609018
N15   N     N_3   0.473657 0.744290 0.124334 -0.532005
N16   N     N_3   0.373937 0.690111 0.301150 -0.617576
O1    O     O_R   0.301710 0.195650 0.554160 -0.498482
O2    O     O_R   0.635520 0.542770 0.964420 -0.503343
O3    O     O_R   0.665950 0.325030 0.970100 -0.493450
O4    O     O_R   0.522390 0.158990 0.550460 -0.486815
O5    O     O_R   0.816620 0.158530 0.074540 -0.524649
O6    O     O_R   0.004460 0.188870 0.069750 -0.471261
O7    O     O_R   0.025800 0.341780 0.072300 -0.557553
O8    O     O_R   0.807650 0.528950 0.067500 -0.474819
O9    O     O_R   0.633420 0.550490 0.071810 -0.541792
O10   O     O_R   0.664000 0.332180 0.069640 -0.509440
O11   O     O_3   0.826350 0.346390 0.019210 -0.257190
O12   O     O_R   0.658900 0.818120 0.449760 -0.514928
O13   O     O_R   0.694390 0.003530 0.554040 -0.509651
O14   O     O_R   0.657700 0.819660 0.549320 -0.501805
O15   O     O_R   0.501930 0.803280 0.552920 -0.500640
O16   O     O_R   0.318170 0.023580 0.549580 -0.500300
O17   O     O_R   0.303010 0.193990 0.446760 -0.463821
O18   O     O_R   0.523600 0.157450 0.450900 -0.496112
O19   O     O_R   0.695690 0.001860 0.446640 -0.523501
O20   O     O_3   0.152815 0.354041 0.723875 -0.545650
O21   O     O_3   0.866519 0.015803 0.728729 -0.599066
O22   O     O_3   0.855580 0.655990 0.133573 -0.574036
O23   O     O_R   0.503220 0.801620 0.445520 -0.521092
O24   O     O_3   0.374202 0.724388 0.200844 -0.535115
O25   O     O_3   0.133716 0.014743 0.128904 -0.554919
O26   O     O_3   0.658483 0.861956 0.730762 -0.587075
O27   O     O_3   0.215939 0.411080 0.209468 -0.581299
O28   O     O_3   0.208331 0.419005 0.309299 -0.524872
O29   O     O_3   0.168329 0.346953 0.388344 -0.508745
O30   O     O_3   0.186885 0.967666 0.796809 -0.571323
O31   O     O_R   0.319370 0.022040 0.450020 -0.510760
O32   O     O_3   0.499990 0.000010 0.499990 -0.255255
O33   O     O_R   0.818720 0.150820 0.967160 -0.507205
O34   O     O_R   0.006410 0.181720 0.970200 -0.489601
O35   O     O_R   0.027890 0.334070 0.964920 -0.508587
O36   O     O_R   0.809600 0.521790 0.967960 -0.492695

loop_
_geom_bond_atom_site_label_1
_geom_bond_atom_site_label_2
_ccdc_geom_bond_type
C87   C88   A    
C6    H54   S    
C29   N13   S    
C7    H59   S    
C18   C21   S    
C48   C57   A    
C54   C55   A    
C95   C96   T    
C67   C77   A    
Cr5   O8    S    
C80   C84   A    
C9    H76   S    
C17   C20   S    
C30   C71   S    
C90   C91   A    
C51   N16   S    
C106  H31   S    
Cr1   O4    S    
C53   C54   A    
C61   C75   A    
C46   C102  S    
C67   O29   S    
H20   N11   S    
H71   N7    S    
C18   C24   S    
C83   N1    S    
C59   O31   A    
C34   N12   S    
H70   N7    S    
C21   H8    S    
C52   C74   S    
C10   C15   S    
C71   H23   S    
H69   N6    S    
C95   C99   S    
C4    H47   S    
C98   O34   A    
Cr2   O19   S    
H51   N3    S    
C58   C60   A    
C15   C16   S    
C39   C57   A    
C100  O3    A    
C33   C36   S    
C72   O27   S    
C100  O33   A    
C15   C17   S    
C70   O28   S    
Cr6   O9    S    
C14   C24   T    
C13   C98   S    
H35   N15   S    
Cr4   O11   S    
C98   O35   A    
C62   C64   A    
C10   H7    S    
C86   C94   A    
C58   C77   A    
C105  H26   S    
H32   N14   S    
Cr2   O13   S    
Cr3   O23   S    
C102  O8    A    
C4    H46   S    
C56   N15   S    
C12   C16   S    
C101  O7    A    
C68   C69   A    
C49   C51   A    
C1    C28   S    
Cr6   O11   S    
C15   H1    S    
C30   C41   S    
C84   H78   S    
C76   H77   S    
H73   N8    S    
C58   H56   S    
H63   N4    S    
Cr1   O1    S    
C83   C85   S    
C53   O24   S    
Cr2   O12   S    
C68   C70   A    
Cr6   O10   S    
C41   C74   S    
C6    H53   S    
C66   C76   A    
C26   C31   S    
Cr5   O35   S    
C35   O19   A    
C63   C85   S    
C9    O30   S    
C73   C75   A    
C66   C101  S    
C59   C77   S    
C78   H2    S    
C85   O26   S    
C26   H12   S    
H18   N10   S    
C86   C103  S    
C3    O24   S    
Cr4   O33   S    
Cr1   O32   S    
C81   C82   A    
C71   C83   S    
C101  O6    A    
C25   C29   S    
C10   C18   S    
C47   O12   A    
C54   C56   A    
C27   C100  S    
C3    H37   S    
C79   C89   A    
C65   O25   S    
C67   C68   A    
C4    O25   S    
C7    O28   S    
H10   N1    S    
Cr6   O2    S    
C9    H74   S    
H28   N13   S    
C103  O5    A    
C91   C92   A    
H52   N3    S    
C72   C73   A    
C30   H6    S    
C9    H75   S    
C25   C26   S    
C45   C46   A    
C12   C21   S    
C31   C37   S    
C32   C33   S    
C51   C53   A    
C42   C45   A    
C32   C34   S    
C14   C23   S    
C43   C44   A    
C8    O29   S    
C20   N9    S    
C42   C55   A    
C11   O15   A    
C91   N5    S    
C17   O20   S    
C104  H16   S    
C23   O16   A    
C28   C38   T    
C16   C20   S    
C5    H48   S    
C11   C19   S    
C64   N3    S    
C81   H3    S    
C78   C97   A    
C92   C94   A    
C17   C18   S    
C5    O26   S    
C90   N6    S    
C1    O13   A    
C106  H30   S    
C63   C71   S    
C10   C12   S    
H36   N15   S    
C105  H24   S    
C26   C36   S    
C48   C49   A    
C4    H44   S    
C6    O27   S    
C88   C90   A    
H40   N16   S    
Cr5   O36   S    
H72   N8    S    
C7    H57   S    
C73   C76   A    
C106  O22   S    
C7    H58   S    
C52   N8    S    
C36   N11   S    
C87   N7    S    
C46   C56   A    
Cr3   O32   S    
C62   H67   S    
H22   N12   S    
Cr3   O15   S    
C2    C63   S    
C106  H29   S    
Cr1   O18   S    
C8    H62   S    
H11   N9    S    
H21   N12   S    
C12   O30   S    
C74   H5    S    
C30   C52   S    
C6    H55   S    
C3    H38   S    
C16   C22   S    
H65   N5    S    
C23   O1    A    
C1    O4    A    
C94   N4    S    
H42   N2    S    
C31   C34   S    
Cr4   O6    S    
Cr5   O7    S    
Cr2   O32   S    
C80   C81   A    
C43   H45   S    
C52   C63   S    
H68   N6    S    
H9    N1    S    
C79   C82   A    
C104  O20   S    
C47   O23   A    
Cr3   O31   S    
C29   C32   S    
Cr5   O11   S    
H66   N5    S    
C3    H39   S    
C50   C55   A    
C99   O2    A    
C60   C64   A    
C5    H50   S    
Cr4   O5    S    
C49   C50   A    
C82   H4    S    
C29   C31   S    
C25   N10   S    
H27   N13   S    
C35   O18   A    
Cr6   O3    S    
Cr2   O14   S    
C78   C79   A    
H33   N14   S    
C104  H15   S    
C41   C96   S    
C60   C69   A    
C27   C37   T    
C40   C50   A    
C103  O10   A    
C39   H34   S    
C92   C93   A    
C34   C36   S    
C13   C22   T    
C69   C75   A    
C59   O17   A    
C105  O21   S    
C74   C85   S    
C89   C93   A    
C61   C62   A    
H19   N11   S    
C48   N2    S    
H17   N10   S    
C25   C33   S    
H43   N2    S    
C105  H25   S    
H41   N16   S    
C39   C40   A    
Cr1   O17   S    
C61   C65   A    
C102  O9    A    
C40   C44   A    
C104  H14   S    
C88   C89   A    
H13   N9    S    
C20   C21   S    
C65   C66   A    
C42   C43   A    
C32   O21   S    
Cr4   O34   S    
C47   C57   S    
C44   N14   S    
C99   O36   A    
C84   C86   A    
C33   C38   S    
C70   C72   A    
C8    H61   S    
H64   N4    S    
C80   C93   A    
C35   C97   S    
C11   O14   A    
C45   O22   S    
Cr3   O16   S    
C8    H60   S    
C2    C19   T    
C5    H49   S    
C87   C97   A    
C41   C83   S    
