data_mof_unit_52701.cif
_audit_creation_date              2012-12-10T18:59:18-0500
_audit_creation_method            fapswitch 2.2
_symmetry_space_group_name_H-M    P1
_symmetry_Int_Tables_number       1
_space_group_crystal_system       triclinic
_cell_length_a                    10.841123
_cell_length_b                    10.740166
_cell_length_c                    9.677847
_cell_angle_alpha                 91.193077
_cell_angle_beta                  93.341799
_cell_angle_gamma                 92.506361
_cell_volume                      1123.54370188

loop_
_atom_site_label
_atom_site_type_symbol
_atom_type_description
_atom_site_fract_x
_atom_site_fract_y
_atom_site_fract_z
_atom_type_partial_charge
C1    C     C_R   0.498115 0.263148 0.498507 0.786807
C2    C     C_R   0.067011 0.433111 0.605109 0.060550
C3    C     C_R   0.126430 0.469762 0.486703 -0.134801
C4    C     C_R   0.053165 0.502005 0.368523 0.151779
C5    C     C_R   0.930680 0.530807 0.384302 -0.228390
C6    C     C_R   0.875515 0.514970 0.510565 -0.174392
C7    C     C_R   0.603426 0.070932 0.542246 0.109996
C8    C     C_R   0.498545 0.130169 0.494036 -0.060229
C9    C     C_R   0.395272 0.059472 0.437750 -0.235495
C10   C     C_R   0.393954 0.929558 0.443078 -0.231746
C11   C     C_R   0.495471 0.871097 0.505682 -0.080399
C12   C     C_R   0.262270 0.487883 0.495422 0.768891
C13   C     C_R   0.601117 0.943018 0.550613 0.088080
C14   C     C_3   0.672583 0.950546 0.687565 -0.499051
C15   C     C_3   0.679020 0.091046 0.674846 -0.458846
C16   C     C_R   0.575014 0.583501 0.078257 0.208140
C17   C     C_R   0.435481 0.409684 0.064894 0.211634
C18   C     C_R   0.435556 0.411745 0.917460 -0.058876
C19   C     C_R   0.574995 0.580505 0.932715 0.141759
C20   C     C_3   0.585755 0.715656 0.917845 -0.563131
C21   C     C_3   0.588510 0.727088 0.076009 0.263912
C22   C     C_R   0.498497 0.737235 0.501740 0.791604
C23   C     C_R   0.738626 0.507596 0.504174 0.782799
C24   C     C_R   0.119691 0.349075 0.698967 -0.149300
C25   C     C_R   0.060277 0.318792 0.818046 -0.201983
C26   C     C_R   0.959087 0.385683 0.854002 -0.171727
C27   C     C_R   0.910446 0.473877 0.763322 0.211236
C28   C     C_R   0.948752 0.475508 0.626524 0.063614
Cu1   Cu    Cu3+1 0.499990 0.499980 0.640670 0.928458
Cu2   Cu    Cu3+1 0.500010 0.500020 0.359330 0.920821
H1    H     H_    0.764045 0.907944 0.684551 0.196532
H2    H     H_    0.629554 0.140366 0.755733 0.209965
H3    H     H_    0.381155 0.342240 0.855056 0.141747
H4    H     H_    0.672862 0.744211 0.871001 0.170941
H5    H     H_    0.502392 0.751458 0.862587 0.225377
H6    H     H_    0.203117 0.302315 0.677017 0.131187
H7    H     H_    0.098266 0.249855 0.885958 0.134325
H8    H     H_    0.924352 0.376057 0.955857 0.142868
H9    H     H_    0.313600 0.874926 0.400837 0.150291
H10   H     H_    0.615186 0.922367 0.773361 0.205392
N1    N     N_R   0.500790 0.500930 0.147930 -0.215214
N2    N     N_R   0.500790 0.500890 0.852020 -0.189576
O1    O     O_R   0.500000 0.319640 0.618810 -0.589916
O2    O     O_R   0.500010 0.319680 0.381230 -0.579800
O3    O     O_R   0.319640 0.499980 0.618820 -0.567912
O4    O     O_R   0.319650 0.500020 0.381230 -0.612143
O5    O     O_R   0.499990 0.680320 0.618770 -0.575201
O6    O     O_R   0.500000 0.680360 0.381190 -0.580517
O7    O     O_R   0.680350 0.499980 0.618770 -0.580231
O8    O     O_R   0.680360 0.500020 0.381180 -0.576496
C29   C     C_3   0.081733 0.457460 0.225291 -0.390525
C30   C     C_3   0.057585 0.315796 0.216331 -0.860655
H11   H     H_    0.122215 0.268743 0.289335 0.240919
H12   H     H_    0.961108 0.290867 0.241909 0.261333
H13   H     H_    0.069443 0.279657 0.110973 0.228144
H14   H     H_    0.020052 0.500249 0.145820 0.187625
H15   H     H_    0.176126 0.484072 0.196832 0.219547
H16   H     H_    0.773607 0.129967 0.658314 0.199836
C31   C     C_3   0.357637 0.305147 0.120776 -0.369902
C32   C     C_3   0.419124 0.180265 0.106712 -0.856648
H17   H     H_    0.510531 0.182588 0.164815 0.277108
H18   H     H_    0.358918 0.104912 0.147115 0.240632
H19   H     H_    0.432545 0.157409 0.996291 0.231737
H20   H     H_    0.332796 0.322765 0.227358 0.254299
H21   H     H_    0.268561 0.297812 0.058610 0.168933
C33   C     C_3   0.720029 0.780985 0.126748 -0.432020
C34   C     C_3   0.740990 0.812297 0.280455 -0.835305
H22   H     H_    0.687846 0.893843 0.307793 0.244460
H23   H     H_    0.717458 0.731319 0.343419 0.273309
H24   H     H_    0.840357 0.838352 0.304109 0.232735
H25   H     H_    0.790539 0.713959 0.099874 0.196307
H26   H     H_    0.740714 0.868176 0.070631 0.206420
C35   C     C_3   0.479721 0.808376 0.116174 -0.298311
C36   C     C_3   0.350132 0.744910 0.096517 -0.856021
H27   H     H_    0.332390 0.704614 0.990394 0.247681
H28   H     H_    0.337690 0.670464 0.172497 0.280612
H29   H     H_    0.279826 0.814870 0.113752 0.227466
H30   H     H_    0.493989 0.844348 0.222795 0.234197
H31   H     H_    0.481047 0.893705 0.052910 0.178114
C37   C     C_3   0.866724 0.591825 0.827320 -0.401095
C38   C     C_3   0.976504 0.679370 0.875720 -0.885334
H32   H     H_    0.942432 0.765729 0.922357 0.236268
H33   H     H_    0.037404 0.634416 0.954235 0.257231
H34   H     H_    0.031504 0.705554 0.786554 0.263773
H35   H     H_    0.809550 0.643694 0.751882 0.218638
H36   H     H_    0.812818 0.568083 0.917464 0.188125
H37   H     H_    0.874472 0.552752 0.292465 0.170430
H38   H     H_    0.314591 0.104663 0.395178 0.136603

loop_
_geom_bond_atom_site_label_1
_geom_bond_atom_site_label_2
_ccdc_geom_bond_type
C22   O6    A    
C16   C21   S    
C37   C38   S    
C21   C33   S    
C1    C8    S    
C35   C36   S    
C19   C20   S    
C14   H1    S    
C38   H32   S    
C15   H2    S    
Cu1   O7    S    
C31   H20   S    
C24   H6    S    
C36   H28   S    
Cu1   O5    S    
C32   H19   S    
Cu2   O6    S    
C18   N2    A    
C9    H38   S    
C5    C6    A    
Cu1   N2    S    
C23   O7    A    
C21   C35   S    
C32   H18   S    
C29   H14   S    
C37   H36   S    
C3    C12   S    
C25   H7    S    
C20   H5    S    
C1    O1    A    
C33   H26   S    
C8    C9    A    
C36   H29   S    
C35   H30   S    
Cu2   N1    S    
C29   H15   S    
Cu1   Cu2   S    
C9    C10   A    
C19   N2    A    
C20   H4    S    
C7    C15   S    
C22   O5    A    
Cu2   O8    S    
C31   C32   S    
C13   C14   S    
Cu1   O1    S    
Cu2   O2    S    
C38   H33   S    
C30   H12   S    
C35   H31   S    
C6    C28   A    
C36   H27   S    
C4    C29   S    
C34   H22   S    
C7    C8    A    
C24   C25   A    
C12   O4    A    
C27   C37   S    
C26   H8    S    
C23   O8    A    
C25   C26   A    
C29   C30   S    
Cu1   O3    S    
C10   H9    S    
C34   H23   S    
C37   H35   S    
C1    O2    A    
C33   H25   S    
C17   C18   A    
C26   C27   A    
C17   C31   S    
C2    C24   A    
C15   H16   S    
C3    C4    A    
C38   H34   S    
C30   H11   S    
Cu2   O4    S    
C4    C5    A    
C30   H13   S    
C12   O3    A    
C11   C22   S    
C34   H24   S    
C2    C3    A    
C31   H21   S    
C11   C13   A    
C16   C19   A    
C6    C23   S    
C33   C34   S    
C18   H3    S    
C17   N1    A    
C10   C11   A    
C14   H10   S    
C5    H37   S    
C7    C13   A    
C20   C21   S    
C27   C28   A    
C14   C15   S    
C32   H17   S    
C2    C28   A    
C16   N1    A    
