data_mof_unit_26358.cif
_audit_creation_date              2012-12-10T16:58:38-0500
_audit_creation_method            fapswitch 2.2
_symmetry_space_group_name_H-M    P1
_symmetry_Int_Tables_number       1
_space_group_crystal_system       triclinic
_cell_length_a                    13.141039
_cell_length_b                    13.153123
_cell_length_c                    15.457555
_cell_angle_alpha                 108.480648
_cell_angle_beta                  74.198108
_cell_angle_gamma                 90.774607
_cell_volume                      2430.45826545

loop_
_atom_site_label
_atom_site_type_symbol
_atom_type_description
_atom_site_fract_x
_atom_site_fract_y
_atom_site_fract_z
_atom_type_partial_charge
C1    C     C_R   0.217969 0.542444 0.536087 0.763503
C2    C     C_R   0.500054 0.459340 0.109354 -0.269380
C3    C     C_R   0.669546 0.370835 0.086516 -0.291918
C4    C     C_R   0.780825 0.457910 0.464683 0.699388
C5    C     C_R   0.440206 0.583845 0.857819 -0.214879
C6    C     C_2   0.894888 0.447993 0.455270 0.327365
C7    C     C_2   0.930312 0.495692 0.532238 -0.194961
C8    C     C_2   0.102321 0.560070 0.554405 0.178454
C9    C     C_2   0.045118 0.477011 0.522752 0.445218
C10   C     C_2   0.540885 0.894855 0.541181 0.360761
C11   C     C_2   0.471225 0.948645 0.518688 -0.410322
C12   C     C_R   0.328425 0.670749 0.018820 -0.302001
C13   C     C_2   0.447650 0.107001 0.470255 -0.280980
C14   C     C_2   0.474708 0.064949 0.531608 0.471573
C15   C     C_R   0.468023 0.219080 0.474446 0.822372
C16   C     C_R   0.530135 0.781329 0.528574 0.746148
C17   C     C_R   0.545826 0.441459 0.247243 0.834082
C18   C     C_R   0.458012 0.557724 0.753541 0.838080
C19   C     C_R   0.700426 0.367159 0.991857 0.501075
C20   C     C_R   0.569321 0.416945 0.145047 -0.080198
C21   C     C_R   0.350325 0.651707 0.921468 0.456473
C22   C     C_R   0.859541 0.566373 0.625332 0.118413
C23   C     C_R   0.391603 0.621122 0.055747 -0.052154
C24   C     C_R   0.867143 0.554786 0.710817 -0.093969
C25   C     C_R   0.811155 0.628343 0.798350 -0.111494
C26   C     C_R   0.744509 0.712147 0.801671 -0.134135
C27   C     C_R   0.736224 0.724608 0.717386 -0.176366
C28   C     C_R   0.794682 0.653352 0.629654 -0.125581
C29   C     C_3   0.077919 0.740524 0.578637 0.086284
C30   C     C_3   0.017806 0.845127 0.650211 -0.271517
C31   C     C_3   0.058097 0.942143 0.621492 -1.047091
C32   C     C_3   0.929442 0.318497 0.302392 0.121933
C33   C     C_3   0.913638 0.216159 0.330527 -0.387385
C34   C     C_R   0.477825 0.545022 0.992465 0.065756
C35   C     C_3   0.871316 0.129609 0.259669 -0.977471
C36   C     C_3   0.442360 0.155750 0.689767 0.152045
C37   C     C_3   0.495473 0.212665 0.766663 -0.316253
C38   C     C_3   0.415769 0.249667 0.865132 -0.964730
C39   C     C_R   0.393463 0.045119 0.399549 0.097712
C40   C     C_R   0.289359 0.017290 0.430038 -0.162844
C41   C     C_R   0.235413 0.966019 0.363660 -0.113746
C42   C     C_R   0.285010 0.942251 0.266497 -0.071073
C43   C     C_R   0.388639 0.969642 0.235584 -0.131203
C44   C     C_R   0.442676 0.021364 0.301830 -0.104120
C45   C     C_R   0.509076 0.538247 0.894993 0.018030
C46   C     C_3   0.710311 0.944351 0.516411 0.130306
C47   C     C_3   0.785765 0.014413 0.564976 -0.297945
C48   C     C_3   0.888033 0.023048 0.492653 -1.029838
C49   C     C_3   0.781166 0.214343 0.871539 0.056569
C50   C     C_3   0.777627 0.126220 0.917340 -0.341868
C51   C     C_3   0.763544 0.017269 0.849848 -0.978304
C52   C     C_3   0.304606 0.803977 0.896020 0.097836
C53   C     C_3   0.244596 0.845627 0.840392 -0.256448
C54   C     C_3   0.273093 0.958344 0.839898 -1.014623
C55   C     C_R   0.372224 0.662227 0.160381 0.107017
C56   C     C_R   0.537232 0.478259 0.021891 0.027072
C57   C     C_R   0.273123 0.653922 0.220608 -0.171536
C58   C     C_R   0.258077 0.682611 0.318565 -0.134931
C59   C     C_R   0.340969 0.721320 0.357308 -0.121754
C60   C     C_R   0.438639 0.733377 0.298247 -0.103013
C61   C     C_R   0.454230 0.704578 0.200163 -0.136936
C62   C     C_3   0.060056 0.302336 0.520871 0.092790
C63   C     C_3   0.120568 0.309800 0.594421 -0.373389
C64   C     C_3   0.081942 0.232346 0.649478 -0.988273
C65   C     C_R   0.637179 0.426204 0.960689 0.042111
C66   C     C_R   0.673631 0.435887 0.870574 -0.261026
C67   C     C_R   0.610584 0.489641 0.838086 -0.183111
H1    H     H_    0.723361 0.336934 0.114138 0.148588
H2    H     H_    0.686172 0.790832 0.719968 0.146095
H3    H     H_    0.791618 0.668220 0.565427 0.122741
H4    H     H_    0.054159 0.723951 0.511924 0.116707
H5    H     H_    0.164433 0.750627 0.564065 0.151334
H6    H     H_    0.932063 0.841391 0.654809 0.219309
H7    H     H_    0.027450 0.855048 0.721649 0.239671
H8    H     H_    0.141201 0.952411 0.624647 0.268673
H9    H     H_    0.007700 0.015565 0.671285 0.276433
H10   H     H_    0.054852 0.931704 0.548259 0.271937
H11   H     H_    0.989580 0.297437 0.231903 0.170199
H12   H     H_    0.413669 0.904290 0.486252 0.108798
H13   H     H_    0.856305 0.347631 0.291667 0.123469
H14   H     H_    0.990698 0.184811 0.332669 0.238483
H15   H     H_    0.856633 0.234379 0.402292 0.218450
H16   H     H_    0.792923 0.158472 0.258213 0.257152
H17   H     H_    0.861567 0.056233 0.281019 0.264639
H18   H     H_    0.927591 0.108389 0.187271 0.268209
H19   H     H_    0.407960 0.083171 0.704945 0.141925
H20   H     H_    0.377557 0.211125 0.691961 0.111445
H21   H     H_    0.558576 0.156702 0.765961 0.222740
H22   H     H_    0.532973 0.283595 0.751284 0.248627
H23   H     H_    0.751395 0.401304 0.824005 0.173627
H24   H     H_    0.355616 0.310784 0.869118 0.271325
H25   H     H_    0.457803 0.286086 0.919456 0.274737
H26   H     H_    0.375438 0.180343 0.881230 0.267435
H27   H     H_    0.250140 0.036106 0.505122 0.124460
H28   H     H_    0.155179 0.944804 0.387458 0.121731
H29   H     H_    0.243278 0.902338 0.215164 0.112866
H30   H     H_    0.426966 0.951002 0.160289 0.117925
H31   H     H_    0.522490 0.043363 0.277159 0.107592
H32   H     H_    0.696864 0.976782 0.461537 0.152162
H33   H     H_    0.747749 0.860575 0.481297 0.128910
H34   H     H_    0.419597 0.481953 0.153403 0.180891
H35   H     H_    0.746229 0.096460 0.605617 0.243288
H36   H     H_    0.805287 0.979361 0.615723 0.213495
H37   H     H_    0.930097 0.942218 0.452057 0.265475
H38   H     H_    0.940604 0.074821 0.530105 0.266776
H39   H     H_    0.870204 0.059837 0.442497 0.274879
H40   H     H_    0.849386 0.193074 0.806323 0.163246
H41   H     H_    0.708647 0.216616 0.847567 0.125473
H42   H     H_    0.852612 0.121145 0.936453 0.231569
H43   H     H_    0.710414 0.146049 0.983246 0.213274
H44   H     H_    0.686935 0.019394 0.832744 0.267786
H45   H     H_    0.261603 0.726629 0.066420 0.154916
H46   H     H_    0.763933 0.954758 0.883988 0.266207
H47   H     H_    0.829379 0.995570 0.783076 0.265233
H48   H     H_    0.391315 0.808739 0.865718 0.133203
H49   H     H_    0.279542 0.856150 0.971882 0.119643
H50   H     H_    0.264524 0.790555 0.765728 0.265111
H51   H     H_    0.157783 0.847227 0.872824 0.213360
H52   H     H_    0.252136 0.015596 0.913683 0.266130
H53   H     H_    0.228427 0.985897 0.798819 0.267556
H54   H     H_    0.359347 0.957876 0.805939 0.272458
H55   H     H_    0.208993 0.621462 0.191323 0.144242
H56   H     H_    0.646382 0.496973 0.769104 0.195579
H57   H     H_    0.182572 0.673220 0.364063 0.116598
H58   H     H_    0.329404 0.741909 0.433020 0.102198
H59   H     H_    0.502741 0.763912 0.328151 0.130547
H60   H     H_    0.530837 0.712493 0.154941 0.129480
H61   H     H_    0.076669 0.219815 0.468498 0.170976
H62   H     H_    0.972681 0.312894 0.554953 0.116385
H63   H     H_    0.206696 0.290184 0.557549 0.238298
H64   H     H_    0.109224 0.392815 0.645674 0.203382
H65   H     H_    0.997121 0.253814 0.690415 0.268272
H66   H     H_    0.129456 0.236479 0.699741 0.271583
H67   H     H_    0.918054 0.490065 0.709684 0.109173
H68   H     H_    0.091134 0.149045 0.599588 0.266567
H69   H     H_    0.818241 0.619391 0.863746 0.142748
H70   H     H_    0.699747 0.767713 0.869578 0.125528
O1    O     O_3   0.500000 0.500000 0.500000 -0.477904
O2    O     O_R   0.468210 0.402800 0.293550 -0.633396
O3    O     O_R   0.410220 0.615430 0.721590 -0.609094
O4    O     O_R   0.602670 0.506150 0.290200 -0.637641
O5    O     O_R   0.518910 0.475630 0.694660 -0.659515
O6    O     O_3   0.050391 0.657294 0.617743 -0.648155
O7    O     O_3   0.969648 0.399109 0.367289 -0.611265
O8    O     O_3   0.519144 0.127865 0.600404 -0.579074
O9    O     O_3   0.614322 0.946453 0.585925 -0.632919
O10   O     O_3   0.797457 0.314672 0.933613 -0.652320
O11   O     O_3   0.280436 0.697011 0.888679 -0.619726
O12   O     O_R   0.526920 0.270960 0.524520 -0.590086
O13   O     O_3   0.096008 0.375196 0.470668 -0.590058
O14   O     O_R   0.454490 0.752910 0.584610 -0.656039
O15   O     O_R   0.270990 0.462040 0.468400 -0.593192
O16   O     O_R   0.747590 0.514090 0.422470 -0.645187
O17   O     O_R   0.265290 0.607490 0.589320 -0.645828
O18   O     O_R   0.716130 0.416380 0.519810 -0.653684
O19   O     O_R   0.423930 0.265320 0.430520 -0.641801
O20   O     O_R   0.594650 0.710810 0.460350 -0.663205
Zn1   Zn    Zn3+2 0.564370 0.417180 0.558730 0.964252
Zn2   Zn    Zn3+2 0.417220 0.409120 0.424430 0.992919
Zn3   Zn    Zn3+2 0.609330 0.556780 0.419650 0.951956
Zn4   Zn    Zn3+2 0.409080 0.616930 0.597190 0.961443

loop_
_geom_bond_atom_site_label_1
_geom_bond_atom_site_label_2
_ccdc_geom_bond_type
C46   H32   S    
C34   C56   A    
C54   H53   S    
O1    Zn4   S    
C1    C8    S    
C41   C42   A    
C37   H21   S    
C3    H1    S    
C12   H45   S    
C26   H70   S    
C31   H9    S    
C49   H40   S    
C41   H28   S    
C53   C54   S    
C14   O8    S    
C26   C27   A    
C62   C63   S    
C42   H29   S    
C36   C37   S    
C30   C31   S    
C30   H7    S    
C11   C14   S    
C53   H50   S    
C56   C65   A    
C48   H37   S    
C38   H25   S    
C50   H43   S    
C17   C20   S    
C49   O10   S    
C1    O15   A    
C17   O4    A    
C63   H63   S    
C25   H69   S    
O17   Zn4   S    
C57   H55   S    
C46   C47   S    
C44   H31   S    
O1    Zn2   S    
C48   H39   S    
C64   H65   S    
C8    C9    D    
O14   Zn4   S    
C45   C67   A    
C47   C48   S    
C3    C19   A    
C63   H64   S    
C8    O6    S    
C29   C30   S    
O12   Zn1   S    
C27   H2    S    
C29   H5    S    
C66   C67   A    
C64   H68   S    
O2    Zn2   S    
C59   C60   A    
C52   O11   S    
C47   H35   S    
C22   C28   A    
C13   C14   D    
O18   Zn1   S    
C62   H62   S    
O5    Zn1   S    
C31   H10   S    
C49   H41   S    
C52   H49   S    
C36   H20   S    
C9    O13   S    
C51   H47   S    
C13   C39   S    
C2    C20   A    
C21   O11   S    
C18   O5    A    
C47   H36   S    
C24   C25   A    
C4    C6    S    
C39   C40   A    
C30   H6    S    
C35   H16   S    
C53   H51   S    
C5    C18   S    
C2    H34   S    
C36   H19   S    
C25   C26   A    
C5    C45   A    
C38   H24   S    
C50   H42   S    
C19   O10   S    
C60   C61   A    
C43   C44   A    
C37   C38   S    
C32   H13   S    
O1    Zn1   S    
O4    Zn3   S    
C31   H8    S    
C48   H38   S    
C12   C23   A    
C23   C34   A    
C50   C51   S    
C3    C20   A    
C61   H60   S    
C34   C45   A    
C51   H46   S    
C18   O3    A    
C15   O19   A    
C6    C7    D    
C11   H12   S    
C10   O9    S    
C40   C41   A    
C66   H23   S    
C54   H54   S    
C65   C66   A    
O20   Zn3   S    
C55   C57   A    
C22   C24   A    
C42   C43   A    
C6    O7    S    
C15   O12   A    
C52   C53   S    
C33   H15   S    
C52   H48   S    
C24   H67   S    
C7    C9    S    
C46   H33   S    
C64   H66   S    
C51   H44   S    
C62   O13   S    
C16   O20   A    
O19   Zn2   S    
C28   H3    S    
C43   H30   S    
C40   H27   S    
C67   H56   S    
C35   H17   S    
C23   C55   S    
C39   C44   A    
C59   H58   S    
C7    C22   S    
C19   C65   A    
C58   H57   S    
C37   H22   S    
C32   O7    S    
C32   C33   S    
O3    Zn4   S    
O16   Zn3   S    
C13   C15   S    
C58   C59   A    
C10   C16   S    
C62   H61   S    
C35   H18   S    
C57   C58   A    
C46   O9    S    
C55   C61   A    
C38   H26   S    
C60   H59   S    
C33   C35   S    
C4    O16   A    
C16   O14   A    
C1    O17   A    
O15   Zn2   S    
C10   C11   D    
C32   H11   S    
C63   C64   S    
C12   C21   A    
O1    Zn3   S    
C36   O8    S    
C4    O18   A    
C5    C21   A    
C49   C50   S    
C27   C28   A    
C2    C56   A    
C17   O2    A    
C54   H52   S    
C33   H14   S    
C29   H4    S    
C29   O6    S    
