data_mof_unit_18750.cif
_audit_creation_date              2012-12-10T17:18:18-0500
_audit_creation_method            fapswitch 2.2
_symmetry_space_group_name_H-M    P1
_symmetry_Int_Tables_number       1
_space_group_crystal_system       triclinic
_cell_length_a                    10.228652
_cell_length_b                    10.704549
_cell_length_c                    14.878492
_cell_angle_alpha                 90.794648
_cell_angle_beta                  80.320881
_cell_angle_gamma                 95.053777
_cell_volume                      1599.65811843

loop_
_atom_site_label
_atom_site_type_symbol
_atom_type_description
_atom_site_fract_x
_atom_site_fract_y
_atom_site_fract_z
_atom_type_partial_charge
C1    C     C_R   0.555866 0.733035 0.491069 0.841817
C2    C     C_R   0.444306 0.266842 0.501906 0.846570
C3    C     C_R   0.592546 0.723142 0.946561 0.095578
C4    C     C_R   0.409774 0.276207 0.053288 0.096336
C5    C     C_2   0.588476 0.865886 0.475727 0.210181
C6    C     C_2   0.412558 0.133865 0.489781 0.206527
C7    C     C_2   0.495485 0.931809 0.450481 -0.221125
C8    C     C_2   0.510877 0.066579 0.450445 -0.201389
C9    C     C_2   0.920425 0.490444 0.519428 -0.073176
C10   C     C_2   0.070192 0.473403 0.506447 -0.076873
C11   C     C_R   0.499476 0.501180 0.672823 0.885576
C12   C     C_R   0.500562 0.498834 0.327192 0.857971
C13   C     C_R   0.457051 0.388617 0.190907 -0.282140
C14   C     C_R   0.544040 0.611084 0.809065 -0.283347
C15   C     C_R   0.502455 0.497635 0.231747 -0.028468
C16   C     C_R   0.497841 0.502298 0.768291 -0.036575
C17   C     C_R   0.549101 0.605873 0.182567 -0.245856
C18   C     C_R   0.451611 0.393933 0.817454 -0.234072
C19   C     C_R   0.548530 0.607377 0.089712 0.096679
C20   C     C_R   0.452944 0.392196 0.910223 0.093360
C21   C     C_R   0.501443 0.498196 0.046601 0.030582
C22   C     C_R   0.500267 0.501315 0.953298 0.030957
C23   C     C_R   0.455781 0.386276 0.097181 0.081134
C24   C     C_R   0.545959 0.613237 0.902720 0.081513
C25   C     C_R   0.593602 0.717296 0.040482 -0.233156
C26   C     C_R   0.408359 0.282123 0.959411 -0.232006
H1    H     H_    0.423077 0.307142 0.233558 0.127432
H2    H     H_    0.577985 0.692581 0.766438 0.134830
H3    H     H_    0.584112 0.689040 0.217196 0.130358
H4    H     H_    0.416324 0.310842 0.782876 0.138527
H5    H     H_    0.628969 0.797968 0.076914 0.142683
H6    H     H_    0.372988 0.201418 0.923008 0.143696
H7    H     H_    0.610144 0.110565 0.426680 0.197707
H8    H     H_    0.400891 0.886322 0.438131 0.194087
H9    H     H_    0.109218 0.395361 0.466697 0.161052
H10   H     H_    0.875139 0.544415 0.576550 0.151071
N1    N     N_2   0.842700 0.448880 0.462930 -0.074764
N2    N     N_2   0.157300 0.551120 0.537070 -0.076164
O1    O     O_R   0.431060 0.692470 0.507460 -0.659298
O2    O     O_R   0.568940 0.307530 0.492540 -0.636910
O3    O     O_R   0.651120 0.659650 0.483670 -0.563904
O4    O     O_R   0.348880 0.340350 0.516330 -0.569553
O5    O     O_R   0.389960 0.516440 0.644050 -0.620904
O6    O     O_R   0.610040 0.483560 0.355950 -0.643600
O7    O     O_R   0.610030 0.483620 0.620260 -0.607374
O8    O     O_R   0.389970 0.516380 0.379740 -0.607503
Zn1   Zn    Zn3+2 0.353060 0.521920 0.515880 0.960386
Zn2   Zn    Zn3+2 0.646940 0.478080 0.484120 0.966038
C27   C     C_3   0.638493 0.844341 0.892702 -0.406612
C28   C     C_3   0.689264 0.956993 0.946631 -0.386066
C29   C     C_3   0.724418 0.073574 0.886491 -0.824789
H11   H     H_    0.803590 0.056005 0.827988 0.273787
H12   H     H_    0.635054 0.100234 0.860475 0.260154
H13   H     H_    0.761183 0.152954 0.927044 0.249826
H14   H     H_    0.611715 0.979293 0.004787 0.226780
H15   H     H_    0.779628 0.934392 0.973327 0.228151
H16   H     H_    0.720573 0.824511 0.836641 0.210410
H17   H     H_    0.553452 0.872257 0.862038 0.203844
C30   C     C_3   0.364759 0.154814 0.107088 -0.412757
C31   C     C_3   0.315864 0.041548 0.052967 -0.376838
C32   C     C_3   0.282594 0.924664 0.112939 -0.837812
H18   H     H_    0.372444 0.899494 0.139053 0.257545
H19   H     H_    0.202902 0.941034 0.171388 0.271233
H20   H     H_    0.247301 0.844766 0.072238 0.252611
H21   H     H_    0.225035 0.062746 0.026270 0.228254
H22   H     H_    0.393930 0.020436 0.994799 0.226971
H23   H     H_    0.449907 0.127938 0.138107 0.201040
H24   H     H_    0.282021 0.173895 0.162890 0.208357
Cl1   Cl    Cl    0.248364 0.067768 0.527630 -0.642153
Cl2   Cl    Cl    0.744999 0.934651 0.495238 -0.618534
C33   C     C_3   0.101958 0.645635 0.602152 -0.257690
C34   C     C_3   0.203360 0.745252 0.630800 -0.270005
C35   C     C_3   0.136410 0.831058 0.704175 -0.876041
H25   H     H_    0.057285 0.878378 0.678786 0.300194
H26   H     H_    0.091926 0.776307 0.766411 0.246573
H27   H     H_    0.211575 0.903952 0.722538 0.272443
H28   H     H_    0.281502 0.702266 0.659302 0.253491
H29   H     H_    0.247434 0.804518 0.571147 0.271492
H30   H     H_    0.032530 0.699346 0.570949 0.193149
H31   H     H_    0.046855 0.596955 0.664714 0.171345
C36   C     C_3   0.900169 0.362548 0.392081 -0.236838
C37   C     C_3   0.816473 0.328889 0.317869 -0.289363
C38   C     C_3   0.878646 0.229901 0.253295 -0.950688
H32   H     H_    0.980828 0.264573 0.220355 0.268610
H33   H     H_    0.882965 0.141945 0.291075 0.292742
H34   H     H_    0.817102 0.208718 0.199271 0.258333
H35   H     H_    0.715542 0.289710 0.347953 0.251772
H36   H     H_    0.812477 0.413724 0.276640 0.242295
H37   H     H_    0.996353 0.406359 0.354617 0.161518
H38   H     H_    0.917651 0.274303 0.425287 0.208775

loop_
_geom_bond_atom_site_label_1
_geom_bond_atom_site_label_2
_ccdc_geom_bond_type
C25   H5    S    
C6    Cl1   S    
C26   H6    S    
C17   H3    S    
C35   H25   S    
C33   H30   S    
C36   C37   S    
C3    C27   S    
C7    C8    S    
C5    Cl2   S    
C1    C5    S    
C19   C21   A    
C37   H35   S    
C27   H16   S    
C13   C23   A    
C15   C17   A    
C14   C24   A    
C32   H19   S    
C34   H29   S    
C30   H23   S    
O8    Zn1   S    
C9    H10   S    
C11   O5    A    
C10   H9    S    
C18   H4    S    
C9    C10   S    
C18   C20   A    
O4    Zn1   S    
C36   H37   S    
C31   H22   S    
C30   C31   S    
C21   C22   A    
C35   H26   S    
N1    C36   S    
C3    C24   A    
C2    C6    S    
C33   H31   S    
C29   H11   S    
C3    C25   A    
C12   O8    A    
C5    C7    D    
C4    C23   A    
C6    C8    D    
C28   H15   S    
C27   H17   S    
C31   C32   S    
C29   H12   S    
C32   H20   S    
C34   H28   S    
C30   H24   S    
C11   C16   S    
C38   H32   S    
C12   C15   S    
C9    N1    D    
C28   C29   S    
N1    Zn2   S    
N2    Zn1   S    
C36   H38   S    
C1    O3    A    
C38   H33   S    
C20   C22   A    
C31   H21   S    
C37   C38   S    
C13   C15   A    
C35   H27   S    
C14   C16   A    
C11   O7    A    
C7    H8    S    
O1    Zn1   S    
O7    Zn2   S    
O2    Zn2   S    
N2    C33   S    
C34   C35   S    
C4    C26   A    
C28   H14   S    
C10   N2    D    
C29   H13   S    
C21   C23   A    
C33   C34   S    
C12   O6    A    
C20   C26   A    
C2    O4    A    
C37   H36   S    
C4    C30   S    
C17   C19   A    
O3    Zn2   S    
C22   C24   A    
C8    H7    S    
C32   H18   S    
C19   C25   A    
C1    O1    A    
C2    O2    A    
C38   H34   S    
C16   C18   A    
C27   C28   S    
C13   H1    S    
C14   H2    S    
O5    Zn1   S    
O6    Zn2   S    
