data_mof_unit_16350.cif
_audit_creation_date              2012-12-11T15:55:42-0500
_audit_creation_method            fapswitch 2.2
_symmetry_space_group_name_H-M    P1
_symmetry_Int_Tables_number       1
_space_group_crystal_system       triclinic
_cell_length_a                    11.101411
_cell_length_b                    11.208214
_cell_length_c                    18.779756
_cell_angle_alpha                 90.532757
_cell_angle_beta                  90.73955
_cell_angle_gamma                 59.294865
_cell_volume                      2008.93987298

loop_
_atom_site_label
_atom_site_type_symbol
_atom_type_description
_atom_site_fract_x
_atom_site_fract_y
_atom_site_fract_z
_atom_type_partial_charge
C1    C     C_R   0.358368 0.770047 0.396520 0.530841
C2    C     C_R   0.633631 0.118794 0.167552 0.037720
C3    C     C_R   0.364274 0.320497 0.161680 0.009624
C4    C     C_R   0.484054 0.234234 0.273613 -0.157335
C5    C     C_R   0.490134 0.224095 0.199356 -0.023366
C6    C     C_R   0.106532 0.643338 0.335529 -0.108758
C7    C     C_R   0.993321 0.739300 0.374954 -0.094072
C8    C     C_R   0.661678 0.008615 0.119126 -0.074625
C9    C     C_R   0.795680 0.914099 0.095568 -0.145604
C10   C     C_R   0.247565 0.422955 0.198366 -0.162744
C11   C     C_R   0.241869 0.425554 0.271452 -0.027527
C12   C     C_R   0.386450 0.354235 0.387160 0.575373
C13   C     C_R   0.870942 0.731951 0.375855 0.288654
C14   C     C_R   0.863701 0.634110 0.332021 -0.050232
C15   C     C_R   0.981903 0.535723 0.294701 -0.122376
C16   C     C_R   0.108594 0.532850 0.303018 0.022401
C17   C     C_R   0.364586 0.335128 0.310752 0.023816
C18   C     C_R   0.873109 0.331606 0.185130 0.018220
C19   C     C_R   0.961715 0.236101 0.236042 -0.031368
C20   C     C_R   0.923878 0.242686 0.305251 -0.004759
C21   C     C_R   0.704574 0.449613 0.278191 -0.175056
C22   C     C_R   0.739452 0.436379 0.205952 -0.173397
C23   C     C_R   0.770861 0.382007 0.402315 0.578038
C24   C     C_3   0.114072 0.164867 0.254162 -0.258376
C25   C     C_3   0.071418 0.161437 0.331170 -0.062549
C26   C     C_R   0.803832 0.359026 0.328725 0.038207
C27   C     C_R   0.362750 0.817318 0.172136 0.003028
C28   C     C_R   0.465723 0.818531 0.215869 -0.007778
C29   C     C_R   0.459462 0.813877 0.290336 0.021381
C30   C     C_R   0.246234 0.813926 0.278432 -0.188749
C31   C     C_R   0.269246 0.787743 0.206286 -0.157832
C32   C     C_3   0.509778 0.921961 0.220802 -0.289360
C33   C     C_3   0.495797 0.922938 0.299825 -0.290692
C34   C     C_R   0.345579 0.763590 0.605618 0.546865
C35   C     C_R   0.346934 0.815970 0.322743 0.015174
C36   C     C_R   0.311694 0.334440 0.817374 0.000776
C37   C     C_R   0.445221 0.281465 0.788892 -0.033935
C38   C     C_R   0.460432 0.282328 0.716552 0.082212
C39   C     C_R   0.209800 0.409608 0.698855 -0.199152
C40   C     C_R   0.193117 0.406735 0.772470 -0.171406
C41   C     C_3   0.575972 0.141604 0.796454 -0.231344
C42   C     C_3   0.584913 0.138747 0.716271 0.140637
C43   C     C_R   0.344926 0.340154 0.670419 -0.020913
C44   C     C_R   0.852126 0.309278 0.830392 0.037093
C45   C     C_R   0.372371 0.352115 0.596774 0.550472
C46   C     C_R   0.715511 0.383665 0.805107 0.000416
C47   C     C_R   0.691186 0.403989 0.732567 0.080594
C48   C     C_R   0.938474 0.269728 0.708494 -0.172245
C49   C     C_R   0.963893 0.250225 0.781805 -0.133103
C50   C     C_3   0.606584 0.529736 0.822198 -0.289794
C51   C     C_3   0.583699 0.552900 0.742813 -0.265629
C52   C     C_R   0.800590 0.347920 0.683816 0.074565
C53   C     C_R   0.254846 0.921968 0.816113 -0.031027
C54   C     C_R   0.183697 0.863592 0.784350 0.009473
C55   C     C_R   0.210731 0.817958 0.715826 -0.045709
C56   C     C_R   0.764487 0.376769 0.609456 0.545034
C57   C     C_R   0.353296 0.919748 0.699733 0.222525
C58   C     C_R   0.332340 0.959807 0.771969 -0.148314
C59   C     C_3   0.158181 0.750765 0.806415 -0.242427
C60   C     C_3   0.184999 0.701952 0.729413 -0.259887
C61   C     C_R   0.304342 0.834219 0.673782 0.009991
C62   C     C_R   0.917335 0.313578 0.112640 0.555883
C63   C     C_R   0.331431 0.293086 0.090893 0.547988
C64   C     C_R   0.310366 0.894627 0.104289 0.541012
C65   C     C_R   0.885325 0.307785 0.904731 0.532896
C66   C     C_R   0.295780 0.289471 0.886459 0.540876
C67   C     C_R   0.909312 0.916901 0.123756 -0.084323
C68   C     C_R   0.239363 0.953903 0.891524 0.556653
C69   C     C_R   0.888878 0.013499 0.176238 -0.085917
C70   C     C_R   0.753081 0.115202 0.196488 -0.112195
Cr1   Cr    Cr6+3 0.601740 0.606840 0.505840 1.064185
Cr2   Cr    Cr6+3 0.291500 0.601560 0.495070 1.005675
Cr3   Cr    Cr6+3 0.606780 0.291630 0.499130 0.976293
Cr4   Cr    Cr6+3 0.062440 0.063060 0.008240 1.011083
Cr5   Cr    Cr6+3 0.062950 0.375000 0.998920 0.996974
Cr6   Cr    Cr6+3 0.374550 0.061770 0.992470 0.985833
H1    H     H_    0.577533 0.162841 0.302848 0.130107
H2    H     H_    0.766876 0.634208 0.327655 0.152382
H3    H     H_    0.975920 0.461120 0.261260 0.144773
H4    H     H_    0.603015 0.532380 0.295092 0.132504
H5    H     H_    0.664962 0.508486 0.167446 0.131668
H6    H     H_    0.159648 0.231537 0.246330 0.155614
H7    H     H_    0.172557 0.062712 0.228399 0.145092
H8    H     H_    0.095286 0.057394 0.348426 0.136349
H9    H     H_    0.146158 0.838543 0.299036 0.109098
H10   H     H_    0.811941 0.832998 0.058264 0.101245
H11   H     H_    0.192921 0.775067 0.176719 0.131393
H12   H     H_    0.432928 0.021928 0.195650 0.164848
H13   H     H_    0.621863 0.871272 0.206742 0.139319
H14   H     H_    0.596544 0.883318 0.327016 0.175387
H15   H     H_    0.408583 0.021993 0.321319 0.163541
H16   H     H_    0.118527 0.462631 0.664433 0.139771
H17   H     H_    0.088144 0.451082 0.793207 0.149386
H18   H     H_    0.561016 0.057214 0.816125 0.126728
H19   H     H_    0.661573 0.148615 0.823857 0.161292
H20   H     H_    0.004198 0.814878 0.405728 0.124492
H21   H     H_    0.559125 0.065324 0.690241 0.160338
H22   H     H_    0.025314 0.227543 0.671782 0.097264
H23   H     H_    0.070860 0.197953 0.801032 0.105467
H24   H     H_    0.650317 0.589738 0.847588 0.158144
H25   H     H_    0.515497 0.536241 0.849884 0.142123
H26   H     H_    0.481088 0.573287 0.724136 0.129472
H27   H     H_    0.616455 0.624359 0.721736 0.168432
H28   H     H_    0.378012 0.017572 0.793549 0.140721
H29   H     H_    0.047981 0.791612 0.822753 0.138464
H30   H     H_    0.012631 0.840120 0.106270 0.123847
H31   H     H_    0.239426 0.676030 0.844024 0.150227
H32   H     H_    0.278909 0.598607 0.722919 0.151044
H33   H     H_    0.089922 0.715066 0.701923 0.138311
H34   H     H_    0.979094 0.008052 0.201402 0.127913
H35   H     H_    0.740746 0.188291 0.237423 0.123947
H36   H     H_    0.202093 0.642377 0.333784 0.176214
H37   H     H_    0.587208 0.979547 0.103290 0.169325
H38   H     H_    0.153783 0.498096 0.169826 0.141373
O1    O     O_R   0.748670 0.497520 0.427970 -0.484157
O2    O     O_R   0.300170 0.471020 0.567120 -0.491191
O3    O     O_R   0.491630 0.259030 0.574940 -0.520417
O4    O     O_R   0.718640 0.304340 0.577850 -0.481059
O5    O     O_3   0.500010 0.500010 0.500020 -0.271050
O6    O     O_R   0.186620 0.923750 0.087000 -0.534392
O7    O     O_R   0.957350 0.194160 0.084660 -0.488685
O8    O     O_R   0.935120 0.407280 0.085350 -0.524420
O9    O     O_R   0.203800 0.365060 0.067090 -0.509308
O10   O     O_R   0.417470 0.174910 0.067830 -0.541043
O11   O     O_R   0.375160 0.946380 0.070880 -0.513321
O12   O     O_R   0.476470 0.723930 0.429450 -0.496657
O13   O     O_R   0.160500 0.919670 0.926690 -0.512345
O14   O     O_R   0.933140 0.190380 0.936050 -0.511361
O15   O     O_R   0.909010 0.403210 0.925030 -0.524195
O16   O     O_R   0.179590 0.361290 0.918480 -0.508937
O17   O     O_R   0.391360 0.170840 0.907510 -0.538107
O18   O     O_R   0.350950 0.942600 0.922260 -0.508174
O19   O     O_3   0.166650 0.166610 0.999880 -0.275860
O20   O     O_R   0.264730 0.744140 0.416740 -0.561759
O21   O     O_R   0.309440 0.472410 0.418220 -0.487429
O22   O     O_R   0.501630 0.260530 0.414310 -0.563470
O23   O     O_R   0.727920 0.305730 0.428950 -0.525698
O24   O     O_R   0.738670 0.496020 0.588600 -0.511483
O25   O     O_R   0.467190 0.722540 0.578350 -0.470524
O26   O     O_R   0.254720 0.742640 0.577370 -0.542283
O27   O     O_3   0.762323 0.809754 0.422410 -0.580988
C71   C     C_3   0.724324 0.950792 0.421949 -0.038969
H39   H     H_    0.609297 0.012518 0.427677 0.172972
H40   H     H_    0.747743 0.984243 0.370748 0.109128
C72   C     C_3   0.792258 0.983211 0.484171 -0.363288
H41   H     H_    0.851338 0.031635 0.464618 0.119158
H42   H     H_    0.711599 0.056347 0.521389 0.170003
H43   H     H_    0.865395 0.887124 0.513655 0.145136
I1    I     I_    0.130146 0.259423 0.411216 -0.474907
O28   O     O_3   0.705771 0.135170 0.691370 -0.527335
C73   C     C_3   0.807864 0.996676 0.675201 -0.014433
H44   H     H_    0.765875 0.946900 0.639021 0.118526
H45   H     H_    0.847807 0.934804 0.724973 0.129105
C74   C     C_3   0.928750 0.994403 0.637468 -0.368403
H46   H     H_    0.983498 0.027479 0.674687 0.164901
H47   H     H_    0.001182 0.888732 0.617177 0.125165
H48   H     H_    0.892936 0.065080 0.591572 0.171501
O29   O     O_3   0.433740 0.951595 0.657801 -0.587620
C75   C     C_3   0.350328 0.041340 0.602104 -0.010562
H49   H     H_    0.300384 0.149688 0.620997 0.137406
H50   H     H_    0.263842 0.026073 0.582659 0.125546
C76   C     C_3   0.443860 0.020349 0.539250 -0.323815
H51   H     H_    0.466557 0.925835 0.509076 0.184969
H52   H     H_    0.392020 0.110765 0.503087 0.144226
H53   H     H_    0.544370 0.007649 0.558489 0.167688

loop_
_geom_bond_atom_site_label_1
_geom_bond_atom_site_label_2
_ccdc_geom_bond_type
C44   C49   A    
C7    C13   A    
C21   C26   A    
Cr3   O5    S    
C63   O9    A    
Cr5   O8    S    
C41   C42   S    
C19   C20   A    
C40   H17   S    
C57   O29   S    
C9    C67   A    
C63   O10   A    
C41   H18   S    
C53   C54   A    
C51   H26   S    
C7    H20   S    
C59   H29   S    
C20   C26   A    
C30   C35   A    
Cr5   O9    S    
C21   C22   A    
C28   C29   A    
C24   H7    S    
C38   C42   S    
C33   H15   S    
C30   C31   A    
Cr6   O17   S    
C36   C66   S    
C23   C26   S    
C20   C25   S    
C51   H27   S    
C15   C16   A    
C32   H12   S    
Cr4   O19   S    
C29   C33   S    
C34   O25   A    
Cr2   O5    S    
C25   I1    S    
C18   C19   A    
C11   C16   S    
C73   C74   S    
C68   O18   A    
C53   C68   S    
C24   H6    S    
C60   H33   S    
C54   C55   A    
Cr4   O14   S    
C75   H49   S    
C8    C9    A    
C12   O21   A    
C12   C17   S    
C25   H8    S    
C73   H44   S    
C75   H50   S    
Cr1   O12   S    
C13   O27   S    
C33   H14   S    
C74   H47   S    
C60   H32   S    
Cr5   O16   S    
C14   H2    S    
C59   C60   S    
C55   C60   S    
Cr6   O11   S    
C71   C72   S    
C44   C65   S    
C56   O4    A    
C72   H42   S    
C44   C46   A    
C46   C50   S    
C72   H41   S    
Cr1   O24   S    
C76   H52   S    
C54   C59   S    
C15   H3    S    
C31   H11   S    
C27   C31   A    
Cr6   O10   S    
C65   O14   A    
C36   C40   A    
Cr3   O3    S    
C1    O12   A    
C74   H48   S    
C10   H38   S    
C70   H35   S    
C42   H21   S    
C39   C40   A    
C18   C62   S    
Cr2   O21   S    
C39   C43   A    
C6    C16   A    
C34   C61   S    
C59   H31   S    
C67   C69   A    
C22   H5    S    
C37   C38   A    
C65   O15   A    
C9    H10   S    
C49   H23   S    
C76   H53   S    
C56   O24   A    
C69   H34   S    
Cr2   O20   S    
Cr4   O13   S    
C14   C15   A    
Cr3   O22   S    
C28   C32   S    
C53   C58   A    
C50   C51   S    
C75   C76   S    
Cr1   O1    S    
C24   C25   S    
C30   H9    S    
C57   C61   A    
C43   C45   S    
C68   O13   A    
C74   H46   S    
C47   C52   A    
C8    H37   S    
C4    C17   A    
C48   C49   A    
C10   C11   A    
C32   H13   S    
O29   C75   S    
C71   H40   S    
C2    C5    S    
C58   H28   S    
Cr2   O26   S    
C1    O20   A    
C39   H16   S    
C62   O8    A    
C72   H43   S    
Cr4   O6    S    
C1    C35   S    
C66   O17   A    
C45   O3    A    
C29   C35   A    
C46   C47   A    
C36   C37   A    
Cr3   O4    S    
C18   C22   A    
C6    H36   S    
C23   O23   A    
C2    C8    A    
C4    C5    A    
C3    C5    A    
C11   C17   A    
C47   C51   S    
Cr6   O19   S    
Cr5   O19   S    
C67   H30   S    
Cr1   O25   S    
C6    C7    A    
C3    C63   S    
C76   H51   S    
C48   H22   S    
Cr2   O2    S    
C50   H24   S    
C64   O6    A    
Cr1   O5    S    
C32   C33   S    
C19   C24   S    
C38   C43   A    
C3    C10   A    
C2    C70   A    
O27   C71   S    
Cr6   O18   S    
C45   O2    A    
C57   C58   A    
C41   H19   S    
Cr3   O23   S    
C55   C61   A    
C21   H4    S    
C34   O26   A    
C73   H45   S    
C37   C41   S    
C69   C70   A    
C42   O28   S    
C27   C64   S    
C23   O1    A    
Cr5   O15   S    
C4    H1    S    
C48   C52   A    
Cr4   O7    S    
C50   H25   S    
C64   O11   A    
C12   O22   A    
C27   C28   A    
C71   H39   S    
C13   C14   A    
C62   O7    A    
C52   C56   S    
O28   C73   S    
C66   O16   A    
