data_mof_unit_61325.cif
_audit_creation_date              2012-12-11T15:02:48-0500
_audit_creation_method            fapswitch 2.2
_symmetry_space_group_name_H-M    P1
_symmetry_Int_Tables_number       1
_space_group_crystal_system       triclinic
_cell_length_a                    13.26541
_cell_length_b                    13.270724
_cell_length_c                    26.788387
_cell_angle_alpha                 96.644413
_cell_angle_beta                  96.840755
_cell_angle_gamma                 61.216583
_cell_volume                      4094.54425654

loop_
_atom_site_label
_atom_site_type_symbol
_atom_type_description
_atom_site_fract_x
_atom_site_fract_y
_atom_site_fract_z
_atom_type_partial_charge
C1    C     C_R   0.378917 0.723302 0.435012 0.548720
C2    C     C_1   0.330007 0.338968 0.268398 0.048499
C3    C     C_1   0.343848 0.346728 0.321308 0.000264
C4    C     C_1   0.362341 0.356000 0.366161 0.023553
C5    C     C_3   0.898323 0.215984 0.264518 -0.126863
C6    C     C_3   0.798354 0.245105 0.222454 -0.106890
C7    C     C_1   0.891624 0.294225 0.102583 0.012923
C8    C     C_1   0.774851 0.364537 0.390100 0.019873
C9    C     C_3   0.940193 0.284964 0.238446 0.253734
C10   C     C_3   0.842591 0.313195 0.197054 0.044670
C11   C     C_3   0.866044 0.397127 0.269147 -0.125996
C12   C     C_R   0.394665 0.373162 0.417922 0.551819
C13   C     C_3   0.821828 0.328935 0.294565 0.015313
C14   C     C_3   0.766252 0.425762 0.227246 -0.114479
C15   C     C_3   0.722751 0.357646 0.253384 0.259755
C16   C     C_1   0.863156 0.303928 0.144336 -0.000457
C17   C     C_1   0.802696 0.343934 0.347724 -0.004151
C18   C     C_3   0.330323 0.924963 0.270504 0.271551
C19   C     C_3   0.426508 0.850611 0.235789 0.262505
C20   C     C_1   0.306817 0.886696 0.100875 0.010822
C21   C     C_1   0.362409 0.772362 0.388461 0.010879
C22   C     C_3   0.240092 0.916017 0.231106 -0.126988
C23   C     C_R   0.724799 0.399062 0.437156 0.549884
C24   C     C_3   0.338569 0.839630 0.196375 0.038570
C25   C     C_3   0.259999 0.805346 0.254414 -0.150777
C26   C     C_3   0.349563 0.816881 0.293656 0.048151
C27   C     C_3   0.357916 0.729549 0.218934 -0.128012
C28   C     C_3   0.448082 0.740314 0.258995 -0.106357
C29   C     C_1   0.326621 0.858775 0.143301 -0.000808
C30   C     C_1   0.354619 0.799112 0.346484 0.004289
C31   C     C_3   0.329023 0.245692 0.720354 -0.098464
C32   C     C_3   0.414515 0.252575 0.763494 -0.097215
C33   C     C_1   0.296106 0.309244 0.887409 -0.007751
C34   C     C_R   0.381421 0.724611 0.575473 0.542931
C35   C     C_1   0.361713 0.359609 0.603663 -0.007135
C36   C     C_3   0.226301 0.332564 0.751069 -0.097967
C37   C     C_3   0.312164 0.339584 0.793415 0.047137
C38   C     C_3   0.224603 0.434452 0.727273 -0.097705
C39   C     C_3   0.327065 0.347237 0.697457 0.047278
C40   C     C_3   0.310221 0.441224 0.770590 -0.098925
C41   C     C_3   0.412847 0.354294 0.739846 -0.097833
C42   C     C_1   0.304437 0.328308 0.845908 -0.051634
C43   C     C_1   0.341615 0.351951 0.645056 -0.051507
C44   C     C_1   0.889072 0.294455 0.864749 -0.005418
C45   C     C_R   0.395513 0.375909 0.558162 0.544681
C46   C     C_1   0.861556 0.306175 0.820409 -0.042496
C47   C     C_1   0.838643 0.320101 0.768107 -0.007119
C48   C     C_1   0.821530 0.333540 0.723554 -0.007199
C49   C     C_1   0.798798 0.352537 0.671672 -0.042834
C50   C     C_1   0.771563 0.372957 0.627964 -0.005732
C51   C     C_1   0.293390 0.893837 0.863137 -0.006391
C52   C     C_1   0.313065 0.866281 0.819468 -0.042851
C53   C     C_1   0.330646 0.842829 0.767562 -0.004717
C54   C     C_1   0.342735 0.824947 0.722970 -0.004772
C55   C     C_1   0.355238 0.801088 0.670684 -0.042529
C56   C     C_R   0.724174 0.403614 0.577643 0.541265
C57   C     C_1   0.366236 0.772870 0.626443 -0.005741
C58   C     C_R   0.941521 0.278391 0.056415 0.548548
C59   C     C_R   0.287960 0.271295 0.073307 0.546144
C60   C     C_R   0.270991 0.936938 0.053727 0.545699
C61   C     C_R   0.936840 0.279395 0.915932 0.541840
C62   C     C_R   0.281632 0.274193 0.932998 0.543864
C63   C     C_R   0.262745 0.941041 0.913313 0.542257
C64   C     C_1   0.304734 0.302352 0.125253 0.012535
C65   C     C_1   0.313901 0.319472 0.170187 -0.005026
C66   C     C_1   0.322008 0.331800 0.223121 0.051527
Cr1   Cr    Cr6+3 0.585520 0.589730 0.508860 1.043781
Cr2   Cr    Cr6+3 0.329140 0.580910 0.495080 1.041605
Cr3   Cr    Cr6+3 0.585350 0.329380 0.496090 1.050632
Cr4   Cr    Cr6+3 0.077110 0.074680 0.982320 1.040189
Cr5   Cr    Cr6+3 0.079190 0.334150 0.996330 1.044804
Cr6   Cr    Cr6+3 0.334370 0.081620 0.994860 1.049995
H1    H     H_    0.768791 0.184649 0.202734 0.139818
H2    H     H_    0.368919 0.649088 0.196983 0.158539
H3    H     H_    0.191127 0.786437 0.262881 0.133504
H4    H     H_    0.155185 0.988403 0.219414 0.146774
H5    H     H_    0.492710 0.178239 0.779187 0.117599
H6    H     H_    0.336477 0.165780 0.699057 0.116556
H7    H     H_    0.489945 0.362942 0.734385 0.117898
H8    H     H_    0.302818 0.521066 0.791935 0.116805
H9    H     H_    0.146522 0.508708 0.711474 0.117437
H10   H     H_    0.149264 0.323874 0.756591 0.118273
H11   H     H_    0.954496 0.130913 0.280246 0.122896
H12   H     H_    0.710786 0.510892 0.211449 0.134768
H13   H     H_    0.896300 0.457211 0.288681 0.122917
H14   H     H_    0.533742 0.669474 0.271008 0.150409
O1    O     O_R   0.700650 0.499560 0.456090 -0.505882
O2    O     O_R   0.338920 0.475010 0.540740 -0.495869
O3    O     O_R   0.494530 0.302750 0.544370 -0.505215
O4    O     O_R   0.682350 0.343320 0.552170 -0.495528
O5    O     O_3   0.500010 0.500010 0.500010 -0.256566
O6    O     O_R   0.170670 0.959150 0.034900 -0.507256
O7    O     O_R   0.983710 0.178390 0.033850 -0.494187
O8    O     O_R   0.965940 0.354890 0.046440 -0.499894
O9    O     O_R   0.187770 0.326880 0.051460 -0.492964
O10   O     O_R   0.362310 0.174000 0.055490 -0.497307
O11   O     O_R   0.326800 0.983030 0.039600 -0.485980
O12   O     O_R   0.479220 0.682850 0.457510 -0.490452
O13   O     O_R   0.165220 0.960770 0.926060 -0.505211
O14   O     O_R   0.978660 0.179890 0.932950 -0.494771
O15   O     O_R   0.960490 0.356500 0.937600 -0.504478
O16   O     O_R   0.182720 0.328380 0.950570 -0.495524
O17   O     O_R   0.356860 0.175610 0.946640 -0.505874
O18   O     O_R   0.321740 0.984530 0.938700 -0.494376
O19   O     O_3   0.163560 0.163490 0.991170 -0.257093
O20   O     O_R   0.304230 0.696360 0.445090 -0.504901
O21   O     O_R   0.337790 0.472640 0.439840 -0.496779
O22   O     O_R   0.493310 0.300190 0.435520 -0.493440
O23   O     O_R   0.681220 0.340950 0.451270 -0.487811
O24   O     O_R   0.701870 0.502110 0.564940 -0.505426
O25   O     O_R   0.480360 0.685220 0.558410 -0.494602
O26   O     O_R   0.305450 0.698920 0.553940 -0.504332
Cl1   Cl    Cl    0.575665 0.407139 0.264043 -0.647818
O27   O     O_3   0.054946 0.246614 0.229051 -0.697887
H15   H     H_    0.097302 0.237559 0.262703 0.328257
O28   O     O_3   0.512270 0.875651 0.224975 -0.682731
H16   H     H_    0.555975 0.875679 0.257673 0.333519
O29   O     O_3   0.317647 0.025684 0.298342 -0.696203
H17   H     H_    0.311363 0.077966 0.273163 0.338643

loop_
_geom_bond_atom_site_label_1
_geom_bond_atom_site_label_2
_ccdc_geom_bond_type
C1    C21   S    
C34   O26   A    
C54   C55   S    
C18   C26   S    
C24   C27   S    
C22   H4    S    
C8    C23   S    
O27   H15   S    
C39   C41   S    
Cr5   O8    S    
C53   C54   T    
C52   C53   S    
C59   C64   S    
C59   O9    A    
C31   H6    S    
C33   C42   T    
C36   C37   S    
C58   O7    A    
C37   C40   S    
C38   C39   S    
C5    H11   S    
C11   C14   S    
Cr5   O9    S    
Cr2   O5    S    
O28   H16   S    
C18   C19   S    
Cr2   O26   S    
C56   O24   A    
C37   C42   S    
C49   C50   T    
O29   H17   S    
C63   O13   A    
Cr1   O12   S    
C6    C15   S    
C24   C29   S    
Cr3   O23   S    
C31   C32   S    
C36   H10   S    
C33   C62   S    
C22   C25   S    
C34   C57   S    
C32   C41   S    
C40   H8    S    
Cr2   O21   S    
C14   H12   S    
C20   C60   S    
C27   H2    S    
C35   C43   T    
C9    C10   S    
C18   O29   S    
C7    C58   S    
C5    C13   S    
C1    O20   A    
C20   C29   T    
C56   O4    A    
Cr5   O15   S    
C23   O1    A    
C34   O25   A    
Cr2   O20   S    
Cr3   O3    S    
Cr1   O5    S    
Cr3   O22   S    
Cr4   O14   S    
Cr6   O11   S    
C60   O6    A    
C23   O23   A    
C51   C52   T    
Cr4   O7    S    
C51   C63   S    
C60   O11   A    
C10   C14   S    
C12   O22   A    
C39   C43   S    
Cr6   O18   S    
C25   C26   S    
C50   C56   S    
C25   H3    S    
C61   O15   A    
C5    C9    S    
Cr1   O24   S    
C47   C48   T    
C14   C15   S    
C13   C15   S    
C45   O2    A    
C15   Cl1   S    
C32   C37   S    
C19   C28   S    
C9    C11   S    
Cr1   O25   S    
C48   C49   S    
Cr5   O16   S    
C26   C30   S    
C55   C57   T    
C38   H9    S    
C28   H14   S    
Cr2   O2    S    
C22   C24   S    
C61   O14   A    
C4    C12   S    
C59   O10   A    
C9    O27   S    
C3    C4    T    
C35   C45   S    
C45   O3    A    
Cr4   O13   S    
C6    H1    S    
C62   O17   A    
C46   C47   S    
C7    C16   T    
C18   C22   S    
Cr1   O1    S    
Cr4   O6    S    
C63   O18   A    
C2    C66   T    
Cr4   O19   S    
C1    O12   A    
C6    C10   S    
C12   O21   A    
Cr6   O17   S    
C44   C61   S    
C25   C27   S    
C21   C30   T    
C26   C28   S    
C8    C17   T    
C13   C17   S    
C64   C65   T    
Cr5   O19   S    
C2    C3    S    
C58   O8    A    
C10   C16   S    
C38   C40   S    
C11   C13   S    
C5    C6    S    
C19   O28   S    
C11   H13   S    
C36   C38   S    
C31   C39   S    
C19   C24   S    
C32   H5    S    
Cr6   O10   S    
Cr6   O19   S    
C65   C66   S    
C41   H7    S    
C27   C28   S    
C31   C36   S    
C40   C41   S    
Cr3   O5    S    
C44   C46   T    
Cr3   O4    S    
C62   O16   A    
