data_mof_unit_45375.cif
_audit_creation_date              2012-12-10T17:40:02-0500
_audit_creation_method            fapswitch 2.2
_symmetry_space_group_name_H-M    P1
_symmetry_Int_Tables_number       1
_space_group_crystal_system       triclinic
_cell_length_a                    11.981312
_cell_length_b                    12.929012
_cell_length_c                    26.823474
_cell_angle_alpha                 91.125852
_cell_angle_beta                  84.601966
_cell_angle_gamma                 91.66364
_cell_volume                      4134.36276259

loop_
_atom_site_label
_atom_site_type_symbol
_atom_type_description
_atom_site_fract_x
_atom_site_fract_y
_atom_site_fract_z
_atom_type_partial_charge
C1    C     C_R   0.520974 0.701107 0.496318 0.890278
C2    C     C_R   0.687105 0.418034 0.119709 -0.078457
C3    C     C_R   0.500742 0.523605 0.648654 -0.211511
C4    C     C_R   0.505736 0.477419 0.351167 -0.212625
C5    C     C_R   0.709538 0.437895 0.015161 0.032751
C6    C     C_R   0.552074 0.346424 0.958775 0.058719
C7    C     C_R   0.522987 0.359419 0.010786 -0.002871
C8    C     C_R   0.712001 0.466523 0.964252 0.009912
C9    C     C_R   0.608547 0.396931 0.039452 0.026072
C10   C     C_R   0.636670 0.411870 0.935393 0.033210
C11   C     C_R   0.804556 0.442318 0.041657 -0.232402
C12   C     C_R   0.479245 0.298723 0.505105 0.882842
C13   C     C_R   0.503684 0.268927 0.929804 -0.286220
C14   C     C_R   0.795359 0.431305 0.093544 0.245305
C15   C     C_R   0.521057 0.269680 0.877496 0.237920
C16   C     C_R   0.498875 0.502617 0.594823 0.903507
C17   C     C_R   0.501434 0.497708 0.405233 0.911898
C18   C     C_R   0.779290 0.550138 0.942085 0.082134
C19   C     C_R   0.412068 0.345180 0.034320 0.115996
C20   C     C_R   0.468287 0.187512 0.518715 -0.240311
C21   C     C_R   0.533321 0.813974 0.498151 -0.162580
C22   C     C_R   0.645185 0.954416 0.529674 0.220887
C23   C     C_R   0.642774 0.423446 0.883470 -0.160855
C24   C     C_R   0.354909 0.033198 0.541562 0.236932
C25   C     C_R   0.640870 0.859748 0.503808 0.042781
C26   C     C_R   0.359111 0.140291 0.532821 0.065749
C27   C     C_R   0.435850 0.874650 0.505494 0.099589
C28   C     C_R   0.567976 0.127647 0.521117 0.098481
C29   C     C_R   0.447625 0.975373 0.525084 -0.057744
C30   C     C_R   0.554086 0.020202 0.528147 -0.008204
C31   C     C_R   0.963951 0.422795 0.444632 0.120779
C32   C     C_R   0.035270 0.567513 0.558061 0.147283
C33   C     C_R   0.846102 0.431110 0.449861 0.308037
C34   C     C_R   0.593659 0.395943 0.092052 -0.129917
C35   C     C_R   0.153814 0.574012 0.548889 0.296945
C36   C     C_R   0.852686 0.524234 0.526604 -0.133101
C37   C     C_R   0.146731 0.467894 0.475781 -0.108603
C38   C     C_R   0.971549 0.521704 0.521851 -0.062051
C39   C     C_R   0.028001 0.471207 0.480120 -0.060625
C40   C     C_R   0.700396 0.519412 0.809025 0.557481
C41   C     C_R   0.473082 0.385038 0.169470 0.568874
C42   C     C_R   0.581624 0.374704 0.803122 0.545045
C43   C     C_R   0.667548 0.429715 0.171964 0.478714
C44   C     C_R   0.451204 0.476912 0.734749 0.196843
C45   C     C_R   0.710021 0.503149 0.860465 -0.093466
C46   C     C_R   0.540293 0.540601 0.265894 0.143941
C47   C     C_R   0.427984 0.471039 0.684453 0.118501
C48   C     C_R   0.529584 0.560024 0.317879 0.113361
C49   C     C_R   0.574092 0.602245 0.665252 0.071744
C50   C     C_R   0.502430 0.373603 0.332914 0.038449
C51   C     C_R   0.603428 0.599521 0.715462 0.226980
C52   C     C_R   0.525036 0.354116 0.280999 0.221626
C53   C     C_R   0.559339 0.515048 0.745290 0.057975
C54   C     C_R   0.542906 0.437189 0.247910 0.175754
C55   C     C_3   0.595884 0.698001 0.633062 -0.367161
C56   C     C_R   0.485781 0.375161 0.116611 -0.112742
C57   C     C_3   0.504608 0.776921 0.645901 -0.882247
C58   C     C_3   0.480712 0.283741 0.368736 -0.397280
C59   C     C_3   0.355585 0.258347 0.378422 -0.855004
C60   C     C_3   0.250898 0.202364 0.533696 -0.332737
C61   C     C_3   0.135969 0.147902 0.542395 -0.947438
C62   C     C_3   0.749115 0.815940 0.477926 -0.365947
C63   C     C_3   0.816742 0.895736 0.445114 -0.938276
C64   C     C_3   0.708462 0.000136 0.610966 -0.831413
C65   C     C_3   0.277239 0.007541 0.627736 -0.792071
C66   C     C_3   0.173925 0.732874 0.601633 -0.853780
C67   C     C_R   0.778527 0.566919 0.889581 0.197028
C68   C     C_3   0.807649 0.418116 0.360976 -0.703711
C69   C     C_3   0.028254 0.256310 0.413284 -0.790740
C70   C     C_3   0.960994 0.523359 0.641972 -0.743390
C71   C     C_3   0.744888 0.743784 0.722658 -0.676497
C72   C     C_3   0.637843 0.207388 0.254055 -0.807316
C73   C     C_3   0.785185 0.747412 0.865651 -0.751447
C74   C     C_3   0.250000 0.230409 0.122563 -0.728551
C75   C     C_3   0.660510 0.692107 0.343199 -0.803120
C76   C     C_3   0.349651 0.304246 0.662134 -0.780052
C77   C     C_3   0.544037 0.630719 0.230037 -0.340375
C78   C     C_R   0.394491 0.350529 0.087394 0.183237
C79   C     C_3   0.428711 0.678063 0.230362 -0.864645
C80   C     C_3   0.357909 0.453940 0.776299 -0.351764
C81   C     C_3   0.348088 0.541009 0.815736 -0.942263
C82   C     C_3   0.956321 0.525345 0.122214 -0.718468
C83   C     C_3   0.541409 0.105135 0.834945 -0.707490
C84   C     C_3   0.833875 0.632596 0.974682 -0.401675
C85   C     C_3   0.746468 0.690531 0.009010 -0.842674
C86   C     C_3   0.309460 0.344880 0.003973 -0.382881
C87   C     C_3   0.301064 0.446963 0.976855 -0.865903
C88   C     C_3   0.687350 0.170020 0.505472 -0.308218
C89   C     C_R   0.582915 0.353335 0.854129 -0.051238
C90   C     C_3   0.737625 0.235058 0.546770 -0.745773
C91   C     C_3   0.324811 0.842364 0.484147 -0.345174
C92   C     C_3   0.339913 0.809692 0.428890 -0.875573
H1    H     H_    0.191810 0.424978 0.445995 0.150132
H2    H     H_    0.310827 0.326930 0.394267 0.267375
H3    H     H_    0.229468 0.334436 0.027815 0.232210
H4    H     H_    0.674074 0.282990 0.568415 0.267954
H5    H     H_    0.774805 0.185005 0.573368 0.252014
H6    H     H_    0.806273 0.286110 0.529832 0.228511
H7    H     H_    0.747523 0.109498 0.493150 0.193249
H8    H     H_    0.689468 0.211212 0.469826 0.179641
H9    H     H_    0.407189 0.857027 0.408127 0.257549
H10   H     H_    0.358976 0.726685 0.425159 0.269513
H11   H     H_    0.260498 0.819951 0.411472 0.241191
H12   H     H_    0.278921 0.781315 0.506668 0.233963
H13   H     H_    0.320071 0.234069 0.343130 0.257590
H14   H     H_    0.266568 0.907488 0.485235 0.187475
H15   H     H_    0.341989 0.194351 0.405528 0.240716
H16   H     H_    0.524480 0.213290 0.354496 0.203073
H17   H     H_    0.515633 0.301125 0.404693 0.198228
H18   H     H_    0.128054 0.083042 0.515090 0.254357
H19   H     H_    0.118499 0.122716 0.581649 0.278776
H20   H     H_    0.070189 0.203842 0.536110 0.255072
H21   H     H_    0.253595 0.265978 0.562035 0.231289
H22   H     H_    0.248770 0.235014 0.495862 0.226447
H23   H     H_    0.806983 0.562341 0.557988 0.157909
H24   H     H_    0.762247 0.931459 0.419284 0.264056
H25   H     H_    0.854734 0.957330 0.467884 0.255886
H26   H     H_    0.886132 0.856827 0.422346 0.256743
H27   H     H_    0.801429 0.785000 0.505972 0.197047
H28   H     H_    0.731440 0.752629 0.451214 0.240893
H29   H     H_    0.806819 0.936526 0.551934 0.233155
H30   H     H_    0.782837 0.032555 0.628239 0.239937
H31   H     H_    0.682945 0.926363 0.629573 0.244738
H32   H     H_    0.639784 0.056102 0.617537 0.267357
H33   H     H_    0.194200 0.964841 0.563358 0.222920
H34   H     H_    0.887200 0.447443 0.021741 0.148505
H35   H     H_    0.214277 0.959073 0.650380 0.235500
H36   H     H_    0.259495 0.089990 0.635872 0.248867
H37   H     H_    0.361909 0.990646 0.638698 0.251547
H38   H     H_    0.299891 0.642953 0.571620 0.289456
H39   H     H_    0.244675 0.788440 0.606263 0.249582
H40   H     H_    0.128580 0.722714 0.639291 0.283735
H41   H     H_    0.118708 0.767264 0.575669 0.235238
H42   H     H_    0.707700 0.349517 0.421918 0.246756
H43   H     H_    0.730815 0.447437 0.347039 0.243674
H44   H     H_    0.836411 0.351629 0.336802 0.248205
H45   H     H_    0.456365 0.205120 0.947699 0.137546
H46   H     H_    0.872680 0.481332 0.357624 0.233314
H47   H     H_    0.084934 0.399341 0.384458 0.222808
H48   H     H_    0.060504 0.215792 0.378219 0.244061
H49   H     H_    0.946125 0.219838 0.426873 0.250139
H50   H     H_    0.088748 0.247379 0.441698 0.234145
H51   H     H_    0.917515 0.652640 0.603018 0.202404
H52   H     H_    0.930499 0.559106 0.678481 0.259522
H53   H     H_    0.039342 0.482331 0.646963 0.249139
H54   H     H_    0.896183 0.466910 0.630435 0.235671
H55   H     H_    0.611959 0.702769 0.776938 0.217445
H56   H     H_    0.420258 0.739311 0.645130 0.265624
H57   H     H_    0.795463 0.758818 0.754713 0.261262
H58   H     H_    0.729057 0.820003 0.706796 0.208821
H59   H     H_    0.794804 0.695652 0.694520 0.236345
H60   H     H_    0.466459 0.200867 0.276428 0.241504
H61   H     H_    0.631918 0.129160 0.236523 0.238677
H62   H     H_    0.673128 0.200666 0.290653 0.229460
H63   H     H_    0.695657 0.256123 0.229084 0.269777
H64   H     H_    0.924934 0.656988 0.873855 0.210863
H65   H     H_    0.837049 0.803255 0.841878 0.229753
H66   H     H_    0.771068 0.781139 0.903955 0.226874
H67   H     H_    0.512182 0.811804 0.683599 0.273613
H68   H     H_    0.702929 0.735920 0.850238 0.238504
H69   H     H_    0.251995 0.392844 0.134636 0.268346
H70   H     H_    0.301142 0.201224 0.151456 0.270754
H71   H     H_    0.260967 0.179758 0.088613 0.219608
H72   H     H_    0.160210 0.226938 0.137231 0.233249
H73   H     H_    0.491599 0.682176 0.366959 0.215783
H74   H     H_    0.690878 0.646838 0.373703 0.252569
H75   H     H_    0.666066 0.775597 0.353461 0.240638
H76   H     H_    0.715814 0.678574 0.308228 0.251715
H77   H     H_    0.287223 0.446777 0.644871 0.258035
H78   H     H_    0.511976 0.839297 0.617871 0.251503
H79   H     H_    0.409502 0.292018 0.628434 0.233999
H80   H     H_    0.268313 0.265260 0.656028 0.227114
H81   H     H_    0.382457 0.269313 0.695158 0.282018
H82   H     H_    0.366535 0.618728 0.219096 0.268237
H83   H     H_    0.400347 0.709341 0.268131 0.271631
H84   H     H_    0.432941 0.742376 0.203357 0.243284
H85   H     H_    0.606071 0.690980 0.240209 0.223615
H86   H     H_    0.570583 0.607309 0.190895 0.197615
H87   H     H_    0.423869 0.546375 0.836583 0.258364
H88   H     H_    0.274296 0.525208 0.843042 0.259501
H89   H     H_    0.679974 0.733256 0.635586 0.197961
H90   H     H_    0.336986 0.616174 0.797694 0.267359
H91   H     H_    0.275342 0.446373 0.760732 0.227009
H92   H     H_    0.368424 0.379743 0.794850 0.238922
H93   H     H_    0.895208 0.379855 0.147863 0.262847
H94   H     H_    0.035760 0.512812 0.139194 0.229963
H95   H     H_    0.904786 0.579815 0.146522 0.264632
H96   H     H_    0.977475 0.560077 0.084851 0.220819
H97   H     H_    0.391873 0.165681 0.865373 0.208512
H98   H     H_    0.498083 0.050274 0.810338 0.231180
H99   H     H_    0.561424 0.063544 0.868739 0.208470
H100  H     H_    0.595900 0.678901 0.592812 0.213021
H101  H     H_    0.620576 0.133186 0.813991 0.263072
H102  H     H_    0.681550 0.721606 0.986874 0.253958
H103  H     H_    0.705099 0.639635 0.038395 0.267712
H104  H     H_    0.787990 0.756241 0.027945 0.239919
H105  H     H_    0.897638 0.600942 0.996669 0.191155
H106  H     H_    0.882819 0.692056 0.952447 0.202250
H107  H     H_    0.301664 0.512975 0.003979 0.257959
H108  H     H_    0.371183 0.457846 0.947224 0.268724
H109  H     H_    0.221373 0.447031 0.958793 0.241176
H110  H     H_    0.307506 0.279256 0.977212 0.188950
N1    N     N_R   0.615091 0.470968 0.786169 -0.323960
N2    N     N_2   0.982623 0.602939 0.604898 -0.309336
N3    N     N_2   0.638780 0.693036 0.739540 -0.281651
N4    N     N_2   0.527563 0.251236 0.260801 -0.282645
N5    N     N_2   0.842409 0.650298 0.866049 -0.254121
N6    N     N_2   0.282944 0.335976 0.110137 -0.302811
N7    N     N_2   0.545299 0.663073 0.336302 -0.300019
N8    N     N_2   0.332087 0.413349 0.670914 -0.319904
N9    N     N_2   0.896363 0.427454 0.117456 -0.296927
N10   N     N_2   0.469321 0.190645 0.849254 -0.268125
N11   N     N_R   0.561945 0.415563 0.195092 -0.316756
N12   N     N_R   0.207800 0.519340 0.508990 -0.150295
N13   N     N_R   0.792200 0.480660 0.491010 -0.139542
N14   N     N_2   0.737587 0.981995 0.557946 -0.309755
N15   N     N_2   0.271444 0.984209 0.575099 -0.314485
N16   N     N_2   0.216835 0.634454 0.582491 -0.298915
N17   N     N_2   0.784423 0.384005 0.412227 -0.300931
N18   N     N_2   0.015385 0.364635 0.403419 -0.294704
O1    O     O_R   0.421700 0.658820 0.502400 -0.634484
O2    O     O_2   0.373247 0.366353 0.195657 -0.588474
O3    O     O_2   0.751220 0.460008 0.199703 -0.597755
O4    O     O_2   0.545750 0.302362 0.770941 -0.568596
O5    O     O_R   0.578300 0.341180 0.497600 -0.624701
O6    O     O_R   0.609310 0.646410 0.496630 -0.638722
O7    O     O_R   0.390690 0.353590 0.503370 -0.627313
O8    O     O_R   0.406200 0.506190 0.574130 -0.638485
O9    O     O_R   0.593800 0.493810 0.425870 -0.619638
O10   O     O_R   0.593820 0.493770 0.568360 -0.621835
O11   O     O_R   0.406180 0.506230 0.431640 -0.614629
O12   O     O_2   0.779893 0.574431 0.781810 -0.550845
Zn1   Zn    Zn3+2 0.374730 0.508290 0.503850 0.908079
Zn2   Zn    Zn3+2 0.625270 0.491710 0.496150 0.906846

loop_
_geom_bond_atom_site_label_1
_geom_bond_atom_site_label_2
_ccdc_geom_bond_type
C1    O6    A    
C54   N11   S    
C65   N15   S    
C34   C56   A    
C23   C45   A    
C22   N14   S    
C27   C29   A    
C69   N18   S    
C83   H98   S    
C60   H22   S    
C79   H82   S    
C87   H107  S    
C91   H12   S    
C19   C86   S    
C17   O11   A    
C74   N6    S    
C1    C21   S    
C73   H68   S    
C5    C9    A    
C15   N10   S    
C14   N9    S    
C82   H94   S    
C52   N4    S    
O5    Zn2   S    
C65   H35   S    
H60   N4    S    
C76   H81   S    
C24   C26   A    
C82   N9    S    
C36   N13   A    
C74   H71   S    
C63   H25   S    
C11   C14   A    
C85   H102  S    
C71   H58   S    
C69   H49   S    
H42   N17   S    
C58   H17   S    
C73   H65   S    
C56   C78   A    
C1    O1    A    
C80   H91   S    
C16   O10   A    
O9    Zn2   S    
H55   N3    S    
H64   N5    S    
C24   C29   A    
C92   H11   S    
C68   H46   S    
C44   C53   A    
C71   H59   S    
C65   H36   S    
C16   O8    A    
C49   C51   A    
C22   C25   A    
C28   C88   S    
C50   C52   A    
H93   N9    S    
H69   N6    S    
C27   C91   S    
C75   H76   S    
C70   H54   S    
C59   H2    S    
C32   C38   A    
C40   O12   S    
C29   C30   A    
C86   H110  S    
C90   H5    S    
C62   H28   S    
C83   N10   S    
C44   C47   A    
C92   H10   S    
C24   N15   S    
C2    C34   A    
C69   H48   S    
C33   N17   S    
H51   N2    S    
C57   H67   S    
C72   H63   S    
C87   H109  S    
C91   H14   S    
H38   N16   S    
C42   N1    A    
N13   Zn2   S    
C87   H108  S    
C42   O4    S    
C61   H18   S    
H47   N18   S    
C76   H80   S    
C52   C54   A    
C66   H40   S    
C77   C79   S    
C3    C49   A    
C40   C45   A    
O7    Zn1   S    
C46   C48   A    
C72   H62   S    
C50   C58   S    
H29   N14   S    
C79   H83   S    
C11   H34   S    
C68   H44   S    
C68   N17   S    
C38   C39   A    
C84   C85   S    
C81   H87   S    
C31   N18   S    
C91   C92   S    
C74   H70   S    
C63   H26   S    
C17   O9    A    
C86   C87   S    
C85   H103  S    
C12   O7    A    
C72   N4    S    
C20   C28   A    
C84   H106  S    
C69   H50   S    
C64   H32   S    
C73   H66   S    
C59   H15   S    
C82   H96   S    
C60   C61   S    
C51   C53   A    
C13   H45   S    
C83   H101  S    
C19   C78   A    
C43   O3    S    
C90   H4    S    
C32   C35   A    
C41   C56   A    
C45   C67   A    
C62   C63   S    
C32   N2    S    
C15   C89   A    
C66   H41   S    
C41   N11   A    
C18   C84   S    
C53   N1    S    
C40   N1    A    
C44   C80   S    
C2    C43   A    
C60   H21   S    
C12   C20   S    
C31   C33   A    
C23   C89   A    
C55   H89   S    
C37   H1    S    
O11   Zn1   S    
C70   H53   S    
C59   H13   S    
C76   N8    S    
C62   H27   S    
C88   H8    S    
C92   H9    S    
C4    C17   S    
C76   H79   S    
C8    C10   A    
C46   C54   A    
C88   C90   S    
C7    C19   A    
C55   C57   S    
C9    C34   A    
C84   H105  S    
C57   H56   S    
N12   Zn1   S    
C63   H24   S    
C36   C38   A    
C43   N11   A    
C35   N16   S    
C37   N12   A    
C33   N13   A    
C67   N5    S    
C26   C60   S    
C57   H78   S    
C4    C48   A    
C83   H99   S    
C7    C9    A    
C21   C25   A    
C75   N7    S    
C72   H61   S    
C22   C30   A    
O1    Zn1   S    
C79   H84   S    
C64   N14   S    
C68   H43   S    
C41   O2    S    
C81   H88   S    
C80   C81   S    
H97   N10   S    
C6    C10   A    
C5    C8    A    
C65   H37   S    
C51   N3    S    
C85   H104  S    
C5    C11   A    
C6    C7    A    
C10   C23   A    
C8    C18   A    
C64   H31   S    
C70   H52   S    
C77   H86   S    
O6    Zn2   S    
C82   H95   S    
C42   C89   A    
C55   H100  S    
C13   C15   A    
C58   C59   S    
C28   C30   A    
C66   N16   S    
C49   C55   S    
C6    C13   A    
C74   H72   S    
C61   H20   S    
C78   N6    S    
H73   N7    S    
C12   O5    A    
C71   H57   S    
C20   C26   A    
C64   H30   S    
H77   N8    S    
C46   C77   S    
C3    C47   A    
C66   H39   S    
C31   C39   A    
O10   Zn2   S    
C75   H74   S    
C58   H16   S    
C25   C62   S    
C80   H92   S    
C73   N5    S    
C2    C14   A    
C35   N12   A    
C77   H85   S    
C88   H7    S    
C86   H3    S    
O8    Zn1   S    
C71   N3    S    
C48   N7    S    
C70   N2    S    
C37   C39   A    
C47   N8    S    
C4    C50   A    
C18   C67   A    
C75   H75   S    
C36   H23   S    
C81   H90   S    
C21   C27   A    
C90   H6    S    
C3    C16   S    
H33   N15   S    
C61   H19   S    
