data_mof_unit_5138.cif
_audit_creation_date              2012-12-11T16:44:10-0500
_audit_creation_method            fapswitch 2.2
_symmetry_space_group_name_H-M    P1
_symmetry_Int_Tables_number       1
_space_group_crystal_system       triclinic
_cell_length_a                    27.207423
_cell_length_b                    7.20062
_cell_length_c                    22.828656
_cell_angle_alpha                 90.002471
_cell_angle_beta                  101.501748
_cell_angle_gamma                 90.001803
_cell_volume                      4382.55782518

loop_
_atom_site_label
_atom_site_type_symbol
_atom_type_description
_atom_site_fract_x
_atom_site_fract_y
_atom_site_fract_z
_atom_type_partial_charge
O1    O     O_R   0.707300 0.594030 0.176840 -0.531992
O2    O     O_R   0.292700 0.405970 0.823160 -0.531993
O3    O     O_R   0.792700 0.094030 0.323160 -0.531992
O4    O     O_R   0.207300 0.905970 0.676840 -0.531992
O5    O     O_R   0.697330 0.262360 0.295660 -0.540936
O6    O     O_R   0.302670 0.737640 0.704340 -0.540936
O7    O     O_R   0.802670 0.762360 0.204340 -0.540937
O8    O     O_R   0.197330 0.237640 0.795660 -0.540937
C1    C     C_R   0.684774 0.432481 0.311738 0.673409
C2    C     C_R   0.315226 0.567519 0.688262 0.673409
C3    C     C_R   0.815226 0.932480 0.188261 0.673398
C4    C     C_R   0.184774 0.067519 0.811739 0.673397
O9    O     O_R   0.701410 0.264250 0.175600 -0.534371
O10   O     O_R   0.298590 0.735750 0.824400 -0.534370
O11   O     O_R   0.798590 0.764250 0.324400 -0.534362
O12   O     O_R   0.201410 0.235750 0.675600 -0.534363
O13   O     O_R   0.796800 0.094950 0.202240 -0.539107
O14   O     O_R   0.203200 0.905050 0.797760 -0.539107
O15   O     O_R   0.703200 0.594950 0.297760 -0.539107
O16   O     O_R   0.296800 0.405050 0.702240 -0.539107
C5    C     C_R   0.689735 0.432508 0.153477 0.696938
C6    C     C_R   0.310265 0.567492 0.846522 0.696939
C7    C     C_R   0.810264 0.932520 0.346522 0.696949
C8    C     C_R   0.189736 0.067479 0.653478 0.696948
O17   O     O_3   0.781290 0.427390 0.258880 -0.373207
O18   O     O_3   0.218710 0.572610 0.741120 -0.373208
O19   O     O_3   0.718710 0.927390 0.241120 -0.373214
O20   O     O_3   0.281290 0.072610 0.758880 -0.373214
V1    V     V_3+5 0.744190 0.152150 0.248350 1.408574
V2    V     V_3+5 0.255810 0.847850 0.751650 1.408574
V3    V     V_3+5 0.755810 0.652150 0.251650 1.408573
V4    V     V_3+5 0.244190 0.347850 0.748350 1.408573
C9    C     C_R   0.154928 0.062545 0.594962 -0.079576
C10   C     C_R   0.845072 0.937455 0.405038 -0.079577
C11   C     C_R   0.345074 0.562613 0.905039 -0.079611
C12   C     C_R   0.654926 0.437387 0.094961 -0.079611
C13   C     C_R   0.140124 0.123994 0.488284 0.174533
C14   C     C_R   0.859876 0.876004 0.511715 0.174534
C15   C     C_R   0.359908 0.624575 0.011691 0.174518
C16   C     C_R   0.640092 0.375427 0.988309 0.174518
C17   C     C_R   0.172482 0.114710 0.544144 -0.159522
C18   C     C_R   0.827518 0.885289 0.455856 -0.159522
C19   C     C_R   0.327542 0.615130 0.955840 -0.159498
C20   C     C_R   0.672458 0.384873 0.044160 -0.159498
C21   C     C_R   0.104039 0.019475 0.590441 -0.220924
C22   C     C_R   0.895961 0.980525 0.409559 -0.220924
C23   C     C_R   0.395952 0.519349 0.909570 -0.220936
C24   C     C_R   0.604047 0.480650 0.090430 -0.220936
C25   C     C_R   0.069350 0.030188 0.534770 0.051265
C26   C     C_R   0.930650 0.969810 0.465230 0.051265
C27   C     C_R   0.430652 0.530236 0.965231 0.051257
C28   C     C_R   0.569348 0.469764 0.034769 0.051257
C29   C     C_R   0.088316 0.082835 0.483332 0.121479
C30   C     C_R   0.911684 0.917162 0.516668 0.121479
C31   C     C_R   0.411706 0.583238 0.016651 0.121480
C32   C     C_R   0.588294 0.416763 0.983349 0.121479
C33   C     C_R   0.016520 0.992532 0.528623 0.073018
C34   C     C_R   0.983480 0.007466 0.471376 0.073018
C35   C     C_R   0.483474 0.492432 0.971383 0.073015
C36   C     C_R   0.516526 0.507568 0.028617 0.073016
C37   C     C_R   0.004401 0.058964 0.422055 -0.192552
C38   C     C_R   0.995599 0.941033 0.577945 -0.192552
C39   C     C_R   0.495624 0.559408 0.077921 -0.192556
C40   C     C_R   0.504376 0.440593 0.922078 -0.192555
C41   C     C_R   0.055202 0.095142 0.427918 -0.198542
C42   C     C_R   0.944798 0.904854 0.572082 -0.198543
C43   C     C_R   0.444831 0.595729 0.072054 -0.198541
C44   C     C_R   0.555169 0.404273 0.927946 -0.198541
H1    H     H_    0.068125 0.134246 0.387803 0.139440
H2    H     H_    0.931875 0.865750 0.612197 0.139440
H3    H     H_    0.431922 0.635099 0.112154 0.139443
H4    H     H_    0.568078 0.364904 0.887845 0.139443
H5    H     H_    0.907135 0.017592 0.368444 0.103449
H6    H     H_    0.092865 0.982409 0.631556 0.103449
H7    H     H_    0.592888 0.517972 0.131532 0.103478
H8    H     H_    0.407112 0.482025 0.868468 0.103479
H9    H     H_    0.788176 0.850603 0.451624 0.108374
H10   H     H_    0.211824 0.149396 0.548376 0.108374
H11   H     H_    0.711790 0.350028 0.048400 0.108395
H12   H     H_    0.288210 0.649975 0.951600 0.108395
H13   H     H_    0.982491 0.073437 0.377551 0.124127
H14   H     H_    0.017510 0.926559 0.622448 0.124126
H15   H     H_    0.517544 0.574052 0.122414 0.124126
H16   H     H_    0.482456 0.425950 0.877586 0.124126
C45   C     C_R   0.872065 0.117643 0.135765 -0.162155
C46   C     C_R   0.127927 0.882358 0.864224 -0.162158
C47   C     C_R   0.627907 0.617639 0.364197 -0.162166
C48   C     C_R   0.372090 0.382361 0.635800 -0.162164
H17   H     H_    0.858791 0.245158 0.152405 0.125198
H18   H     H_    0.141196 0.754845 0.847577 0.125199
H19   H     H_    0.641161 0.745146 0.347529 0.125199
H20   H     H_    0.358835 0.254853 0.652466 0.125199
C49   C     C_R   0.907683 0.130309 0.099425 -0.148474
C50   C     C_R   0.092309 0.869691 0.900563 -0.148475
C51   C     C_R   0.592289 0.630306 0.400535 -0.148471
C52   C     C_R   0.407709 0.369694 0.599461 -0.148471
H21   H     H_    0.921036 0.266513 0.089903 0.101267
H22   H     H_    0.078951 0.733490 0.910079 0.101271
H23   H     H_    0.578915 0.766501 0.410029 0.101264
H24   H     H_    0.421081 0.233497 0.589966 0.101263
C53   C     C_R   0.926339 0.969737 0.076423 0.095355
C54   C     C_R   0.073658 0.030261 0.923574 0.095353
C55   C     C_R   0.573658 0.469741 0.423572 0.095363
C56   C     C_R   0.426341 0.530259 0.576427 0.095363
C57   C     C_R   0.908639 0.795637 0.091308 -0.144469
C58   C     C_R   0.091366 0.204360 0.908697 -0.144470
C59   C     C_R   0.591385 0.295646 0.408720 -0.144466
C60   C     C_R   0.408616 0.704354 0.591281 -0.144464
H25   H     H_    0.921688 0.669023 0.073856 0.100511
H26   H     H_    0.078320 0.330971 0.926156 0.100514
H27   H     H_    0.578357 0.169039 0.426200 0.100501
H28   H     H_    0.421646 0.830962 0.573804 0.100500
C61   C     C_R   0.872986 0.782786 0.127851 -0.160043
C62   C     C_R   0.127019 0.217212 0.872155 -0.160042
C63   C     C_R   0.627037 0.282794 0.372177 -0.160040
C64   C     C_R   0.372965 0.717207 0.627825 -0.160040
H29   H     H_    0.859965 0.646496 0.137826 0.120290
H30   H     H_    0.140046 0.353500 0.862188 0.120289
H31   H     H_    0.640079 0.146511 0.362230 0.120285
H32   H     H_    0.359924 0.853490 0.637775 0.120285
C65   C     C_R   0.854016 0.943801 0.150439 -0.049249
C66   C     C_R   0.145982 0.056199 0.849560 -0.049248
C67   C     C_R   0.645981 0.443802 0.349558 -0.049239
C68   C     C_R   0.354018 0.556198 0.650442 -0.049240
C69   C     C_R   0.003394 0.855654 0.041552 -0.152209
C70   C     C_R   0.996604 0.144344 0.958444 -0.152209
C71   C     C_R   0.496631 0.355544 0.458483 -0.152210
C72   C     C_R   0.503368 0.644456 0.541516 -0.152209
H33   H     H_    0.007366 0.744513 0.074095 0.109901
H34   H     H_    0.992633 0.255487 0.925902 0.109902
H35   H     H_    0.492679 0.244310 0.425970 0.109890
H36   H     H_    0.507321 0.755690 0.574029 0.109890
C73   C     C_R   0.038904 0.870885 0.005021 -0.152120
C74   C     C_R   0.961093 0.129110 0.994974 -0.152119
C75   C     C_R   0.461121 0.370773 0.495015 -0.152116
C76   C     C_R   0.538878 0.629227 0.504984 -0.152117
H37   H     H_    0.069169 0.770796 0.010487 0.108930
H38   H     H_    0.930828 0.229197 0.989506 0.108929
H39   H     H_    0.430878 0.270591 0.489577 0.108913
H40   H     H_    0.569122 0.729410 0.510422 0.108914
C77   C     C_R   0.036004 0.015374 0.962905 0.081550
C78   C     C_R   0.963994 0.984623 0.037091 0.081552
C79   C     C_R   0.463996 0.515372 0.537094 0.081564
C80   C     C_R   0.536004 0.484628 0.462905 0.081564
C81   C     C_3   0.161805 0.180622 0.434978 -0.810128
H41   H     H_    0.202797 0.207080 0.447346 0.211200
H42   H     H_    0.155792 0.068233 0.400996 0.209116
H43   H     H_    0.143574 0.310358 0.415226 0.211651
C82   C     C_3   0.838195 0.819374 0.565022 -0.810128
H44   H     H_    0.797203 0.792917 0.552654 0.211200
H45   H     H_    0.856426 0.689639 0.584773 0.211651
H46   H     H_    0.844208 0.931763 0.599004 0.209116
C83   C     C_3   0.338249 0.681585 0.064978 -0.810128
H47   H     H_    0.297262 0.708144 0.052607 0.211199
H48   H     H_    0.344242 0.569358 0.099012 0.209112
H49   H     H_    0.356512 0.811354 0.084666 0.211663
C84   C     C_3   0.661751 0.318420 0.935022 -0.810129
H50   H     H_    0.702738 0.291862 0.947393 0.211200
H51   H     H_    0.643489 0.188651 0.915334 0.211663
H52   H     H_    0.655758 0.430648 0.900988 0.209113

loop_
_geom_bond_atom_site_label_1
_geom_bond_atom_site_label_2
_ccdc_geom_bond_type
O17   V3    S    
C48   C52   A    
O1    C5    A    
C84   H50   S    
C47   H19   S    
O19   V1    S    
C9    C21   A    
O3    C7    A    
C10   C18   A    
C48   C68   A    
C11   C23   A    
C55   C80   S    
C81   H41   S    
C25   C33   A    
C33   C38   A    
C5    C12   S    
C16   C20   A    
C73   H37   S    
C6    C11   S    
C35   C40   A    
C26   C30   A    
C28   C36   A    
C58   C62   A    
C36   C39   A    
C40   C44   A    
C57   C61   A    
C71   C75   A    
C23   H8    S    
C14   C18   A    
C2    C68   S    
C72   C76   A    
C58   H26   S    
O4    C8    A    
C51   H23   S    
C44   H4    S    
C70   H34   S    
O1    V3    S    
O13   V1    S    
O2    V4    S    
O3    V1    S    
C40   H16   S    
C46   C50   A    
C45   C49   A    
C1    O15   A    
C15   C31   A    
C48   H20   S    
C2    O16   A    
C16   C32   A    
C47   C51   A    
O2    C6    A    
C45   C65   A    
C10   C22   A    
C54   C77   S    
C83   H48   S    
C11   C19   A    
C14   C82   S    
C43   H3    S    
C76   H40   S    
C13   C29   A    
C34   C37   A    
O11   C7    A    
C38   H14   S    
O15   V3    S    
C35   C36   A    
O12   C8    A    
C24   H7    S    
C3    C65   S    
O10   V2    S    
C72   H36   S    
C81   H42   S    
C51   C55   A    
O7    C3    A    
O5    V1    S    
C53   C57   A    
C39   C43   A    
O7    V3    S    
C38   C42   A    
C26   C34   A    
C16   C84   S    
C63   C67   A    
C4    C66   S    
C46   H18   S    
C82   H46   S    
C49   C53   A    
C17   H10   S    
C45   H17   S    
O18   V4    S    
C15   C19   A    
C19   H12   S    
C32   C44   A    
C64   H32   S    
C39   H15   S    
C21   H6    S    
O8    V4    S    
C75   H39   S    
O5    C1    A    
C37   C41   A    
C74   C78   A    
C53   C78   S    
C31   C43   A    
C14   C30   A    
C21   C25   A    
C69   C78   A    
O8    C4    A    
C7    C10   S    
C56   C79   S    
O9    C5    A    
C83   H49   S    
C59   C63   A    
C62   H30   S    
C61   H29   S    
O6    V2    S    
C15   C83   S    
C84   H52   S    
C63   H31   S    
C52   C56   A    
C69   H33   S    
O14   V2    S    
C12   C20   A    
C27   C35   A    
O9    V1    S    
C49   H21   S    
C56   C60   A    
C81   H43   S    
C29   C41   A    
O16   V4    S    
C69   C73   A    
C57   H25   S    
C3    O13   A    
C64   C68   A    
C59   H27   S    
C20   H11   S    
C74   H38   S    
C23   C27   A    
O11   V3    S    
C30   C42   A    
O12   V4    S    
C22   C26   A    
C70   C77   A    
C73   C77   A    
C8    C9    S    
C9    C17   A    
O10   C6    A    
C82   H45   S    
C76   C80   A    
C37   H13   S    
C82   H44   S    
C47   C67   A    
C60   C64   A    
C33   C34   A    
C42   H2    S    
C41   H1    S    
C52   H24   S    
O20   V2    S    
C75   C79   A    
C1    C67   S    
C12   C24   A    
C27   C31   A    
C71   C80   A    
C13   C17   A    
C46   C66   A    
C72   C79   A    
C71   H35   S    
C25   C29   A    
O6    C2    A    
C62   C66   A    
C60   H28   S    
C24   C28   A    
C61   C65   A    
C70   C74   A    
C18   H9    S    
C84   H51   S    
C54   C58   A    
C4    O14   A    
C50   H22   S    
C55   C59   A    
C13   C81   S    
C83   H47   S    
C22   H5    S    
O4    V2    S    
C28   C32   A    
C50   C54   A    
