data_mof_unit_67102.cif
_audit_creation_date              2012-12-11T17:44:23-0500
_audit_creation_method            fapswitch 2.2
_symmetry_space_group_name_H-M    P1
_symmetry_Int_Tables_number       1
_space_group_crystal_system       triclinic
_cell_length_a                    8.226968
_cell_length_b                    13.016993
_cell_length_c                    15.081772
_cell_angle_alpha                 96.927952
_cell_angle_beta                  97.504427
_cell_angle_gamma                 98.450706
_cell_volume                      1567.71339127

loop_
_atom_site_label
_atom_site_type_symbol
_atom_type_description
_atom_site_fract_x
_atom_site_fract_y
_atom_site_fract_z
_atom_type_partial_charge
Ba1   Ba    Ba6+2 0.843760 0.550230 0.455610 1.720125
Ba2   Ba    Ba6+2 0.346080 0.449860 0.544400 1.753844
C1    C     C_3   0.608907 0.912801 0.208773 0.034559
C2    C     C_3   0.528055 0.799330 0.197761 0.374742
C3    C     C_3   0.419174 0.296405 0.270560 0.315069
C4    C     C_3   0.393964 0.269911 0.168026 -0.311455
C5    C     C_3   0.042530 0.165995 0.784562 0.834255
C6    C     C_3   0.911639 0.067330 0.777630 -0.391213
C7    C     C_3   0.595477 0.188025 0.813495 0.309551
C8    C     C_3   0.526110 0.100044 0.862773 -0.276971
C9    C     C_R   0.373096 0.548595 0.167215 -0.005099
C10   C     C_R   0.112088 0.465660 0.206248 0.027153
C11   C     C_R   0.920430 0.480322 0.767973 0.091467
C12   C     C_3   0.071085 0.750871 0.204428 0.393575
C13   C     C_R   0.825101 0.433744 0.827302 0.022353
C14   C     C_R   0.895346 0.429238 0.916129 0.342647
C15   C     C_R   0.055438 0.488456 0.953005 -0.018933
C16   C     C_R   0.144797 0.545835 0.893046 -0.128629
C17   C     C_R   0.128578 0.495877 0.047528 0.012801
C18   C     C_R   0.300930 0.540077 0.074212 -0.068775
C19   C     C_R   0.387925 0.581708 0.007866 0.178886
C20   C     C_R   0.300912 0.604689 0.929665 0.193170
C21   C     C_R   0.036993 0.462327 0.116531 -0.126547
C22   C     C_R   0.277263 0.511942 0.230663 -0.290793
C23   C     C_3   0.060738 0.778837 0.109433 -0.271821
C24   C     C_R   0.079095 0.537628 0.798180 0.072921
C25   C     C_R   0.768960 0.174877 0.529249 -0.278819
C26   C     C_R   0.424928 0.808362 0.457703 -0.192626
C27   C     C_R   0.393608 0.977270 0.410991 0.066452
C28   C     C_R   0.326508 0.873219 0.415920 0.064276
C29   C     C_R   0.583107 0.847174 0.506883 0.068142
C30   C     C_R   0.649236 0.957069 0.510211 -0.022340
C31   C     C_R   0.551551 0.024354 0.463873 -0.025379
C32   C     C_R   0.614920 0.135480 0.476498 0.047903
C33   C     C_R   0.871978 0.109763 0.564487 -0.053825
C34   C     C_3   0.293425 0.777832 0.657693 0.764881
C35   C     C_R   0.810861 0.001644 0.557061 -0.089435
C36   C     C_3   0.362329 0.892209 0.694962 0.223266
C37   C     C_3   0.930720 0.228407 0.350106 0.322821
C38   C     C_3   0.858708 0.113357 0.326917 -0.380509
C39   C     C_3   0.783410 0.700308 0.726377 0.276975
C40   C     C_3   0.787766 0.718619 0.827702 0.008485
H1    H     H_    0.476308 0.788534 0.261245 -0.118718
H2    H     H_    0.484614 0.896725 0.737677 0.027502
H3    H     H_    0.274057 0.923848 0.736766 0.096346
H4    H     H_    0.845552 0.269559 0.386888 0.001766
H5    H     H_    0.052262 0.237051 0.393379 0.076962
H6    H     H_    0.722523 0.104990 0.308260 0.118880
H7    H     H_    0.888631 0.070639 0.384501 0.092108
H8    H     H_    0.909834 0.077842 0.268369 0.203030
H9    H     H_    0.909019 0.693720 0.710792 0.073961
H10   H     H_    0.696996 0.625491 0.701477 0.073635
H11   H     H_    0.518916 0.963895 0.226643 0.057099
H12   H     H_    0.660995 0.723930 0.842476 0.148009
H13   H     H_    0.832054 0.652346 0.857172 0.018809
H14   H     H_    0.427054 0.782222 0.139013 0.036348
H15   H     H_    0.296475 0.300019 0.292675 0.017498
H16   H     H_    0.501763 0.373520 0.290239 0.046179
H17   H     H_    0.317390 0.190973 0.146687 0.178943
H18   H     H_    0.329273 0.327669 0.135755 0.074609
H19   H     H_    0.516179 0.270286 0.144140 0.153481
H20   H     H_    0.714667 0.924043 0.264369 0.092430
H21   H     H_    0.092866 0.714526 0.063212 0.080856
H22   H     H_    0.966815 0.996914 0.757644 0.155931
H23   H     H_    0.867852 0.061422 0.843363 0.149325
H24   H     H_    0.801867 0.066734 0.726969 0.026458
H25   H     H_    0.726566 0.213108 0.844077 0.063340
H26   H     H_    0.586835 0.159417 0.740576 -0.045152
H27   H     H_    0.536628 0.129140 0.935962 0.181346
H28   H     H_    0.595380 0.033618 0.855158 0.097361
H29   H     H_    0.983960 0.677144 0.203309 0.098234
H30   H     H_    0.394083 0.071064 0.834919 0.151659
H31   H     H_    0.333128 0.518058 0.300551 0.052679
H32   H     H_    0.904998 0.437373 0.104589 0.175419
H33   H     H_    0.890850 0.953900 0.589018 0.123198
H34   H     H_    0.815203 0.258077 0.537718 0.030350
H35   H     H_    0.199183 0.737169 0.225902 -0.150470
H36   H     H_    0.374498 0.726391 0.454959 0.014541
H37   H     H_    0.932536 0.790462 0.085423 0.211810
H38   H     H_    0.148406 0.852120 0.108593 0.165838
H39   H     H_    0.395492 0.737842 0.637791 -0.125427
O1    O     O_2   0.827930 0.435360 0.277760 -0.453608
O2    O     O_3   0.728011 0.784241 0.688745 -0.641302
O3    O     O_3   0.026386 0.832291 0.261548 -0.555802
O4    O     O_2   0.361790 0.564680 0.722290 -0.468723
O5    O     O_3   0.089410 0.561080 0.608830 -0.459256
O6    O     O_3   0.564100 0.365890 0.666740 -0.455843
O7    O     O_3   0.224641 0.733436 0.726692 -0.646979
O8    O     O_3   0.601940 0.368260 0.453780 -0.475529
O9    O     O_3   0.133140 0.308990 0.620990 -0.446738
O10   O     O_2   0.214604 0.124569 0.561086 -0.437080
O11   O     O_3   0.159118 0.147702 0.725867 -0.577273
O12   O     O_3   0.100310 0.439010 0.391180 -0.521531
O13   O     O_3   0.587770 0.631830 0.546230 -0.495962
O14   O     O_2   0.332600 0.233710 0.456170 -0.458632
O15   O     O_3   0.492635 0.217374 0.307089 -0.614989
O16   O     O_2   0.504214 0.463389 0.817716 -0.427954
O17   O     O_3   0.504931 0.270185 0.824822 -0.505653
O18   O     O_3   0.625610 0.634200 0.333270 -0.481445
O19   O     O_2   0.715754 0.550054 0.185602 -0.451179
O20   O     O_3   0.950164 0.267634 0.269517 -0.608111
O21   O     O_3   0.649635 0.736772 0.184062 -0.547970
O22   O     O_2   0.857120 0.766320 0.543890 -0.420952
O23   O     O_3   0.056570 0.691100 0.379020 -0.501101
O24   O     O_2   0.985560 0.875099 0.430193 -0.437254
P1    P     P_3+3 0.998770 0.403620 0.291990 0.983142
P2    P     P_3+3 0.687370 0.751000 0.571300 1.003020
P3    P     P_3+3 0.101602 0.821608 0.373595 1.055892
P4    P     P_3+3 0.190950 0.596470 0.708020 1.056015
P5    P     P_3+3 0.090074 0.170976 0.615954 1.022727
P6    P     P_3+3 0.586383 0.614846 0.216248 1.004784
P7    P     P_3+3 0.510372 0.236469 0.425274 0.980307
P8    P     P_3+3 0.604129 0.379647 0.784673 1.098707
O25   O     O_3   0.379837 0.951694 0.624717 -0.743751
H40   H     H_    0.421909 0.024726 0.653556 0.313193
I1    I     I_    0.950433 0.856395 0.892394 -0.400396
I2    I     I_    0.695410 0.957593 0.089254 -0.339484
I3    I     I_    0.170007 0.197472 0.920699 -0.399732
O26   O     O_3   0.974413 0.256920 0.771677 -0.770561
H41   H     H_    0.875621 0.238796 0.724159 0.207186
I4    I     I_    0.646799 0.599152 0.001340 -0.391836
O27   O     O_3   0.855846 0.471636 0.678531 -0.724372
H42   H     H_    0.859874 0.398544 0.652881 0.299076
O28   O     O_3   0.807618 0.361029 0.962197 -0.730124
H43   H     H_    0.885780 0.316086 0.985819 0.311886
I5    I     I_    0.362664 0.766170 0.918755 -0.417773
I6    I     I_    0.249604 0.038668 0.306031 -0.450431
O29   O     O_3   0.169203 0.774988 0.584646 -0.685014
H44   H     H_    0.171249 0.711508 0.542024 0.295078

loop_
_geom_bond_atom_site_label_1
_geom_bond_atom_site_label_2
_ccdc_geom_bond_type
Ba2   P4    S    
C6    H24   S    
C7    O17   S    
C23   H38   S    
C32   P7    S    
C39   C40   S    
C17   C18   A    
C16   C24   A    
C12   O3    S    
O29   H44   S    
Ba1   O18   S    
O25   H40   S    
C5    C6    S    
C34   O7    S    
O15   P7    S    
O8    P7    S    
C3    H16   S    
C4    H19   S    
Ba2   O14   S    
C33   C35   A    
O4    P4    D    
O14   P7    D    
C23   H21   S    
C3    C4    S    
C36   O25   S    
C22   H31   S    
C20   I5    S    
C13   C14   A    
C39   O2    S    
C27   C31   A    
C9    C22   A    
O20   P1    S    
Ba2   O4    S    
C15   C16   A    
Ba1   Ba2   S    
C12   H29   S    
C12   H35   S    
Ba2   O9    S    
C36   H3    S    
C1    I2    S    
O3    P3    S    
Ba1   O13   S    
C2    O21   S    
C13   P8    S    
C26   H36   S    
C7    C8    S    
Ba1   O22   S    
C39   H10   S    
Ba1   P1    S    
C35   H33   S    
C6    H23   S    
C16   C20   A    
C19   C20   A    
C2    H14   S    
C5    I3    S    
O21   P6    S    
C34   O29   S    
C37   O20   S    
Ba2   O12   S    
C25   C32   A    
C9    C18   A    
O24   P3    D    
O13   P2    S    
C9    P6    S    
C4    H18   S    
Ba2   O13   S    
O5    P4    S    
C37   C38   S    
C14   C15   A    
O17   P8    S    
C25   C33   A    
Ba1   O1    S    
C1    C2    S    
Ba2   O8    S    
C17   C21   A    
C7    H25   S    
C36   H2    S    
C27   C28   A    
C5    O26   S    
C40   H13   S    
C29   C30   A    
C10   C21   A    
C34   H39   S    
O18   P6    S    
C31   C32   A    
Ba2   O6    S    
C30   C35   A    
Ba1   O23   S    
C33   P5    S    
Ba1   P2    S    
C37   H4    S    
O7    P4    S    
C8    H28   S    
C40   I1    S    
C6    H22   S    
C27   I6    S    
O12   P1    S    
C11   C24   A    
O9    P5    S    
C21   H32   S    
O16   P8    D    
C25   H34   S    
O23   P3    S    
C3    O15   S    
O10   P5    D    
C37   H5    S    
C1    H20   S    
Ba1   O5    S    
C38   H6    S    
Ba1   O8    S    
C28   P3    S    
C23   H37   S    
C29   P2    S    
C4    H17   S    
C26   C29   A    
O26   H41   S    
C2    H1    S    
C10   C22   A    
C3    H15   S    
C30   C31   A    
C11   C13   A    
C14   O28   S    
C7    H26   S    
C26   C28   A    
C40   H12   S    
C10   P1    S    
C11   O27   S    
C1    H11   S    
O11   P5    S    
C38   H8    S    
C5    O11   S    
C34   C36   S    
C15   C17   A    
O2    P2    S    
Ba2   O5    S    
C24   P4    S    
O1    P1    D    
C12   C23   S    
C19   I4    S    
O6    P8    S    
C8    H27   S    
C18   C19   A    
O19   P6    D    
Ba1   O12   S    
O22   P2    D    
O27   H42   S    
C39   H9    S    
C38   H7    S    
O28   H43   S    
C8    H30   S    
