data_mof_unit_26699.cif
_audit_creation_date              2013-03-05T16:12:45-0500
_audit_creation_method            fapswitch 2.2
_symmetry_space_group_name_H-M    P1
_symmetry_Int_Tables_number       1
_space_group_crystal_system       triclinic
_cell_length_a                    10.659204
_cell_length_b                    9.915107
_cell_length_c                    27.582417
_cell_angle_alpha                 89.829369
_cell_angle_beta                  91.191734
_cell_angle_gamma                 92.730819
_cell_volume                      2911.1609736

loop_
_atom_site_label
_atom_site_type_symbol
_atom_site_description
_atom_site_fract_x
_atom_site_fract_y
_atom_site_fract_z
_atom_type_partial_charge
O1    O     O_R   0.316770 0.614620 0.500000 -0.601672
O2    O     O_R   0.683230 0.385380 0.500000 -0.600305
O3    O     O_R   0.683230 0.614620 0.500000 -0.587107
O4    O     O_R   0.316770 0.385380 0.500000 -0.595002
C1    C     C_R   0.260416 0.497491 0.499997 0.982291
C2    C     C_R   0.739598 0.503043 0.498123 0.904862
O5    O     O_R   0.500030 0.614650 0.428760 -0.596818
O6    O     O_R   0.499970 0.385350 0.571240 -0.607851
O7    O     O_R   0.499970 0.614650 0.571240 -0.587527
O8    O     O_R   0.500030 0.385350 0.428760 -0.606939
C3    C     C_R   0.500792 0.500167 0.405976 0.843578
C4    C     C_R   0.500547 0.500127 0.593827 0.864076
Zn1   Zn    Zn3+2 0.500000 0.653120 0.500000 0.970707
Zn2   Zn    Zn3+2 0.500000 0.346880 0.500000 0.974416
C5    C     C_R   0.409632 0.574675 0.179255 0.509525
C6    C     C_R   0.604160 0.604395 0.820556 0.509981
O9    O     O_2   0.304832 0.565762 0.205912 -0.537745
O10   O     O_2   0.705983 0.633747 0.793550 -0.543304
N1    N     N_R   0.524289 0.563918 0.201851 -0.351601
N2    N     N_R   0.495871 0.554017 0.798325 -0.350500
C7    C     C_R   0.633602 0.577853 0.177007 0.504864
C8    C     C_R   0.388952 0.526797 0.823717 0.505307
C9    C     C_R   0.588059 0.632412 0.284039 -0.101574
C10   C     C_R   0.409088 0.599579 0.717535 -0.104097
C11   C     C_R   0.581984 0.613822 0.333629 -0.276781
C12   C     C_R   0.409821 0.583078 0.667802 -0.281320
C13   C     C_R   0.454139 0.404148 0.321972 0.193411
C14   C     C_R   0.586319 0.435228 0.675549 0.181496
C15   C     C_R   0.467417 0.421818 0.271630 -0.117395
C16   C     C_R   0.579455 0.447184 0.726259 -0.119315
C17   C     C_R   0.528999 0.537907 0.252913 0.255190
C18   C     C_R   0.493708 0.531952 0.746994 0.251980
C19   C     C_R   0.513403 0.602776 0.102257 -0.099066
C20   C     C_R   0.499752 0.594864 0.897880 -0.099250
C21   C     C_R   0.400976 0.593305 0.128667 -0.065446
C22   C     C_R   0.609450 0.624755 0.871161 -0.063905
C23   C     C_R   0.284406 0.600192 0.103532 0.247718
C24   C     C_R   0.720248 0.672398 0.895977 0.245867
C25   C     C_R   0.630368 0.599662 0.126951 -0.001816
C26   C     C_R   0.388023 0.549584 0.873604 -0.003136
C27   C     C_R   0.511925 0.503816 0.353139 -0.116816
C28   C     C_R   0.498133 0.502879 0.646537 -0.104635
H1    H     H_    0.425437 0.349734 0.246059 0.154173
H2    H     H_    0.643277 0.396142 0.750234 0.159560
C29   C     C_R   0.389260 0.585568 0.975040 0.074812
C30   C     C_R   0.622559 0.628766 0.025071 0.075013
C31   C     C_R   0.617015 0.638410 0.973840 0.012738
C32   C     C_R   0.392094 0.600234 0.026052 0.013397
C33   C     C_R   0.501864 0.607458 0.949013 0.070175
C34   C     C_R   0.509278 0.611949 0.051026 0.069708
C35   C     C_R   0.278313 0.543622 0.949355 -0.227120
C36   C     C_R   0.738048 0.629448 0.051152 -0.223531
C37   C     C_R   0.278232 0.524864 0.899621 -0.146279
C38   C     C_R   0.741620 0.614065 0.101122 -0.149278
O11   O     O_2   0.284167 0.475752 0.800746 -0.569203
O12   O     O_2   0.745024 0.567863 0.200616 -0.567755
C39   C     C_R   0.281332 0.601573 0.052978 -0.292933
C40   C     C_R   0.723317 0.676287 0.946558 -0.294233
H3    H     H_    0.342857 0.635671 0.645678 0.170980
H4    H     H_    0.630756 0.687571 0.356982 0.163443
H5    H     H_    0.343396 0.666241 0.733223 0.160709
H6    H     H_    0.636717 0.721858 0.269778 0.157775
H7    H     H_    0.191420 0.489664 0.881679 0.187383
H8    H     H_    0.832498 0.611654 0.119376 0.182223
H9    H     H_    0.191194 0.517558 0.967063 0.139788
H10   H     H_    0.827715 0.634489 0.033675 0.136055
H11   H     H_    0.190250 0.608021 0.035530 0.138134
H12   H     H_    0.809748 0.714372 0.963675 0.141250
C41   C     C_R   0.061213 0.438587 0.459097 0.129005
C42   C     C_R   0.941807 0.587484 0.529283 0.118700
C43   C     C_R   0.930450 0.436076 0.458922 0.123851
C44   C     C_R   0.068938 0.568516 0.534817 0.099979
C45   C     C_R   0.872486 0.509733 0.494987 -0.204577
C46   C     C_R   0.127619 0.494477 0.499337 -0.185318
C47   C     C_R   0.579604 0.076740 0.530306 0.163218
C48   C     C_R   0.423511 0.924111 0.468640 0.166214
C49   C     C_R   0.414340 0.067412 0.472408 0.180588
C50   C     C_R   0.570882 0.932040 0.533557 0.146247
N3    N     N_R   0.500000 0.857200 0.500000 -0.128605
N4    N     N_R   0.500000 0.142800 0.500000 -0.128978
N5    N     N_2   0.380891 0.291729 0.341219 -0.303154
H13   H     H_    0.337761 0.309879 0.373371 0.260349
C51   C     C_3   0.302430 0.207659 0.308802 -0.825095
H14   H     H_    0.247137 0.131401 0.330049 0.229297
H15   H     H_    0.361453 0.152522 0.283559 0.253215
H16   H     H_    0.235329 0.270045 0.288376 0.263940
N6    N     N_2   0.683381 0.363461 0.653180 -0.310307
H17   H     H_    0.717037 0.405598 0.621491 0.229556
C52   C     C_3   0.778751 0.301829 0.682812 -0.804195
H18   H     H_    0.843681 0.249097 0.659188 0.241562
H19   H     H_    0.734822 0.225480 0.707522 0.246978
H20   H     H_    0.834200 0.380285 0.703806 0.261455
N7    N     N_2   0.660697 0.154936 0.561901 -0.243706
H21   H     H_    0.634725 0.155795 0.597542 0.247502
C53   C     C_3   0.794606 0.151507 0.554358 -0.792675
H22   H     H_    0.815322 0.106693 0.518732 0.232880
H23   H     H_    0.839623 0.093256 0.583807 0.209626
H24   H     H_    0.836995 0.255758 0.555687 0.256073
N8    N     N_2   0.350440 0.848481 0.433654 -0.261172
H25   H     H_    0.255067 0.859355 0.435404 0.206244
C54   C     C_3   0.396156 0.860817 0.384702 -0.748099
H26   H     H_    0.372970 0.959122 0.368508 0.218132
H27   H     H_    0.351765 0.778877 0.361925 0.247955
H28   H     H_    0.499663 0.853045 0.384391 0.247660
N9    N     N_2   0.306956 0.130101 0.453385 -0.252859
H29   H     H_    0.283798 0.104507 0.418139 0.212693
C55   C     C_3   0.199418 0.113820 0.484592 -0.773404
H30   H     H_    0.224097 0.148245 0.522046 0.260084
H31   H     H_    0.164422 0.006900 0.485934 0.193947
H32   H     H_    0.122082 0.173890 0.470417 0.235518
N10   N     N_2   0.631507 0.864687 0.572517 -0.246447
H33   H     H_    0.724707 0.892899 0.577202 0.238553
C56   C     C_3   0.568631 0.868434 0.618525 -0.731372
H34   H     H_    0.584971 0.967739 0.636379 0.207615
H35   H     H_    0.606925 0.790859 0.643068 0.251566
H36   H     H_    0.466282 0.847593 0.613779 0.236837
N11   N     N_2   0.168764 0.603149 0.128363 -0.247662
H37   H     H_    0.095954 0.547571 0.111619 0.213282
C57   C     C_3   0.133052 0.737645 0.140536 -0.687560
H38   H     H_    0.046733 0.730944 0.162440 0.248456
H39   H     H_    0.113697 0.796150 0.106982 0.204623
H40   H     H_    0.208819 0.791370 0.162236 0.256439
N12   N     N_2   0.830364 0.715410 0.870784 -0.249981
H41   H     H_    0.912661 0.687728 0.887596 0.213685
C58   C     C_3   0.834998 0.857052 0.857863 -0.684749
H42   H     H_    0.919100 0.880737 0.835745 0.238360
H43   H     H_    0.841065 0.920454 0.891079 0.209188
H44   H     H_    0.750179 0.881817 0.836119 0.255039
N13   N     N_2   0.126167 0.402743 0.416658 -0.305611
H45   H     H_    0.087671 0.319378 0.398608 0.254371
C59   C     C_3   0.149940 0.515647 0.384145 -0.774758
H46   H     H_    0.198484 0.481871 0.351501 0.247910
H47   H     H_    0.210535 0.595114 0.402399 0.247596
H48   H     H_    0.060078 0.558896 0.372155 0.255022
N14   N     N_2   0.889301 0.702186 0.550277 -0.267220
H49   H     H_    0.911420 0.717178 0.586484 0.223618
C60   C     C_3   0.905636 0.823412 0.520666 -0.766662
H50   H     H_    0.943149 0.909220 0.543219 0.211870
H51   H     H_    0.814433 0.849071 0.503963 0.253571
H52   H     H_    0.971618 0.810644 0.490432 0.232274
N15   N     N_2   0.860457 0.381621 0.418180 -0.289587
H53   H     H_    0.783131 0.434086 0.407699 0.224500
C61   C     C_3   0.836027 0.236766 0.418397 -0.763676
H54   H     H_    0.756563 0.208957 0.442317 0.263585
H55   H     H_    0.920062 0.183226 0.430693 0.218222
H56   H     H_    0.810072 0.202646 0.381080 0.242393
N16   N     N_2   0.138910 0.628161 0.574601 -0.311017
H57   H     H_    0.101142 0.607376 0.608082 0.214195
C62   C     C_3   0.182246 0.768013 0.568785 -0.720406
H58   H     H_    0.128837 0.834297 0.592383 0.212199
H59   H     H_    0.173244 0.802326 0.530602 0.249020
H60   H     H_    0.282606 0.778718 0.579339 0.241060

loop_
_geom_bond_atom_site_label_1
_geom_bond_atom_site_label_2
_geom_bond_distance
_ccdc_geom_bond_type
C61   H56   1.109821 S    
N6    H17   1.031428 S    
Zn1   N3    2.023475 S    
N7    H21   1.027001 S    
C13   C15   1.408273 A    
C32   C39   1.408446 A    
C53   H22   1.110311 S    
C48   N3    1.368158 A    
O3    C2    1.285513 A    
N1    C17   1.431373 S    
N5    H13   1.027612 S    
C53   H24   1.108598 S    
N12   H41   1.032056 S    
C31   C33   1.414242 A    
C48   N8    1.420417 S    
C5    N1    1.368882 A    
N9    C55   1.450330 S    
C47   N7    1.420055 S    
C54   H26   1.107435 S    
O1    C1    1.281824 A    
N16   C62   1.450047 S    
C10   C12   1.382200 A    
N13   H45   1.030091 S    
C62   H59   1.109466 S    
N2    C18   1.432840 S    
C49   N4    1.371529 A    
C25   C38   1.397347 A    
C29   C35   1.411894 A    
C61   H54   1.108468 S    
C30   C36   1.412579 A    
N14   C60   1.456789 S    
C35   H9    1.078387 S    
C14   C28   1.414019 A    
C1    C46   1.414145 S    
C41   C43   1.392779 A    
O7    Zn1   2.000536 S    
C4    C28   1.455020 S    
N16   H57   1.031405 S    
C31   C40   1.408703 A    
C24   C40   1.395432 A    
N15   H53   1.031306 S    
C9    H6    1.082977 S    
C39   H11   1.079144 S    
N10   H33   1.024818 S    
C58   H44   1.111353 S    
C55   H30   1.111402 S    
C50   N10   1.423485 S    
C11   H4    1.082827 S    
Zn2   N4    2.023475 S    
C52   H19   1.110531 S    
C47   N4    1.366731 A    
C24   N12   1.423689 S    
O3    Zn1   2.007811 S    
C6    N2    1.369403 A    
C43   N15   1.428760 S    
C56   H36   1.105793 S    
C59   H48   1.111690 S    
C32   C34   1.413892 A    
C60   H50   1.109537 S    
C54   H27   1.110252 S    
C15   H1    1.080690 S    
C55   H31   1.107713 S    
C16   H2    1.080897 S    
O2    C2    1.287979 A    
C14   N6    1.434125 S    
C47   C50   1.435949 A    
C5    C21   1.408663 A    
N5    C51   1.449365 S    
C36   C38   1.386199 A    
C57   H39   1.111690 S    
C60   H52   1.113380 S    
N14   H49   1.030899 S    
C48   C49   1.433066 A    
C44   C46   1.400459 A    
O8    Zn2   2.000541 S    
C62   H60   1.103095 S    
C11   C27   1.404466 A    
C43   C45   1.406235 A    
C50   N3    1.378319 A    
C19   C34   1.415641 A    
C56   H35   1.109879 S    
C35   C37   1.384858 A    
N15   C61   1.447427 S    
C9    C17   1.391930 A    
O5    C3    1.299545 A    
C10   C18   1.395457 A    
C60   H51   1.107384 S    
C13   C27   1.421267 A    
C51   H14   1.109859 S    
C7    C25   1.396828 A    
C13   N5    1.436887 S    
O6    C4    1.298715 A    
C8    C26   1.395408 A    
C42   C45   1.398620 A    
C29   C33   1.418883 A    
C41   C46   1.404860 A    
N10   C56   1.448775 S    
C6    O10   1.348995 S    
C19   C25   1.409789 A    
C52   H20   1.111034 S    
C10   H5    1.082975 S    
C40   H12   1.078932 S    
C51   H15   1.110279 S    
N2    C8    1.365639 A    
C54   H28   1.109861 S    
N6    C52   1.447932 S    
C42   N14   1.421283 S    
C55   H32   1.104143 S    
C20   C26   1.409230 A    
O1    Zn1   1.972111 S    
C59   H46   1.108278 S    
C36   H10   1.078360 S    
C12   C28   1.399828 A    
C2    C45   1.419302 S    
C56   H34   1.106941 S    
C12   H3    1.081311 S    
C29   C32   1.414503 A    
C61   H55   1.109407 S    
C30   C31   1.416211 A    
C20   C33   1.415869 A    
O6    Zn2   2.002772 S    
C21   C23   1.414628 A    
C57   H40   1.111328 S    
O4    C1    1.288446 A    
C59   H47   1.109888 S    
C7    O12   1.350204 S    
C57   H38   1.110429 S    
C53   H23   1.109514 S    
C5    O9    1.349328 S    
C8    O11   1.350456 S    
C44   N16   1.427581 S    
N9    H29   1.027603 S    
C30   C34   1.419288 A    
N8    H25   1.029540 S    
N11   C57   1.446490 S    
C14   C16   1.407763 A    
C15   C17   1.400298 A    
N11   H37   1.032061 S    
C6    C22   1.410519 A    
C22   C24   1.414793 A    
C16   C18   1.402396 A    
C37   H7    1.083601 S    
C58   H42   1.110309 S    
C38   H8    1.083630 S    
C41   N13   1.426726 S    
C49   N9    1.418699 S    
C19   C21   1.414483 A    
C3    C27   1.464868 S    
C20   C22   1.414116 A    
C9    C11   1.382082 A    
O4    Zn2   2.007811 S    
O2    Zn2   1.972111 S    
O7    C4    1.293764 A    
N12   C58   1.446698 S    
O8    C3    1.298484 A    
O5    Zn1   2.002778 S    
C51   H16   1.111290 S    
C23   N11   1.424097 S    
N7    C53   1.448732 S    
C26   C37   1.396840 A    
C58   H43   1.111694 S    
C42   C44   1.382218 A    
N13   C59   1.448481 S    
C52   H18   1.110058 S    
C62   H58   1.110528 S    
N8    C54   1.447835 S    
C23   C39   1.394136 A    
N1    C7    1.365148 A    
