data_mof_unit_6518.cif
_audit_creation_date              2012-12-11T16:07:17-0500
_audit_creation_method            fapswitch 2.2
_symmetry_space_group_name_H-M    P1
_symmetry_Int_Tables_number       1
_space_group_crystal_system       triclinic
_cell_length_a                    17.119933
_cell_length_b                    17.119886
_cell_length_c                    17.304841
_cell_angle_alpha                 90.076486
_cell_angle_beta                  90.076148
_cell_angle_gamma                 89.999667
_cell_volume                      5071.88936873

loop_
_atom_site_label
_atom_site_type_symbol
_atom_type_description
_atom_site_fract_x
_atom_site_fract_y
_atom_site_fract_z
_atom_type_partial_charge
Br1   Br    Br    0.191004 0.287081 0.376093 -0.489178
Br2   Br    Br    0.357637 0.260813 0.037833 -0.455102
Br3   Br    Br    0.740352 0.358435 0.961548 -0.449053
Br4   Br    Br    0.212191 0.689844 0.124025 -0.502888
Br5   Br    Br    0.211426 0.311411 0.875636 -0.505442
Br6   Br    Br    0.641241 0.740610 0.039032 -0.434872
Br7   Br    Br    0.358575 0.740362 0.961569 -0.439424
Br8   Br    Br    0.689870 0.212162 0.123923 -0.493442
Br9   Br    Br    0.760283 0.858051 0.538059 -0.454939
Br10  Br    Br    0.240432 0.858642 0.461534 -0.439171
Br11  Br    Br    0.712086 0.189791 0.623976 -0.493197
Br12  Br    Br    0.810926 0.711969 0.375998 -0.505451
Br13  Br    Br    0.241155 0.140737 0.539248 -0.434815
Br14  Br    Br    0.858355 0.240277 0.461583 -0.449282
Br15  Br    Br    0.189916 0.712248 0.623984 -0.502933
Br16  Br    Br    0.787571 0.690578 0.875833 -0.489082
C1    C     C_R   0.421431 0.672055 0.644391 -0.071765
C2    C     C_R   0.606510 0.698154 0.606287 -0.133071
C3    C     C_3   0.716972 0.243038 0.722983 0.426287
C4    C     C_3   0.757405 0.717054 0.277168 0.426398
C5    C     C_3   0.229426 0.188700 0.639866 0.447590
C6    C     C_3   0.811087 0.228958 0.360578 0.449708
C7    C     C_3   0.243133 0.717055 0.723012 0.425523
C8    C     C_3   0.783066 0.743478 0.776759 0.425691
C9    C     C_3   0.310901 0.271664 0.139003 0.446940
C10   C     C_3   0.728989 0.311119 0.860569 0.449748
C11   C     C_3   0.217036 0.743103 0.223028 0.425530
C12   C     C_3   0.216811 0.257582 0.776985 0.426221
C13   C     C_R   0.698082 0.393583 0.393623 -0.137407
C14   C     C_3   0.688909 0.729207 0.139823 0.447674
C15   C     C_3   0.311210 0.729037 0.860602 0.444989
C16   C     C_3   0.743068 0.217004 0.222958 0.426286
C17   C     C_R   0.329714 0.578310 0.645532 -0.069361
C18   C     C_R   0.578797 0.672111 0.355760 -0.072351
C19   C     C_R   0.393581 0.301930 0.606381 -0.137043
C20   C     C_R   0.301798 0.605475 0.393270 -0.104924
C21   C     C_R   0.672054 0.421300 0.644394 -0.070501
C22   C     C_R   0.921303 0.172050 0.144397 -0.070455
C23   C     C_R   0.105471 0.801800 0.893261 -0.104943
C24   C     C_R   0.198148 0.106505 0.106306 -0.133082
C25   C     C_R   0.605472 0.301817 0.393232 -0.099630
C26   C     C_R   0.828165 0.921437 0.855481 -0.072030
C27   C     C_R   0.078322 0.829704 0.145526 -0.069357
C28   C     C_R   0.893581 0.198084 0.893631 -0.137414
C29   C     C_R   0.801946 0.893596 0.106433 -0.137020
C30   C     C_R   0.172132 0.078815 0.855773 -0.072488
C31   C     C_R   0.921941 0.829809 0.854303 -0.070038
C32   C     C_R   0.105488 0.198209 0.106719 -0.099877
C33   C     C_R   0.198092 0.893551 0.893678 -0.132549
C34   C     C_R   0.829718 0.078179 0.145528 -0.072002
C35   C     C_R   0.078344 0.170551 0.854623 -0.069338
C36   C     C_R   0.698216 0.605497 0.606689 -0.099796
C37   C     C_R   0.894608 0.801875 0.106806 -0.104533
C38   C     C_R   0.801814 0.105476 0.893243 -0.099572
C39   C     C_R   0.172064 0.921424 0.144385 -0.071779
C40   C     C_3   0.321334 0.320088 0.253105 0.002844
C41   C     C_3   0.735119 0.733608 0.663772 0.005463
C42   C     C_3   0.265055 0.733513 0.336007 0.004488
C43   C     C_3   0.680258 0.321089 0.746571 0.002775
C44   C     C_3   0.679235 0.680446 0.253724 0.005296
C45   C     C_3   0.265135 0.266664 0.664186 0.006461
C46   C     C_3   0.733446 0.265052 0.335922 0.007165
C47   C     C_R   0.329819 0.421954 0.354297 -0.070106
C48   C     C_3   0.321207 0.680374 0.746577 0.005455
C49   C     C_3   0.820063 0.821314 0.753117 0.002823
C50   C     C_3   0.233598 0.235111 0.163819 0.005524
C51   C     C_3   0.765047 0.233452 0.835939 0.007121
C52   C     C_3   0.180387 0.821200 0.246570 0.005497
C53   C     C_3   0.180459 0.179244 0.753706 0.005268
C54   C     C_3   0.766704 0.765173 0.164305 0.006453
C55   C     C_3   0.233510 0.765054 0.835996 0.004448
C56   C     C_3   0.821094 0.180254 0.246571 0.002815
C57   C     C_R   0.362722 0.638579 0.687280 0.081875
C58   C     C_R   0.578181 0.329715 0.645525 -0.072009
C59   C     C_R   0.681584 0.317476 0.375504 0.144234
C60   C     C_R   0.682628 0.681677 0.624300 0.145271
C61   C     C_R   0.362889 0.361873 0.312441 0.083021
C62   C     C_R   0.638484 0.362637 0.687283 0.082636
C63   C     C_R   0.317439 0.681611 0.375596 0.144362
C64   C     C_R   0.317506 0.318463 0.624510 0.143360
C65   C     C_R   0.637696 0.638681 0.312968 0.081415
C66   C     C_R   0.862645 0.138477 0.187289 0.082602
C67   C     C_R   0.181606 0.817442 0.875581 0.144350
C68   C     C_R   0.181664 0.182616 0.124349 0.145193
C69   C     C_R   0.393550 0.698094 0.393685 -0.132587
C70   C     C_R   0.861838 0.862858 0.812466 0.083070
C71   C     C_R   0.138595 0.862709 0.187269 0.081877
C72   C     C_R   0.817471 0.181590 0.875521 0.144235
C73   C     C_R   0.818499 0.817540 0.124620 0.143267
C74   C     C_R   0.138721 0.137731 0.812991 0.081483
C75   C     C_3   0.811908 0.707038 0.701113 -0.264484
C76   C     C_3   0.285571 0.349618 0.177295 -0.210596
C77   C     C_3   0.650781 0.285974 0.822612 -0.213639
C78   C     C_3   0.293877 0.769022 0.260054 -0.230714
C79   C     C_3   0.188015 0.293059 0.700873 -0.266338
C80   C     C_R   0.301857 0.394586 0.606742 -0.104488
C81   C     C_3   0.714068 0.650957 0.177477 -0.213589
C82   C     C_3   0.347789 0.757281 0.784119 -0.268395
C83   C     C_3   0.706961 0.188151 0.298672 -0.266858
C84   C     C_3   0.769052 0.293820 0.260000 -0.234519
C85   C     C_3   0.286108 0.650836 0.822603 -0.210797
C86   C     C_3   0.652599 0.757415 0.216514 -0.268000
C87   C     C_3   0.293844 0.231694 0.740497 -0.231812
C88   C     C_3   0.188129 0.707100 0.298771 -0.264378
C89   C     C_3   0.757175 0.347713 0.784078 -0.263699
C90   C     C_3   0.348146 0.243439 0.215271 -0.265002
C91   C     C_R   0.670538 0.578328 0.354615 -0.069411
C92   C     C_3   0.706370 0.769557 0.739630 -0.233554
C93   C     C_3   0.269806 0.206298 0.239534 -0.233687
C94   C     C_3   0.743279 0.848042 0.715491 -0.265056
C95   C     C_3   0.150852 0.786143 0.322617 -0.210928
C96   C     C_3   0.793807 0.269011 0.759993 -0.234535
C97   C     C_3   0.731428 0.793948 0.240454 -0.231970
C98   C     C_3   0.257573 0.152700 0.716719 -0.268065
C99   C     C_3   0.847729 0.257151 0.284111 -0.263786
C100  C     C_3   0.207087 0.688144 0.798733 -0.264311
C101  C     C_3   0.269061 0.793880 0.760064 -0.230677
C102  C     C_R   0.421451 0.328183 0.355467 -0.071915
C103  C     C_3   0.785931 0.150770 0.322588 -0.213587
C104  C     C_3   0.151032 0.213761 0.677295 -0.213396
C105  C     C_3   0.793190 0.688198 0.201221 -0.266462
C106  C     C_3   0.688127 0.206978 0.798722 -0.266840
C107  C     C_3   0.257310 0.847771 0.284085 -0.268379
C108  C     C_3   0.849530 0.785815 0.677162 -0.210417
C109  C     C_3   0.206947 0.311767 0.201371 -0.264552
C110  C     C_3   0.243644 0.282864 0.276871 0.425821
C111  C     C_3   0.771444 0.811058 0.639080 0.446952
C112  C     C_3   0.229070 0.811235 0.360589 0.445031
H1    H     H_    0.455583 0.723167 0.658434 0.099968
H2    H     H_    0.578972 0.755015 0.605985 0.122151
H3    H     H_    0.754896 0.421227 0.393834 0.127094
H4    H     H_    0.279197 0.543966 0.661004 0.118528
H5    H     H_    0.544667 0.723215 0.341776 0.099451
H6    H     H_    0.421190 0.245100 0.606211 0.126890
H7    H     H_    0.245315 0.577235 0.394020 0.112839
H8    H     H_    0.723290 0.455235 0.658450 0.101910
H9    H     H_    0.955236 0.223288 0.158453 0.101868
H10   H     H_    0.077233 0.745317 0.894012 0.112935
H11   H     H_    0.255012 0.078971 0.105999 0.121995
H12   H     H_    0.577317 0.245299 0.394073 0.107545
H13   H     H_    0.776968 0.955384 0.841420 0.102056
H14   H     H_    0.043985 0.779182 0.160997 0.118474
H15   H     H_    0.921226 0.254899 0.893843 0.127206
H16   H     H_    0.745113 0.921199 0.106270 0.126724
H17   H     H_    0.223228 0.044672 0.841789 0.099417
H18   H     H_    0.956321 0.779296 0.838764 0.118507
H19   H     H_    0.077286 0.254703 0.105835 0.107511
H20   H     H_    0.254932 0.921133 0.893966 0.121512
H21   H     H_    0.779307 0.043642 0.160965 0.115570
H22   H     H_    0.043810 0.221000 0.839198 0.116086
H23   H     H_    0.754708 0.577289 0.605806 0.107449
H24   H     H_    0.922890 0.745413 0.106067 0.112712
H25   H     H_    0.745297 0.077320 0.894086 0.107487
H26   H     H_    0.223176 0.955577 0.158425 0.099944
H27   H     H_    0.839589 0.648685 0.695506 0.164637
H28   H     H_    0.293818 0.408976 0.152913 0.184116
H29   H     H_    0.591551 0.294701 0.847159 0.181375
H30   H     H_    0.352883 0.760862 0.234675 0.175462
H31   H     H_    0.159943 0.351151 0.694644 0.165570
H32   H     H_    0.705209 0.591746 0.152774 0.182072
H33   H     H_    0.406221 0.784742 0.778390 0.163831
H34   H     H_    0.279299 0.456327 0.338765 0.118377
H35   H     H_    0.648697 0.160334 0.304367 0.163188
H36   H     H_    0.760989 0.352836 0.234614 0.173889
H37   H     H_    0.294870 0.591596 0.847114 0.183906
H38   H     H_    0.594214 0.784943 0.222476 0.163566
H39   H     H_    0.352760 0.240170 0.766132 0.172984
H40   H     H_    0.160232 0.648880 0.304526 0.166547
H41   H     H_    0.784610 0.406160 0.778365 0.169701
H42   H     H_    0.406789 0.216332 0.220698 0.169468
H43   H     H_    0.647307 0.761754 0.764967 0.175988
H44   H     H_    0.262202 0.147167 0.264775 0.175881
H45   H     H_    0.543638 0.279307 0.660964 0.115608
H46   H     H_    0.716031 0.906602 0.721102 0.169401
H47   H     H_    0.091621 0.794937 0.347137 0.183817
H48   H     H_    0.852813 0.260915 0.734595 0.173924
H49   H     H_    0.739674 0.852939 0.265994 0.172887
H50   H     H_    0.285262 0.094416 0.722900 0.163515
H51   H     H_    0.906190 0.284564 0.278431 0.169617
H52   H     H_    0.148855 0.660266 0.804457 0.166620
H53   H     H_    0.260931 0.852895 0.734695 0.175500
H54   H     H_    0.794625 0.091530 0.347124 0.181397
H55   H     H_    0.091896 0.204665 0.652501 0.182131
H56   H     H_    0.421134 0.754933 0.393971 0.121573
H57   H     H_    0.851384 0.660280 0.195234 0.165505
H58   H     H_    0.660288 0.148728 0.804453 0.163187
H59   H     H_    0.284791 0.906192 0.278327 0.163823
H60   H     H_    0.908822 0.794263 0.652689 0.184108
H61   H     H_    0.148513 0.339319 0.195964 0.164578
H62   H     H_    0.245397 0.422873 0.605989 0.112665
H63   H     H_    0.721000 0.543809 0.339199 0.115923
H64   H     H_    0.455391 0.276982 0.341401 0.102080
N1    N     N_R   0.424590 0.632770 0.578330 -0.046345
N2    N     N_R   0.575410 0.632770 0.578330 -0.052595
N3    N     N_R   0.632770 0.424590 0.421670 -0.053112
N4    N     N_R   0.367230 0.575410 0.578330 -0.044112
N5    N     N_R   0.575410 0.632770 0.421670 -0.046326
N6    N     N_R   0.424590 0.367230 0.578330 -0.053118
N7    N     N_R   0.367230 0.575410 0.421670 -0.054238
N8    N     N_R   0.632770 0.424590 0.578330 -0.047206
N9    N     N_R   0.924590 0.132770 0.078330 -0.047189
N10   N     N_R   0.075410 0.867230 0.921670 -0.054239
N11   N     N_R   0.132770 0.075410 0.078330 -0.052575
N12   N     N_R   0.575410 0.367230 0.421670 -0.053914
N13   N     N_R   0.867230 0.924590 0.921670 -0.047125
N14   N     N_R   0.075410 0.867230 0.078330 -0.044104
N15   N     N_R   0.924590 0.132770 0.921670 -0.053122
N16   N     N_R   0.867230 0.924590 0.078330 -0.053098
N17   N     N_R   0.132770 0.075410 0.921670 -0.046374
N18   N     N_R   0.924590 0.867230 0.921670 -0.044116
N19   N     N_R   0.075410 0.132770 0.078330 -0.053768
N20   N     N_R   0.132770 0.924590 0.921670 -0.052583
N21   N     N_R   0.867230 0.075410 0.078330 -0.043206
N22   N     N_R   0.075410 0.132770 0.921670 -0.043361
N23   N     N_R   0.632770 0.575410 0.578330 -0.053789
N24   N     N_R   0.924590 0.867230 0.078330 -0.054390
N25   N     N_R   0.867230 0.075410 0.921670 -0.053916
N26   N     N_R   0.132770 0.924590 0.078330 -0.046359
N27   N     N_R   0.367230 0.424590 0.421670 -0.044110
N28   N     N_R   0.575410 0.367230 0.578330 -0.043203
N29   N     N_R   0.424590 0.632770 0.421670 -0.052589
N30   N     N_R   0.367230 0.424590 0.578330 -0.054418
N31   N     N_R   0.632770 0.575410 0.421670 -0.043340
N32   N     N_R   0.424590 0.367230 0.421670 -0.047083
Ni1   Ni    Ni4+2 0.500000 0.631570 0.500000 0.239873
Ni2   Ni    Ni4+2 0.500000 0.368430 0.500000 0.244162
Ni3   Ni    Ni4+2 0.631570 0.500000 0.500000 0.244000
Ni4   Ni    Ni4+2 0.368430 0.500000 0.500000 0.248153
Ni5   Ni    Ni4+2 0.000000 0.131570 0.000000 0.244073
Ni6   Ni    Ni4+2 0.000000 0.868430 0.000000 0.248247
Ni7   Ni    Ni4+2 0.131570 0.000000 0.000000 0.239779
Ni8   Ni    Ni4+2 0.868430 0.000000 0.000000 0.244087

loop_
_geom_bond_atom_site_label_1
_geom_bond_atom_site_label_2
_ccdc_geom_bond_type
C39   H26   S    
C97   H49   S    
N4    Ni4   S    
C3    C106  S    
C42   C112  S    
C2    N2    A    
C24   C68   A    
C1    N1    A    
C12   C53   S    
C15   C82   S    
C20   N7    A    
C23   C67   A    
C76   C109  S    
C82   H33   S    
C38   H25   S    
C65   C91   A    
C20   H7    S    
C16   C56   S    
C13   H3    S    
C3    C96   S    
N14   N26   A    
C87   H39   S    
C14   C81   S    
Br11  C3    S    
C51   C72   S    
Br9   C111  S    
C47   H34   S    
C89   H41   S    
C82   C101  S    
C12   C79   S    
C95   H47   S    
C10   C51   S    
C15   C85   S    
C41   C60   S    
C49   C94   S    
N6    N30   A    
C91   H63   S    
C5    C104  S    
C28   H15   S    
C35   C74   A    
C34   H21   S    
C4    C97   S    
N31   Ni3   S    
C21   N8    A    
C30   H17   S    
N14   Ni6   S    
C83   H35   S    
C45   C64   S    
C80   H62   S    
C24   H11   S    
N29   Ni1   S    
C11   C88   S    
C10   C89   S    
C26   N13   A    
N17   Ni7   S    
C49   C108  S    
C47   N27   A    
C25   H12   S    
C81   C105  S    
C11   C52   S    
C25   C59   A    
C7    C100  S    
C102  H64   S    
C11   C78   S    
C35   H22   S    
C98   H50   S    
C22   N9    A    
C29   H16   S    
N24   Ni6   S    
C48   C57   S    
C32   N19   A    
C26   C70   A    
C18   C65   A    
C40   C110  S    
N27   Ni4   S    
C64   C80   A    
C29   C73   A    
N7    Ni4   S    
N8    Ni3   S    
C5    C45   S    
C93   H44   S    
C94   C111  S    
N10   Ni6   S    
C78   C107  S    
C10   C77   S    
N9    Ni5   S    
N27   N32   A    
C23   H10   S    
N16   N24   A    
C22   C66   A    
C27   N14   A    
C1    C57   A    
C90   H42   S    
N11   N19   A    
C48   C85   S    
C84   C99   S    
C37   N24   A    
C44   C86   S    
C43   C62   S    
C14   C54   S    
C9    C90   S    
C39   N26   A    
C55   C67   S    
C94   H46   S    
C54   C97   S    
C6    C103  S    
C45   C87   S    
C53   C98   S    
N15   N25   A    
Br7   C15   S    
C55   C101  S    
C1    H1    S    
Br8   C16   S    
C81   H32   S    
C12   C87   S    
C49   C70   S    
C87   C98   S    
Br1   C110  S    
C17   N4    A    
C58   H45   S    
C76   H28   S    
C44   C81   S    
C14   C86   S    
N2    N23   A    
C108  H60   S    
N20   Ni7   S    
C54   C105  S    
N15   Ni5   S    
N3    N12   A    
C83   C103  S    
C34   N21   A    
C3    C43   S    
C13   N3    A    
C105  H57   S    
C36   N23   A    
C99   H51   S    
C40   C61   S    
C16   C84   S    
C33   H20   S    
C52   C95   S    
C78   H30   S    
C7    C101  S    
C23   N10   A    
C77   H29   S    
C6    C46   S    
C31   C70   A    
C75   H27   S    
C104  H55   S    
C37   H24   S    
Br5   C12   S    
C44   C65   S    
C51   C96   S    
C51   C106  S    
C56   C99   S    
C24   N11   A    
C19   H6    S    
N1    N4    A    
N9    N21   A    
Br12  C4    S    
C26   H13   S    
N18   Ni6   S    
C21   H8    S    
N28   Ni2   S    
C84   H36   S    
C43   C89   S    
C77   C106  S    
C25   N12   A    
C85   H37   S    
C40   C90   S    
C4    C105  S    
N21   Ni8   S    
C16   C83   S    
C42   C63   S    
N16   Ni8   S    
C108  C111  S    
C46   C84   S    
C8    C49   S    
C17   H4    S    
C17   C57   A    
C6    C99   S    
Br6   C14   S    
C89   C96   S    
C61   C102  A    
C29   N16   A    
C80   N30   A    
C75   C108  S    
C100  H52   S    
C102  N32   A    
C37   C73   A    
N7    N29   A    
N8    N28   A    
N19   Ni5   S    
C79   H31   S    
C46   C59   S    
C31   N18   A    
C54   C73   S    
C42   C88   S    
C13   C59   A    
Br15  C7    S    
N12   Ni2   S    
C53   C74   S    
C8    C75   S    
C63   C69   A    
Br4   C11   S    
C48   C82   S    
N2    Ni1   S    
C38   N25   A    
C47   C61   A    
C56   C103  S    
C52   C71   S    
C7    C48   S    
C9    C76   S    
C2    C60   A    
C41   C75   S    
C96   H48   S    
Br3   C10   S    
C9    C50   S    
N10   N20   A    
C5    C98   S    
N5    N31   A    
C20   C63   A    
N32   Ni2   S    
C41   C111  S    
C88   C95   S    
C109  H61   S    
C88   H40   S    
C45   C79   S    
C19   C64   A    
Br10  C112  S    
C30   C74   A    
C79   C104  S    
C69   H56   S    
C30   N17   A    
N13   Ni8   S    
C21   C62   A    
C53   C104  S    
N17   N22   A    
C18   H5    S    
C2    H2    S    
N3    Ni3   S    
C36   C60   A    
C27   C71   A    
C34   C66   A    
Br14  C6    S    
C42   C78   S    
N1    Ni1   S    
N25   Ni8   S    
C86   C97   S    
C52   C107  S    
Br13  C5    S    
N11   Ni7   S    
N22   Ni5   S    
C18   N5    A    
C33   C67   A    
C107  C112  S    
C109  C110  S    
N13   N18   A    
C36   H23   S    
C50   C109  S    
C33   N20   A    
C15   C55   S    
C22   H9    S    
C92   C94   S    
C55   C100  S    
Br2   C9    S    
C101  H53   S    
C28   N15   A    
C50   C93   S    
C107  H59   S    
C39   C71   A    
Br16  C8    S    
N26   Ni7   S    
C31   H18   S    
C106  H58   S    
C50   C68   S    
C46   C83   S    
N23   Ni3   S    
C91   N31   A    
C32   C68   A    
C93   C110  S    
C38   C72   A    
C41   C92   S    
C86   H38   S    
N30   Ni4   S    
C58   C62   A    
C92   H43   S    
C58   N28   A    
C95   C112  S    
C85   C100  S    
C27   H14   S    
C35   N22   A    
C43   C77   S    
C4    C44   S    
C28   C72   A    
C40   C76   S    
C69   N29   A    
C103  H54   S    
C56   C66   S    
C8    C92   S    
N6    Ni2   S    
C19   N6    A    
C32   H19   S    
C90   C93   S    
N5    Ni1   S    
