data_mof_unit_50244.cif
_audit_creation_date              2012-12-10T17:28:32-0500
_audit_creation_method            fapswitch 2.2
_symmetry_space_group_name_H-M    P1
_symmetry_Int_Tables_number       1
_space_group_crystal_system       triclinic
_cell_length_a                    10.704063
_cell_length_b                    12.178783
_cell_length_c                    13.157316
_cell_angle_alpha                 91.094632
_cell_angle_beta                  93.251836
_cell_angle_gamma                 79.505148
_cell_volume                      1683.7438748

loop_
_atom_site_label
_atom_site_type_symbol
_atom_type_description
_atom_site_fract_x
_atom_site_fract_y
_atom_site_fract_z
_atom_type_partial_charge
Br1   Br    Br    0.764188 0.829028 0.232625 -0.353670
Br2   Br    Br    0.239155 0.172499 0.770124 -0.351489
Br3   Br    Br    0.012642 0.069743 0.645504 -0.344795
Br4   Br    Br    0.971542 0.940164 0.373299 -0.285996
Br5   Br    Br    0.632331 0.747262 0.987245 -0.364123
Br6   Br    Br    0.349066 0.262891 0.010980 -0.364104
Br7   Br    Br    0.344092 0.233147 0.348998 -0.439558
Br8   Br    Br    0.652680 0.766941 0.652263 -0.427482
C1    C     C_R   0.488206 0.520790 0.699456 0.929001
C2    C     C_R   0.517840 0.565038 0.127694 -0.113713
C3    C     C_R   0.478427 0.452630 0.978616 0.045986
C4    C     C_R   0.509832 0.552599 0.021089 0.045463
C5    C     C_R   0.364814 0.971540 0.415038 -0.080744
C6    C     C_R   0.633694 0.027646 0.584996 -0.170303
C7    C     C_R   0.386897 0.851991 0.414107 0.014589
C8    C     C_R   0.610667 0.146498 0.587383 -0.034578
C9    C     C_R   0.553067 0.849102 0.541856 0.404263
C10   C     C_R   0.447390 0.150599 0.457289 0.372997
C11   C     C_R   0.548464 0.968194 0.531008 -0.001390
C12   C     C_R   0.510582 0.479475 0.300327 0.907875
C13   C     C_R   0.452244 0.030931 0.467241 -0.064524
C14   C     C_R   0.741902 0.492759 0.491446 0.914853
C15   C     C_R   0.258347 0.507267 0.508843 0.874643
C16   C     C_R   0.952079 0.285692 0.543761 -0.114908
C17   C     C_R   0.046978 0.716170 0.463815 -0.191534
C18   C     C_R   0.029545 0.220098 0.618996 0.252815
C19   C     C_R   0.967023 0.784723 0.390987 0.370875
C20   C     C_R   0.128465 0.261429 0.671490 0.309595
C21   C     C_R   0.872033 0.741676 0.334142 0.251862
C22   C     C_R   0.155870 0.363797 0.644652 -0.236559
C23   C     C_R   0.522264 0.469211 0.189488 -0.183119
C24   C     C_R   0.846252 0.637636 0.357759 -0.217293
C25   C     C_R   0.081027 0.428960 0.568660 0.064514
C26   C     C_R   0.920147 0.571773 0.433586 0.080423
C27   C     C_R   0.967670 0.397980 0.529787 0.034435
C28   C     C_R   0.033004 0.602820 0.473162 -0.057796
C29   C     C_R   0.121697 0.521324 0.527212 -0.183078
C30   C     C_R   0.879168 0.478964 0.474518 -0.112617
C31   C     C_2   0.238150 0.032453 0.379746 0.640103
C32   C     C_2   0.758095 0.968226 0.627171 0.504940
C33   C     C_2   0.877858 0.229192 0.467244 0.659419
C34   C     C_R   0.471764 0.532559 0.809705 -0.209391
C35   C     C_2   0.122765 0.765105 0.545234 0.617342
C36   C     C_2   0.508243 0.679165 0.171906 0.548601
C37   C     C_2   0.489770 0.322593 0.830254 0.557371
C38   C     C_2   0.566143 0.255164 0.189326 0.591005
C39   C     C_2   0.419295 0.746206 0.806631 0.586515
C40   C     C_2   0.683788 0.199456 0.667719 0.405400
C41   C     C_2   0.306881 0.791053 0.345475 0.457045
C42   C     C_R   0.522017 0.640149 0.955529 0.232820
C43   C     C_R   0.463726 0.365863 0.043704 0.231045
C44   C     C_R   0.473155 0.637825 0.856131 -0.091089
C45   C     C_R   0.515194 0.365367 0.142227 -0.094258
C46   C     C_R   0.474957 0.437981 0.872355 -0.098746
H1    H     H_    0.237305 0.391973 0.681858 0.143228
H2    H     H_    0.454204 0.821738 0.829067 0.134661
H3    H     H_    0.713417 0.155952 0.738410 0.122722
H4    H     H_    0.302388 0.705610 0.357514 0.136987
H5    H     H_    0.766390 0.608896 0.318543 0.152385
H6    H     H_    0.204656 0.029901 0.300642 0.157132
H7    H     H_    0.788098 0.978409 0.706314 0.109420
H8    H     H_    0.840657 0.155851 0.486742 0.095586
H9    H     H_    0.149019 0.720141 0.615820 0.111158
H10   H     H_    0.572914 0.696317 0.233698 0.095174
H11   H     H_    0.430505 0.302763 0.765878 0.092070
H12   H     H_    0.526793 0.181841 0.166839 0.126783
N1    N     N_R   0.523130 0.207800 0.519340 -0.119416
N2    N     N_R   0.476870 0.792200 0.480660 -0.172545
O1    O     O_R   0.506170 0.421700 0.658830 -0.628129
O2    O     O_2   0.828462 0.905851 0.572799 -0.509105
O3    O     O_2   0.862217 0.261798 0.379536 -0.490778
O4    O     O_2   0.157176 0.854099 0.535697 -0.495629
O5    O     O_2   0.427096 0.755548 0.138538 -0.475181
O6    O     O_2   0.569008 0.247876 0.868753 -0.543041
O7    O     O_2   0.659075 0.243145 0.248788 -0.483744
O8    O     O_2   0.328765 0.753923 0.744899 -0.551472
O9    O     O_2   0.717306 0.288059 0.657156 -0.538742
O10   O     O_2   0.245999 0.834859 0.271156 -0.530132
O11   O     O_R   0.493830 0.578300 0.341170 -0.712424
O12   O     O_R   0.491330 0.609310 0.646410 -0.549594
O13   O     O_R   0.508670 0.390690 0.353590 -0.541766
O14   O     O_R   0.690650 0.406190 0.506220 -0.561493
O15   O     O_R   0.309350 0.593810 0.493780 -0.679639
O16   O     O_R   0.675800 0.593810 0.493800 -0.591587
O17   O     O_R   0.324200 0.406190 0.506200 -0.570947
O18   O     O_2   0.171187 0.090122 0.439693 -0.512074
Zn1   Zn    Zn3+2 0.509910 0.374730 0.508290 1.060587
Zn2   Zn    Zn3+2 0.490090 0.625270 0.491710 1.000609

loop_
_geom_bond_atom_site_label_1
_geom_bond_atom_site_label_2
_ccdc_geom_bond_type
C24   C26   A    
C35   O4    D    
C19   C21   A    
C10   C13   A    
C17   C35   S    
C35   H9    S    
C40   H3    S    
C36   H10   S    
C1    C34   S    
C32   O2    D    
C14   O14   A    
C28   C29   A    
C11   C13   A    
C16   C18   A    
C39   O8    D    
C38   H12   S    
C21   C24   A    
C31   H6    S    
O14   Zn1   S    
C14   C30   S    
C41   O10   D    
C38   O7    D    
C25   C27   A    
C2    C23   A    
C42   C44   A    
Br6   C43   S    
O1    Zn1   S    
C33   O3    D    
O15   Zn2   S    
C12   O13   A    
C16   C33   S    
C8    C40   S    
C33   H8    S    
C2    C4    A    
O11   Zn2   S    
O17   Zn1   S    
C16   C27   A    
C2    C36   S    
C27   C30   A    
C10   N1    A    
C15   C29   S    
C25   C29   A    
C32   H7    S    
C37   O6    D    
C43   C45   A    
C1    O12   A    
C14   O16   A    
C40   O9    D    
Br7   C10   S    
Br1   C21   S    
C5    C13   A    
C8    N1    A    
C23   C45   A    
O13   Zn1   S    
C3    C46   A    
C15   O15   A    
C37   C46   S    
C5    C7    A    
C37   H11   S    
N2    Zn2   S    
C6    C8    A    
Br5   C42   S    
C12   O11   A    
Br4   C19   S    
C9    N2    A    
C22   C25   A    
C26   C30   A    
N1    Zn1   S    
C6    C11   A    
Br3   C18   S    
O16   Zn2   S    
C1    O1    A    
C4    C42   A    
C3    C4    A    
C39   C44   S    
C17   C19   A    
C22   H1    S    
C18   C20   A    
Br8   C9    S    
C24   H5    S    
C20   C22   A    
O12   Zn2   S    
C34   C46   A    
C7    N2    A    
C38   C45   S    
C9    C11   A    
C26   C28   A    
C7    C41   S    
C36   O5    D    
C5    C31   S    
C3    C43   A    
C41   H4    S    
C17   C28   A    
C6    C32   S    
C15   O17   A    
Br2   C20   S    
C31   O18   D    
C34   C44   A    
C39   H2    S    
C12   C23   S    
