data_mof_unit_55285.cif
_audit_creation_date              2012-12-11T17:41:18-0500
_audit_creation_method            fapswitch 2.2
_symmetry_space_group_name_H-M    P1
_symmetry_Int_Tables_number       1
_space_group_crystal_system       triclinic
_cell_length_a                    15.537692
_cell_length_b                    14.814515
_cell_length_c                    15.032326
_cell_angle_alpha                 109.581981
_cell_angle_beta                  121.346274
_cell_angle_gamma                 59.074382
_cell_volume                      2524.14070328

loop_
_atom_site_label
_atom_site_type_symbol
_atom_type_description
_atom_site_fract_x
_atom_site_fract_y
_atom_site_fract_z
_atom_type_partial_charge
C1    C     C_R   0.805977 0.926057 0.766544 0.410761
C2    C     C_R   0.276936 0.406342 0.193617 -0.110443
C3    C     C_R   0.635574 0.801090 0.914601 -0.112875
C4    C     C_R   0.362240 0.319685 0.170547 -0.140858
C5    C     C_R   0.676330 0.876160 0.982765 0.103733
C6    C     C_R   0.337227 0.257756 0.074179 0.094894
C7    C     C_R   0.791811 0.845333 0.036783 -0.160854
C8    C     C_R   0.225321 0.285001 0.001105 -0.140753
C9    C     C_R   0.865156 0.741294 0.021568 -0.027180
C10   C     C_R   0.140346 0.371853 0.024485 -0.051082
C11   C     C_R   0.823876 0.667194 0.953316 -0.022150
C12   C     C_R   0.228713 0.020314 0.210002 0.455910
C13   C     C_R   0.166103 0.432417 0.120645 -0.067005
C14   C     C_R   0.603934 0.006623 0.103516 -0.220071
C15   C     C_R   0.427202 0.146444 0.953752 -0.236065
C16   C     C_R   0.198530 0.274626 0.439293 -0.062382
C17   C     C_R   0.758126 0.708732 0.511024 0.000538
C18   C     C_R   0.514612 0.088324 0.123697 0.068662
C19   C     C_R   0.509339 0.055416 0.929726 0.073899
C20   C     C_R   0.427580 0.163436 0.051019 0.032509
C21   C     C_R   0.598474 0.984082 0.005400 0.011511
C22   C     C_2   0.020916 0.348439 0.460535 -0.394149
C23   C     C_R   0.135738 0.274143 0.478667 0.184674
C24   C     C_2   0.852293 0.599520 0.389036 -0.382733
C25   C     C_2   0.952450 0.410501 0.381491 0.625942
C26   C     C_2   0.858318 0.506476 0.390832 0.610835
C27   C     C_2   0.990591 0.939462 0.837866 -0.156271
C28   C     C_2   0.134817 0.896437 0.100873 -0.149041
C29   C     C_R   0.203204 0.890820 0.649296 -0.119291
C30   C     C_R   0.914956 0.264526 0.784448 -0.162051
C31   C     C_R   0.300966 0.800303 0.655806 -0.140153
C32   C     C_R   0.812342 0.334634 0.718235 -0.164612
C33   C     C_R   0.297277 0.713550 0.579954 0.111810
C34   C     C_R   0.789728 0.698507 0.435706 0.168826
C35   C     C_R   0.714695 0.362264 0.725417 0.098322
C36   C     C_R   0.193850 0.718655 0.498303 -0.174399
C37   C     C_R   0.721789 0.317353 0.799223 -0.163355
C38   C     C_R   0.096250 0.809265 0.492364 -0.101353
C39   C     C_R   0.824734 0.247100 0.865196 -0.053391
C40   C     C_R   0.594606 0.230418 0.556628 -0.130267
C41   C     C_R   0.407259 0.782031 0.510542 -0.136269
C42   C     C_R   0.100923 0.895246 0.567740 -0.087812
C43   C     C_R   0.921191 0.221468 0.858278 -0.073223
C44   C     C_R   0.405214 0.519402 0.583292 -0.235244
C45   C     C_R   0.503864 0.325489 0.555038 0.052364
C46   C     C_R   0.601617 0.535742 0.654283 -0.237847
C47   C     C_R   0.506169 0.428784 0.606004 0.059995
C48   C     C_R   0.499446 0.619903 0.607726 0.052425
C49   C     C_R   0.606221 0.441577 0.659850 0.042388
C50   C     C_R   0.401335 0.617229 0.588551 0.032130
C51   C     C_2   0.051317 0.873867 0.912965 -0.103605
C52   C     C_2   0.135810 0.895135 0.011683 -0.112496
C53   C     C_R   0.407746 0.045790 0.732365 -0.142853
C54   C     C_R   0.594675 0.017772 0.290705 -0.132351
C55   C     C_R   0.409605 0.306376 0.485133 -0.127481
C56   C     C_R   0.498464 0.699810 0.568976 0.043557
C57   C     C_R   0.590946 0.710272 0.589131 -0.067638
C58   C     C_R   0.593201 0.979893 0.804945 -0.082727
C59   C     C_R   0.411520 0.090059 0.211947 -0.081556
C60   C     C_R   0.198122 0.184355 0.531102 -0.159690
C61   C     C_R   0.758310 0.799729 0.418156 -0.162869
C62   C     C_R   0.807381 0.022534 0.682152 -0.223181
C63   C     C_R   0.235988 0.920439 0.299543 -0.204446
C64   C     C_R   0.873116 0.961178 0.766143 0.042482
C65   C     C_R   0.196977 0.943898 0.199465 0.033567
C66   C     C_R   0.502102 0.034289 0.826153 0.018945
C67   C     C_R   0.505569 0.072491 0.207726 0.019120
C68   C     C_R   0.709251 0.697052 0.900337 -0.114694
Cl1   Cl    Cl    0.846855 0.808841 0.812211 -0.775054
Cl2   Cl    Cl    0.158097 0.114446 0.121158 -0.745176
F1    F     F_    0.792401 0.500087 0.420243 -0.729656
F2    F     F_    0.978370 0.397082 0.302956 -0.712090
H1    H     H_    0.083910 0.866350 0.100637 0.136617
H2    H     H_    0.203637 0.237932 0.926907 0.103392
H3    H     H_    0.953970 0.718001 0.063053 0.099418
H4    H     H_    0.054439 0.391852 0.968214 0.112804
H5    H     H_    0.670524 0.948022 0.158426 0.125561
H6    H     H_    0.361657 0.202315 0.895772 0.129847
H7    H     H_    0.904278 0.601887 0.362643 0.145432
H8    H     H_    0.995670 0.359627 0.520115 0.147237
H9    H     H_    0.025273 0.965259 0.563006 0.098870
H10   H     H_    0.000881 0.168139 0.909979 0.169751
H11   H     H_    0.171856 0.326396 0.385119 0.173891
H12   H     H_    0.021404 0.991616 0.839786 0.134821
H13   H     H_    0.773047 0.646997 0.546927 0.162001
H14   H     H_    0.206744 0.957429 0.707670 0.105597
H15   H     H_    0.989784 0.243959 0.778873 0.114113
H16   H     H_    0.379531 0.797792 0.719787 0.108258
H17   H     H_    0.809128 0.367039 0.661275 0.132330
H18   H     H_    0.188827 0.653085 0.438778 0.109304
H19   H     H_    0.647895 0.337727 0.806462 0.123220
H20   H     H_    0.016934 0.812844 0.429240 0.103756
H21   H     H_    0.829863 0.212994 0.922125 0.139743
H22   H     H_    0.329011 0.513786 0.558570 0.125183
H23   H     H_    0.880670 0.586497 0.942115 0.096778
H24   H     H_    0.678772 0.541612 0.684794 0.122164
H25   H     H_    0.681429 0.213272 0.597144 0.123223
H26   H     H_    0.320861 0.805888 0.487352 0.117401
H27   H     H_    0.322270 0.082609 0.720553 0.098980
H28   H     H_    0.680504 0.002666 0.319913 0.092006
H29   H     H_    0.324018 0.362858 0.462084 0.090535
H30   H     H_    0.675821 0.669444 0.643704 0.116541
H31   H     H_    0.678746 0.961506 0.859732 0.153848
H32   H     H_    0.328006 0.141771 0.165678 0.180850
H33   H     H_    0.168199 0.152590 0.558856 0.104569
H34   H     H_    0.100160 0.499480 0.138636 0.103258
H35   H     H_    0.771298 0.820555 0.365102 0.108654
H36   H     H_    0.837924 0.049977 0.650870 0.127807
H37   H     H_    0.223040 0.866459 0.319891 0.127891
H38   H     H_    0.187224 0.923629 0.010808 0.175073
H39   H     H_    0.026571 0.818975 0.913990 0.208212
H40   H     H_    0.677463 0.639201 0.849681 0.117560
H41   H     H_    0.296794 0.453183 0.268193 0.115043
H42   H     H_    0.547027 0.822738 0.874355 0.105035
H43   H     H_    0.447690 0.300529 0.227990 0.125499
H44   H     H_    0.824740 0.901783 0.090824 0.115129
N1    N     N_R   0.705410 0.966550 0.689210 -0.078835
N2    N     N_R   0.556610 0.796750 0.548620 -0.043382
N3    N     N_R   0.556610 0.951620 0.703500 -0.034170
N4    N     N_R   0.443390 0.048380 0.296500 -0.048107
N5    N     N_R   0.294590 0.131500 0.522480 -0.047226
N6    N     N_R   0.705410 0.868500 0.477520 -0.049917
N7    N     N_R   0.705410 0.023370 0.632390 -0.062116
N8    N     N_R   0.294590 0.976630 0.367610 -0.060667
N9    N     N_R   0.294590 0.033450 0.310790 -0.079201
N10   N     N_R   0.294590 0.188320 0.465660 -0.061692
N11   N     N_R   0.705410 0.811680 0.534340 -0.054238
N12   N     N_R   0.556610 0.157790 0.497330 -0.043585
N13   N     N_R   0.443390 0.842210 0.502670 -0.043973
N14   N     N_R   0.443390 0.997080 0.657540 -0.043047
N15   N     N_R   0.556610 0.002920 0.342460 -0.042467
N16   N     N_R   0.443390 0.203250 0.451380 -0.041231
Ni1   Ni    Ni4+2 0.629830 0.882720 0.617850 0.271596
Ni2   Ni    Ni4+2 0.370170 0.117280 0.382150 0.259660
Ni3   Ni    Ni4+2 0.629830 0.013030 0.487540 0.202462
Ni4   Ni    Ni4+2 0.370170 0.986970 0.512460 0.213877

loop_
_geom_bond_atom_site_label_1
_geom_bond_atom_site_label_2
_ccdc_geom_bond_type
N9    Ni2   S    
C41   N13   A    
C63   C65   A    
C59   N4    A    
C29   C42   A    
N4    N15   A    
C14   C18   A    
C4    H43   S    
C3    C68   A    
N1    Ni1   S    
C33   C36   A    
C63   N8    A    
C47   C49   A    
C53   H27   S    
C15   C19   A    
C54   N15   A    
C46   C49   A    
N3    Ni1   S    
C17   H13   S    
C59   H32   S    
C14   C21   A    
C27   H12   S    
C35   C37   A    
C24   C26   D    
C38   C42   A    
N15   Ni3   S    
C2    H41   S    
C15   H6    S    
C62   H36   S    
C36   H18   S    
C40   N12   A    
C38   H20   S    
N3    N14   A    
C56   C57   A    
C19   C66   S    
C48   C56   S    
C68   H40   S    
C14   H5    S    
N6    N11   A    
C2    C13   A    
C39   H21   S    
C62   C64   A    
C33   C50   S    
C59   C67   A    
C10   H4    S    
C58   C66   A    
C22   C25   D    
C35   C49   S    
C31   C33   A    
N4    Ni2   S    
C44   C47   A    
C48   C50   A    
C26   F1    S    
C54   H28   S    
C23   C60   A    
C42   H9    S    
C28   H1    S    
N12   N16   A    
C62   N7    A    
C27   C51   D    
C45   C47   S    
C40   C45   A    
C37   C39   A    
C46   C48   A    
C37   H19   S    
C51   C52   S    
C32   C35   A    
C58   H31   S    
C4    C6    A    
N12   Ni3   S    
C40   H25   S    
C5    C7    A    
N8    Ni4   S    
C17   N11   A    
C39   C43   A    
C12   N9    A    
C25   C26   S    
C10   C13   A    
C16   H11   S    
C1    Cl1   S    
N7    Ni3   S    
C61   N6    A    
C7    H44   S    
C63   H37   S    
C2    C4    A    
C41   C56   A    
C57   H30   S    
N13   Ni4   S    
C24   H7    S    
C32   H17   S    
C52   H38   S    
C15   C20   A    
C8    H2    S    
C46   H24   S    
C25   F2    S    
C1    N1    A    
C53   C66   A    
C9    C11   A    
N10   Ni2   S    
C29   H14   S    
N2    Ni1   S    
C8    C10   A    
C16   C23   A    
C30   C43   A    
C17   C34   A    
C1    C64   A    
C11   C68   A    
C11   H23   S    
C7    C9    A    
C12   Cl2   S    
C51   H39   S    
C31   H16   S    
C19   C21   A    
C41   H26   S    
N14   Ni4   S    
N11   Ni1   S    
C13   H34   S    
C3    C5    A    
C3    H42   S    
C6    C8    A    
C54   C67   A    
C6    C20   S    
C12   C65   A    
C55   H29   S    
C36   C38   A    
C28   C65   S    
C18   C67   S    
C22   H8    S    
N5    N10   A    
C29   C31   A    
N2    N13   A    
C30   C32   A    
C28   C52   D    
C58   N3    A    
C18   C20   A    
C34   C61   A    
N5    Ni4   S    
N1    N7    A    
C60   N5    A    
C61   H35   S    
C24   C34   S    
N6    Ni3   S    
C44   H22   S    
C27   C64   S    
C5    C21   S    
C45   C55   A    
C44   C50   A    
N16   Ni2   S    
C55   N16   A    
C43   H10   S    
C22   C23   S    
N8    N9    A    
C53   N14   A    
C9    H3    S    
C30   H15   S    
C16   N10   A    
C60   H33   S    
C57   N2    A    
