data_mof_unit_16981.cif
_audit_creation_date              2012-12-10T17:04:20-0500
_audit_creation_method            fapswitch 2.2
_symmetry_space_group_name_H-M    P1
_symmetry_Int_Tables_number       1
_space_group_crystal_system       triclinic
_cell_length_a                    11.693881
_cell_length_b                    11.076436
_cell_length_c                    9.860387
_cell_angle_alpha                 111.834256
_cell_angle_beta                  98.20461
_cell_angle_gamma                 90.657364
_cell_volume                      1170.5271389

loop_
_atom_site_label
_atom_site_type_symbol
_atom_type_description
_atom_site_fract_x
_atom_site_fract_y
_atom_site_fract_z
_atom_type_partial_charge
C1    C     C_R   0.494385 0.254252 0.440207 0.845657
C2    C     C_R   0.506599 0.745854 0.559731 0.846534
C3    C     C_R   0.284102 0.499971 0.500980 0.793022
C4    C     C_R   0.715897 0.499820 0.498965 0.798622
C5    C     C_1   0.162648 0.500155 0.502469 -0.178565
C6    C     C_1   0.837355 0.499480 0.497414 -0.180228
C7    C     C_1   0.060025 0.499939 0.501210 -0.006805
C8    C     C_1   0.939980 0.499599 0.498641 -0.006444
C9    C     C_2   0.487462 0.115085 0.407027 -0.462016
C10   C     C_2   0.517304 0.884912 0.592478 -0.444349
C11   C     C_2   0.522508 0.067078 0.512047 0.379951
C12   C     C_2   0.482345 0.933253 0.488138 0.398541
C13   C     C_2   0.516463 0.502060 0.079406 0.121938
C14   C     C_2   0.490732 0.489638 0.918999 0.119451
Cu1   Cu    Cu3+1 0.519790 0.521810 0.644910 0.966422
Cu2   Cu    Cu3+1 0.480210 0.478190 0.355090 0.964859
H1    H     H_    0.562443 0.947083 0.700908 0.152694
H2    H     H_    0.444698 0.052106 0.297704 0.147248
H3    H     H_    0.417818 0.425117 0.847265 0.136166
H4    H     H_    0.594972 0.557047 0.148106 0.135322
N1    N     N_2   0.450460 0.445430 0.137370 -0.024723
N2    N     N_2   0.549540 0.554570 0.862630 -0.031605
O1    O     O_R   0.510560 0.332330 0.577400 -0.540389
O2    O     O_R   0.489440 0.667670 0.422600 -0.521675
O3    O     O_R   0.477140 0.295500 0.332650 -0.608996
O4    O     O_R   0.522860 0.704500 0.667350 -0.621497
O5    O     O_R   0.353910 0.518430 0.622380 -0.588844
O6    O     O_R   0.646090 0.481570 0.377620 -0.597825
O7    O     O_R   0.320490 0.481600 0.377630 -0.570467
O8    O     O_R   0.679510 0.518400 0.622370 -0.551908
O9    O     O_3   0.415704 0.855490 0.354318 -0.601031
C15   C     C_3   0.298031 0.884920 0.355260 0.032226
H5    H     H_    0.262208 0.882220 0.243473 0.161572
H6    H     H_    0.285179 0.984362 0.435238 0.118551
C16   C     C_3   0.229131 0.782296 0.386195 -0.287544
H7    H     H_    0.239836 0.683950 0.303991 0.259940
H8    H     H_    0.262506 0.785164 0.498708 0.196905
C17   C     C_3   0.100547 0.806446 0.376860 -0.937973
H9    H     H_    0.087842 0.904227 0.458528 0.255591
H10   H     H_    0.053116 0.731632 0.401593 0.266633
H11   H     H_    0.064056 0.800391 0.263967 0.259523
O10   O     O_3   0.587077 0.144112 0.648018 -0.619512
C18   C     C_3   0.703317 0.165107 0.631430 0.114456
H12   H     H_    0.739948 0.257047 0.723336 0.183770
H13   H     H_    0.711016 0.179697 0.527048 0.117267
C19   C     C_3   0.775880 0.053674 0.642175 -0.401429
H14   H     H_    0.769062 0.041454 0.747700 0.221687
H15   H     H_    0.742705 0.961328 0.548630 0.214594
C20   C     C_3   0.903005 0.080809 0.636737 -0.914682
H16   H     H_    0.912306 0.089176 0.529939 0.256311
H17   H     H_    0.953234 0.999351 0.647020 0.256750
H18   H     H_    0.939051 0.172481 0.729427 0.259165
O11   O     O_3   0.647689 0.620584 0.949499 -0.545381
C21   C     C_3   0.642300 0.752221 0.965568 0.204028
H19   H     H_    0.551445 0.781193 0.951976 0.146551
H20   H     H_    0.688966 0.768953 0.882793 0.158775
C22   C     C_3   0.701729 0.839108 0.120882 -0.411997
H21   H     H_    0.656923 0.820941 0.204434 0.235363
H22   H     H_    0.793294 0.814702 0.137409 0.229203
C23   C     C_3   0.698938 0.983314 0.144719 -0.925509
H23   H     H_    0.745580 0.004592 0.064649 0.253602
H24   H     H_    0.741765 0.043582 0.258669 0.257661
H25   H     H_    0.608113 0.010315 0.130484 0.265315
O12   O     O_3   0.343256 0.405055 0.058349 -0.546193
C24   C     C_3   0.315446 0.276868 0.046591 0.177249
H26   H     H_    0.226374 0.247999 0.983458 0.125178
H27   H     H_    0.310721 0.272466 0.155759 0.177118
C25   C     C_3   0.397085 0.178627 0.961605 -0.378937
H28   H     H_    0.399472 0.186457 0.852876 0.231146
H29   H     H_    0.486323 0.200277 0.025041 0.232922
C26   C     C_3   0.356964 0.039110 0.935880 -0.938492
H30   H     H_    0.351996 0.029381 0.043008 0.250380
H31   H     H_    0.419481 0.970930 0.879312 0.261724
H32   H     H_    0.270518 0.011698 0.865240 0.257439

loop_
_geom_bond_atom_site_label_1
_geom_bond_atom_site_label_2
_ccdc_geom_bond_type
Cu2   O6    S    
C26   H32   S    
C1    O3    A    
C11   C12   S    
C20   H16   S    
Cu2   N1    S    
C9    C11   D    
C21   H19   S    
Cu1   O5    S    
O9    C15   S    
C18   H12   S    
C24   C25   S    
C21   C22   S    
C15   H5    S    
C14   N2    D    
Cu1   O1    S    
C13   N1    D    
C26   H30   S    
C2    O4    A    
C13   C14   S    
O12   C24   S    
C23   H24   S    
C17   H10   S    
C18   H13   S    
C19   C20   S    
C3    O7    A    
C22   H21   S    
C10   C12   D    
Cu1   O8    S    
C23   H25   S    
C4    C6    S    
C4    O6    A    
C1    O1    A    
N2    O11   S    
C19   H15   S    
C3    O5    A    
C25   C26   S    
C12   O9    S    
C2    O2    A    
C17   H9    S    
C18   C19   S    
C21   H20   S    
C22   H22   S    
C24   H27   S    
O10   C18   S    
C10   H1    S    
Cu1   Cu2   S    
C2    C10   S    
C15   C16   S    
C3    C5    S    
C9    H2    S    
C7    C8    S    
C16   C17   S    
C1    C9    S    
C17   H11   S    
Cu2   O2    S    
C24   H26   S    
C26   H31   S    
Cu2   O3    S    
C5    C7    T    
C25   H29   S    
C19   H14   S    
Cu1   O4    S    
C22   C23   S    
C6    C8    T    
C11   O10   S    
C13   H4    S    
C16   H8    S    
Cu2   O7    S    
O11   C21   S    
C14   H3    S    
C25   H28   S    
Cu1   N2    S    
C4    O8    A    
C16   H7    S    
C20   H18   S    
C23   H23   S    
C20   H17   S    
N1    O12   S    
C15   H6    S    
