data_mof_unit_59175.cif
_audit_creation_date              2012-12-10T18:59:13-0500
_audit_creation_method            fapswitch 2.2
_symmetry_space_group_name_H-M    P1
_symmetry_Int_Tables_number       1
_space_group_crystal_system       triclinic
_cell_length_a                    10.856022
_cell_length_b                    10.775524
_cell_length_c                    9.606582
_cell_angle_alpha                 88.521051
_cell_angle_beta                  89.045353
_cell_angle_gamma                 90.685289
_cell_volume                      1123.15489195

loop_
_atom_site_label
_atom_site_type_symbol
_atom_type_description
_atom_site_fract_x
_atom_site_fract_y
_atom_site_fract_z
_atom_type_partial_charge
C1    C     C_R   0.499571 0.262627 0.500927 0.790179
C2    C     C_R   0.062459 0.403021 0.590723 0.094441
C3    C     C_R   0.128228 0.485657 0.499533 -0.094275
C4    C     C_R   0.065164 0.560470 0.404345 -0.181951
C5    C     C_R   0.937777 0.558615 0.403301 -0.187219
C6    C     C_R   0.870695 0.486230 0.501528 -0.091684
C7    C     C_R   0.597637 0.062994 0.553548 0.105477
C8    C     C_R   0.499586 0.129221 0.498942 -0.057913
C9    C     C_R   0.412872 0.066171 0.418542 -0.174632
C10   C     C_R   0.414024 0.936388 0.414805 -0.167535
C11   C     C_R   0.501396 0.870484 0.492308 -0.068718
C12   C     C_R   0.262459 0.495797 0.500476 0.771569
C13   C     C_R   0.597072 0.935623 0.552535 0.125935
C14   C     C_3   0.654470 0.924216 0.691755 -0.444080
C15   C     C_3   0.658242 0.065218 0.691212 -0.424355
C16   C     C_R   0.555806 0.594588 0.069587 0.235272
C17   C     C_R   0.439119 0.411964 0.080706 -0.055970
C18   C     C_R   0.442625 0.408161 0.934159 0.229759
C19   C     C_R   0.556059 0.594400 0.922160 0.191739
C20   C     C_3   0.690426 0.625993 0.914944 -0.498570
C21   C     C_3   0.688987 0.629367 0.072555 -0.059231
C22   C     C_R   0.499148 0.737233 0.498254 0.808007
C23   C     C_R   0.737176 0.494939 0.499964 0.796199
C24   C     C_R   0.123057 0.311320 0.669399 -0.188821
C25   C     C_R   0.060394 0.241469 0.772675 -0.116910
C26   C     C_R   0.935438 0.258564 0.795178 0.174961
C27   C     C_R   0.870238 0.335145 0.704092 -0.257088
C28   C     C_R   0.932524 0.408807 0.599418 0.078848
Cu1   Cu    Cu3+1 0.499990 0.499980 0.640670 0.969890
Cu2   Cu    Cu3+1 0.500010 0.500020 0.359330 0.976410
H1    H     H_    0.114831 0.622052 0.331563 0.163273
H2    H     H_    0.747452 0.882381 0.686176 0.204805
H3    H     H_    0.600551 0.105569 0.774365 0.252166
H4    H     H_    0.753346 0.103021 0.680497 0.212977
H5    H     H_    0.392981 0.338952 0.141748 0.172614
H6    H     H_    0.746918 0.549060 0.874408 0.212319
H7    H     H_    0.709667 0.717192 0.863102 0.212899
H8    H     H_    0.746549 0.556139 0.121323 0.173521
H9    H     H_    0.218728 0.292446 0.649103 0.172208
H10   H     H_    0.108722 0.174373 0.836212 0.187537
H11   H     H_    0.771834 0.333937 0.718541 0.187007
H12   H     H_    0.891258 0.618167 0.328940 0.175516
H13   H     H_    0.341924 0.116657 0.363826 0.151541
H14   H     H_    0.343540 0.887796 0.358250 0.152114
H15   H     H_    0.590257 0.883389 0.772367 0.225057
N1    N     N_R   0.500790 0.500930 0.147930 -0.222221
N2    N     N_R   0.500790 0.500890 0.852020 -0.201188
O1    O     O_R   0.500000 0.319640 0.618810 -0.564688
O2    O     O_R   0.500010 0.319680 0.381230 -0.578938
O3    O     O_R   0.319640 0.499980 0.618820 -0.560786
O4    O     O_R   0.319650 0.500020 0.381230 -0.583289
O5    O     O_R   0.499990 0.680320 0.618770 -0.578241
O6    O     O_R   0.500000 0.680360 0.381190 -0.557102
O7    O     O_R   0.680350 0.499980 0.618770 -0.596366
O8    O     O_R   0.680360 0.500020 0.381180 -0.571613
I1    I     I_    0.374619 0.234471 0.872019 -0.423874
I2    I     I_    0.716253 0.812306 0.149693 -0.337247
I3    I     I_    0.846410 0.169025 0.968226 -0.359737

loop_
_geom_bond_atom_site_label_1
_geom_bond_atom_site_label_2
_ccdc_geom_bond_type
C12   O3    A    
C5    H12   S    
C1    O1    A    
C23   O8    A    
Cu1   Cu2   S    
C22   O6    A    
C1    C8    S    
C11   C13   A    
C9    C10   A    
C27   H11   S    
C11   C22   S    
C19   C20   S    
C18   I1    S    
Cu2   O4    S    
C18   N2    A    
C24   H9    S    
C7    C15   S    
C17   C18   A    
C25   C26   A    
C7    C8    A    
C13   C14   S    
C24   C25   A    
C21   I2    S    
C20   H7    S    
C26   I3    S    
C26   C27   A    
C16   C21   S    
Cu1   N2    S    
C16   C19   A    
C6    C23   S    
Cu2   O2    S    
Cu2   N1    S    
C2    C3    A    
C14   H15   S    
Cu1   O3    S    
C25   H10   S    
C2    C24   A    
C5    C6    A    
Cu2   O6    S    
C19   N2    A    
C9    H13   S    
C4    H1    S    
C10   C11   A    
Cu1   O1    S    
C10   H14   S    
C3    C4    A    
C20   H6    S    
C15   H4    S    
C7    C13   A    
C12   O4    A    
C17   N1    A    
C23   O7    A    
C22   O5    A    
Cu1   O7    S    
C16   N1    A    
C27   C28   A    
C14   C15   S    
C4    C5    A    
C2    C28   A    
C3    C12   S    
C17   H5    S    
C20   C21   S    
C1    O2    A    
Cu2   O8    S    
C15   H3    S    
C6    C28   A    
C21   H8    S    
C14   H2    S    
C8    C9    A    
Cu1   O5    S    
