data_mof_unit_54620.cif
_audit_creation_date              2012-12-10T17:36:21-0500
_audit_creation_method            fapswitch 2.2
_symmetry_space_group_name_H-M    P1
_symmetry_Int_Tables_number       1
_space_group_crystal_system       triclinic
_cell_length_a                    12.33038
_cell_length_b                    13.125949
_cell_length_c                    15.86713
_cell_angle_alpha                 77.724761
_cell_angle_beta                  101.159702
_cell_angle_gamma                 116.725905
_cell_volume                      2227.11726742

loop_
_atom_site_label
_atom_site_type_symbol
_atom_type_description
_atom_site_fract_x
_atom_site_fract_y
_atom_site_fract_z
_atom_type_partial_charge
C1    C     C_R   0.854734 0.286175 0.507710 0.779249
C2    C     C_R   0.227257 0.835333 0.469911 -0.155541
C3    C     C_R   0.813839 0.081730 0.560810 -0.188315
C4    C     C_R   0.999762 0.500059 0.659486 0.865457
C5    C     C_R   0.734905 0.964758 0.573142 0.196730
C6    C     C_R   0.610811 0.929342 0.542671 -0.122227
C7    C     C_R   0.565021 0.009847 0.499087 0.070213
C8    C     C_R   0.649665 0.123780 0.472828 0.074520
C9    C     C_R   0.438314 0.977848 0.473952 -0.021725
C10   C     C_R   0.402143 0.049263 0.405188 0.123540
C11   C     C_R   0.488804 0.155653 0.371308 -0.215318
C12   C     C_3   0.129663 0.587796 0.053646 -0.363126
C13   C     C_R   0.610430 0.193612 0.405753 -0.180814
C14   C     C_R   0.345717 0.877857 0.514083 0.272722
C15   C     C_R   0.193937 0.903945 0.399404 -0.259665
C16   C     C_R   0.145003 0.713544 0.488227 0.886133
C17   C     C_R   0.772320 0.162419 0.511726 -0.150968
C18   C     C_R   0.345333 0.327291 0.637560 -0.279745
C19   C     C_R   0.760777 0.646828 0.384103 0.084091
C20   C     C_R   0.665369 0.679942 0.359256 -0.256717
C21   C     C_R   0.561647 0.624896 0.403088 -0.198043
C22   C     C_R   0.552225 0.535594 0.472883 -0.005578
C23   C     C_3   0.001162 0.506333 0.081994 0.184734
C24   C     C_R   0.652964 0.505243 0.496452 0.289711
C25   C     C_R   0.447386 0.475679 0.520262 -0.036334
C26   C     C_R   0.446100 0.387593 0.590096 0.168134
C27   C     C_R   0.545404 0.360166 0.612452 -0.259043
C28   C     C_R   0.000519 0.500474 0.340392 0.801889
C29   C     C_R   0.646525 0.417840 0.566902 -0.167989
C30   C     C_R   0.342789 0.498689 0.501665 0.060489
C31   C     C_R   0.245753 0.354141 0.615997 0.095306
C32   C     C_3   0.134367 0.576296 0.959397 -0.027541
C33   C     C_3   0.957850 0.383936 0.964117 -0.482821
C34   C     C_3   0.908139 0.551009 0.028429 -0.384499
C35   C     C_3   0.963750 0.383209 0.062672 -0.386435
C36   C     C_1   0.001671 0.501978 0.250615 -0.170042
C37   C     C_3   0.000748 0.509870 0.915233 0.173326
C38   C     C_3   0.906474 0.556039 0.928350 0.535833
C39   C     C_1   0.001778 0.503863 0.174727 -0.071501
C40   C     C_1   0.000782 0.505626 0.823669 -0.038484
C41   C     C_1   0.000363 0.502430 0.748682 -0.095394
C42   C     C_R   0.279790 0.012647 0.369825 -0.185718
Cu1   Cu    Cu3+1 0.098280 0.475420 0.519630 0.979246
Cu2   Cu    Cu3+1 0.901720 0.524580 0.480370 0.938365
H1    H     H_    0.200599 0.565870 0.097655 0.158746
H2    H     H_    0.673884 0.275178 0.375132 0.170953
H3    H     H_    0.167534 0.307901 0.652302 0.122335
H4    H     H_    0.545186 0.293232 0.666062 0.165915
H5    H     H_    0.343643 0.259816 0.691008 0.148199
H6    H     H_    0.335660 0.563916 0.449747 0.113717
H7    H     H_    0.841047 0.690163 0.349808 0.125136
H8    H     H_    0.490697 0.654165 0.381144 0.135261
H9    H     H_    0.671852 0.748538 0.305863 0.149342
H10   H     H_    0.717938 0.390964 0.589742 0.202807
H11   H     H_    0.863396 0.327788 0.938498 0.215594
H12   H     H_    0.150979 0.678179 0.059136 0.209029
H13   H     H_    0.016532 0.344275 0.953913 0.177608
H14   H     H_    0.031160 0.350356 0.098884 0.178623
H15   H     H_    0.873021 0.323354 0.085028 0.185733
H16   H     H_    0.929441 0.636283 0.045535 0.215410
H17   H     H_    0.178640 0.749323 0.909770 0.311048
H18   H     H_    0.210804 0.678294 0.847736 0.290235
H19   H     H_    0.223196 0.861161 0.661289 0.353936
H20   H     H_    0.841308 0.882463 0.581268 0.218833
H21   H     H_    0.710855 0.800294 0.626018 0.248874
H22   H     H_    0.040063 0.876611 0.901551 0.383231
H23   H     H_    0.816092 0.493073 0.049498 0.154223
H24   H     H_    0.775955 0.487831 0.826540 0.244194
H25   H     H_    0.717722 0.500340 0.909014 0.248358
H26   H     H_    0.102156 0.872350 0.365906 0.163344
H27   H     H_    0.462349 0.210242 0.318284 0.143229
H28   H     H_    0.251879 0.065482 0.316147 0.144658
H29   H     H_    0.907965 0.109283 0.589644 0.167374
H30   H     H_    0.551562 0.838400 0.549981 0.170568
H31   H     H_    0.183807 0.521646 0.964296 0.171457
N1    N     N_R   0.246300 0.438200 0.549400 -0.177201
N2    N     N_R   0.754300 0.561180 0.451130 -0.207231
N3    N     N_3   0.209703 0.687425 0.911325 -0.544224
N4    N     N_3   0.781512 0.883504 0.619318 -0.512451
N5    N     N_3   0.782790 0.478192 0.894256 -0.624085
O1    O     O_R   0.972520 0.318130 0.524690 -0.590256
O2    O     O_2   0.466400 0.916468 0.674990 -0.275785
O3    O     O_3   0.233338 0.788834 0.669709 -0.520571
O4    O     O_2   0.992252 0.726404 0.790806 -0.297253
O5    O     O_2   0.817355 0.713010 0.850137 -0.265170
O6    O     O_3   0.028880 0.801656 0.937418 -0.590374
O7    O     O_R   0.806530 0.359650 0.491530 -0.605343
O8    O     O_R   0.083030 0.479240 0.637150 -0.555029
O9    O     O_R   0.917040 0.520750 0.603990 -0.589003
O10   O     O_R   0.193470 0.640350 0.508470 -0.544367
O11   O     O_R   0.027480 0.681870 0.475310 -0.591070
O12   O     O_R   0.082960 0.479250 0.396010 -0.586960
O13   O     O_R   0.916970 0.520760 0.362850 -0.591161
O14   O     O_2   0.386976 0.720405 0.640460 -0.260768
S1    S     S_3+6 0.363109 0.825689 0.627268 0.004533
S2    S     S_3+6 0.936086 0.701848 0.873112 -0.040304

loop_
_geom_bond_atom_site_label_1
_geom_bond_atom_site_label_2
_ccdc_geom_bond_type
C27   H4    S    
C1    O7    A    
C33   H11   S    
C8    C13   A    
H21   N4    S    
C27   C29   A    
C19   C20   A    
C18   C26   A    
Cu1   Cu2   S    
C32   H31   S    
C7    C8    A    
C16   O10   A    
C12   C23   S    
C26   C27   A    
C35   H14   S    
Cu1   O8    S    
Cu2   N2    S    
C37   C40   S    
C13   H2    S    
O5    S2    D    
C11   H27   S    
C10   C42   A    
C4    C41   S    
C1    O1    A    
Cu1   N1    S    
C35   H15   S    
O4    S2    D    
C19   N2    A    
C24   C29   A    
Cu2   O13   S    
C22   C25   A    
C5    N4    S    
Cu2   O7    S    
C2    C16   S    
C9    C10   A    
C30   H6    S    
C31   H3    S    
C21   C22   A    
C12   C32   S    
C34   H16   S    
C2    C14   A    
C6    H30   S    
Cu1   O10   S    
C20   H9    S    
C25   C26   A    
C33   C37   S    
H19   O3    S    
C28   O13   A    
C9    C14   A    
C37   C38   S    
C30   N1    A    
H17   N3    S    
C23   C34   S    
O3    S1    S    
C42   H28   S    
C28   O12   A    
C32   C37   S    
C2    C15   A    
C12   H12   S    
Cu2   O11   S    
O6    S2    S    
C40   C41   T    
C23   C35   S    
Cu1   O1    S    
H20   N4    S    
C22   C24   A    
H24   N5    S    
C14   S1    S    
C4    O9    A    
C25   C30   A    
C7    C9    A    
C15   H26   S    
C33   H13   S    
O2    S1    D    
C34   C38   S    
H18   N3    S    
C36   C39   T    
C8    C17   A    
C15   C42   A    
C12   H1    S    
C3    C5    A    
C34   H23   S    
H22   O6    S    
C6    C7    A    
C4    O8    A    
C1    C17   S    
Cu1   O12   S    
C11   C13   A    
C31   N1    A    
C5    C6    A    
C38   N5    S    
C23   C39   S    
C33   C35   S    
C3    C17   A    
O14   S1    D    
C3    H29   S    
C10   C11   A    
C32   N3    S    
C19   H7    S    
C24   N2    A    
C20   C21   A    
C28   C36   S    
C16   O11   A    
C29   H10   S    
C38   S2    S    
H25   N5    S    
C18   C31   A    
C21   H8    S    
Cu2   O9    S    
C18   H5    S    
