data_mof_unit_42304.cif
_audit_creation_date              2012-12-10T17:01:38-0500
_audit_creation_method            fapswitch 2.2
_symmetry_space_group_name_H-M    P1
_symmetry_Int_Tables_number       1
_space_group_crystal_system       triclinic
_cell_length_a                    9.8735
_cell_length_b                    11.038015
_cell_length_c                    12.993453
_cell_angle_alpha                 90.1372
_cell_angle_beta                  75.311844
_cell_angle_gamma                 111.14034
_cell_volume                      1271.37290383

loop_
_atom_site_label
_atom_site_type_symbol
_atom_type_description
_atom_site_fract_x
_atom_site_fract_y
_atom_site_fract_z
_atom_type_partial_charge
C1    C     C_R   0.439543 0.253927 0.507735 0.859527
C2    C     C_R   0.560474 0.746072 0.492128 0.854666
C3    C     C_2   0.083501 0.513856 0.493785 0.096689
C4    C     C_2   0.917333 0.492610 0.511400 0.099076
C5    C     C_R   0.473074 0.495803 0.702800 0.796593
C6    C     C_R   0.526957 0.504174 0.297210 0.797584
C7    C     C_R   0.542377 0.505737 0.182737 -0.055479
C8    C     C_R   0.457801 0.494096 0.817283 -0.043648
C9    C     C_R   0.306020 0.481060 0.998332 -0.207907
C10   C     C_R   0.694281 0.518668 0.001721 -0.217703
C11   C     C_R   0.319608 0.481373 0.889318 -0.204365
C12   C     C_R   0.680742 0.518720 0.110764 -0.192887
C13   C     C_R   0.582393 0.506093 0.854992 -0.266350
C14   C     C_R   0.417765 0.493393 0.145001 -0.257460
C15   C     C_R   0.569759 0.506054 0.963909 0.176760
C16   C     C_R   0.430474 0.493448 0.036106 0.171433
C17   C     C_2   0.405525 0.114398 0.511660 -0.357795
C18   C     C_2   0.594538 0.885603 0.487827 -0.351006
C19   C     C_2   0.516776 0.069629 0.497727 -0.142541
C20   C     C_2   0.483351 0.930386 0.501244 -0.153210
Cu1   Cu    Cu3+1 0.647370 0.522180 0.481340 0.956865
Cu2   Cu    Cu3+1 0.352630 0.477820 0.518660 0.958730
H1    H     H_    0.310737 0.483764 0.200129 0.167477
H2    H     H_    0.689354 0.515587 0.799838 0.146573
H3    H     H_    0.778336 0.528412 0.138627 0.171953
H4    H     H_    0.222171 0.472288 0.861597 0.142514
H5    H     H_    0.198688 0.471429 0.052894 0.144860
H6    H     H_    0.801656 0.528400 0.947166 0.133311
H7    H     H_    0.366561 0.864110 0.515114 0.174615
H8    H     H_    0.633593 0.135912 0.483660 0.193280
H9    H     H_    0.711166 0.952144 0.473823 0.153008
H10   H     H_    0.288876 0.047837 0.525836 0.150329
H11   H     H_    0.836229 0.428584 0.580487 0.127454
H12   H     H_    0.167169 0.596666 0.439619 0.127759
N1    N     N_2   0.131210 0.444490 0.546730 -0.034934
N2    N     N_2   0.868790 0.555510 0.453270 -0.035073
O1    O     O_R   0.578710 0.332530 0.490040 -0.580317
O2    O     O_R   0.421290 0.667470 0.509960 -0.597374
O3    O     O_R   0.329810 0.295070 0.521560 -0.564671
O4    O     O_R   0.670190 0.704930 0.478440 -0.614486
O5    O     O_R   0.604230 0.515670 0.637800 -0.603329
O6    O     O_R   0.395770 0.484330 0.362200 -0.584890
O7    O     O_R   0.355330 0.478200 0.669330 -0.619750
O8    O     O_R   0.644670 0.521800 0.330670 -0.575220
O9    O     O_3   0.966474 0.609172 0.357134 -0.515337
C21   C     C_3   0.967456 0.734975 0.338649 0.205510
H13   H     H_    0.964744 0.787187 0.412310 0.136060
H14   H     H_    0.870989 0.729439 0.307423 0.177524
C22   C     C_3   0.112008 0.814451 0.254449 -0.894494
H15   H     H_    0.118316 0.766630 0.178988 0.256649
H16   H     H_    0.114124 0.913977 0.238363 0.215513
H17   H     H_    0.211478 0.822553 0.283183 0.251731
O10   O     O_3   0.025007 0.328362 0.593321 -0.509729
C23   C     C_3   0.037266 0.310799 0.697233 0.208254
H18   H     H_    0.059586 0.403143 0.736726 0.122854
H19   H     H_    0.127270 0.272320 0.695035 0.178278
C24   C     C_3   0.889008 0.211135 0.764632 -0.895645
H20   H     H_    0.862924 0.116736 0.728781 0.260810
H21   H     H_    0.897383 0.195477 0.846832 0.211779
H22   H     H_    0.796150 0.246934 0.769044 0.249583

loop_
_geom_bond_atom_site_label_1
_geom_bond_atom_site_label_2
_ccdc_geom_bond_type
C14   H1    S    
C5    C8    S    
C4    N2    D    
C23   H19   S    
C8    C13   A    
C1    O1    A    
N1    O10   S    
Cu1   O8    S    
C2    O2    A    
C1    C17   S    
C19   C20   S    
C3    H12   S    
C3    N1    D    
C12   H3    S    
C20   H7    S    
C22   H17   S    
C5    O7    A    
N2    O9    S    
Cu1   N2    S    
C6    O8    A    
O9    C21   S    
Cu2   N1    S    
C9    C11   A    
C21   C22   S    
C24   H20   S    
Cu2   O6    S    
Cu1   O4    S    
C10   C12   A    
C8    C11   A    
Cu1   O5    S    
Cu2   O3    S    
Cu1   Cu2   S    
C17   C19   D    
C9    C16   A    
Cu2   O7    S    
C6    C7    S    
C18   C20   D    
C10   C15   A    
C13   C15   A    
C7    C12   A    
C14   C16   A    
C24   H21   S    
C21   H13   S    
C2    C18   S    
C1    O3    A    
C15   C16   A    
Cu2   O2    S    
C21   H14   S    
C2    O4    A    
Cu1   O1    S    
C9    H5    S    
C22   H15   S    
C6    O6    A    
C10   H6    S    
C23   H18   S    
C17   H10   S    
C5    O5    A    
C4    H11   S    
C24   H22   S    
C18   H9    S    
C11   H4    S    
O10   C23   S    
C19   H8    S    
C7    C14   A    
C3    C4    S    
C13   H2    S    
C22   H16   S    
C23   C24   S    
