data_mof_unit_15278.cif
_audit_creation_date              2012-12-11T14:13:22-0500
_audit_creation_method            fapswitch 2.2
_symmetry_space_group_name_H-M    P1
_symmetry_Int_Tables_number       1
_space_group_crystal_system       triclinic
_cell_length_a                    17.339911
_cell_length_b                    17.339901
_cell_length_c                    17.27439
_cell_angle_alpha                 89.892064
_cell_angle_beta                  90.108049
_cell_angle_gamma                 90.025948
_cell_volume                      5193.91228884

loop_
_atom_site_label
_atom_site_type_symbol
_atom_type_description
_atom_site_fract_x
_atom_site_fract_y
_atom_site_fract_z
_atom_type_partial_charge
C1    C     C_R   0.579539 0.330909 0.144557 -0.050144
C2    C     C_R   0.168916 0.079537 0.644654 -0.048786
C3    C     C_R   0.891864 0.197317 0.597693 -0.098772
C4    C     C_R   0.831271 0.920856 0.644547 -0.045521
C5    C     C_R   0.079537 0.168916 0.355346 -0.048786
C6    C     C_R   0.197317 0.891864 0.402307 -0.098773
C7    C     C_R   0.920857 0.831271 0.355453 -0.045531
C8    C     C_R   0.803793 0.105516 0.396069 -0.117115
C9    C     C_R   0.605032 0.695303 0.104909 -0.093385
C10   C     C_R   0.327876 0.580444 0.141645 -0.028234
C11   C     C_R   0.394774 0.304766 0.105007 -0.088134
C12   C     C_R   0.695928 0.605761 0.104468 -0.117015
C13   C     C_R   0.665385 0.425783 0.146083 -0.009494
C14   C     C_R   0.580442 0.327879 0.858353 -0.028222
C15   C     C_R   0.304765 0.394773 0.894995 -0.088096
C16   C     C_R   0.425786 0.665381 0.853915 -0.009437
C17   C     C_R   0.695304 0.605033 0.895094 -0.093310
C18   C     C_R   0.074126 0.165598 0.645744 -0.018939
C19   C     C_R   0.802841 0.106359 0.597402 -0.094347
C20   C     C_R   0.925584 0.834340 0.645958 -0.011025
C21   C     C_R   0.195465 0.894355 0.604152 -0.092182
C22   C     C_R   0.106359 0.802841 0.402598 -0.094351
C23   C     C_R   0.414372 0.675152 0.139397 -0.041530
C24   C     C_R   0.834340 0.925584 0.354042 -0.011031
C25   C     C_R   0.894356 0.195464 0.395847 -0.092191
C26   C     C_R   0.165598 0.074126 0.354256 -0.018945
C27   C     C_R   0.634225 0.367544 0.190339 -0.015104
C28   C     C_R   0.680086 0.680877 0.125726 0.034723
C29   C     C_R   0.355119 0.643119 0.182354 -0.015676
C30   C     C_R   0.320021 0.319547 0.126528 0.031122
C31   C     C_R   0.680880 0.680088 0.874281 0.034701
C32   C     C_R   0.643115 0.355124 0.817641 -0.015682
C33   C     C_R   0.319546 0.320021 0.873471 0.031126
C34   C     C_R   0.304314 0.394828 0.105302 -0.109409
C35   C     C_R   0.367546 0.634222 0.809659 -0.015138
C36   C     C_R   0.180955 0.819156 0.624609 0.032703
C37   C     C_R   0.132357 0.134420 0.690144 -0.010711
C38   C     C_R   0.814338 0.183199 0.611382 0.051761
C39   C     C_R   0.867488 0.865703 0.690184 -0.015197
C40   C     C_R   0.134420 0.132357 0.309856 -0.010710
C41   C     C_R   0.183199 0.814338 0.388619 0.051756
C42   C     C_R   0.865704 0.867488 0.309815 -0.015191
C43   C     C_R   0.819156 0.180955 0.375390 0.032701
C44   C     C_2   0.812283 0.725747 0.845908 -0.109651
C45   C     C_R   0.605764 0.695930 0.895537 -0.117056
C46   C     C_2   0.363541 0.730218 0.705345 -0.102665
C47   C     C_2   0.187979 0.274510 0.845182 -0.111820
C48   C     C_2   0.640824 0.268319 0.705405 -0.111719
C49   C     C_2   0.730222 0.363541 0.294654 -0.102669
C50   C     C_2   0.274511 0.187980 0.154819 -0.111826
C51   C     C_2   0.268317 0.640826 0.294593 -0.111732
C52   C     C_2   0.725748 0.812280 0.154094 -0.109654
C53   C     C_2   0.230674 0.136637 0.206207 -0.101706
C54   C     C_2   0.773852 0.312451 0.346616 -0.116568
C55   C     C_2   0.769760 0.863471 0.205477 -0.104338
C56   C     C_R   0.675149 0.414376 0.860600 -0.041516
C57   C     C_2   0.217335 0.684749 0.345830 -0.092430
C58   C     C_2   0.312451 0.773850 0.653383 -0.116565
C59   C     C_2   0.863472 0.769760 0.794522 -0.104340
C60   C     C_2   0.684750 0.217335 0.654172 -0.092428
C61   C     C_2   0.136636 0.230673 0.793794 -0.101701
C62   C     C_2   0.735520 0.733902 0.840003 -0.099788
C63   C     C_2   0.342333 0.661221 0.733336 -0.154510
C64   C     C_2   0.264735 0.266085 0.839589 -0.105893
C65   C     C_2   0.678296 0.318928 0.750473 -0.109253
C66   C     C_2   0.661224 0.342332 0.266662 -0.154520
C67   C     C_R   0.394827 0.304315 0.894695 -0.109404
C68   C     C_2   0.266084 0.264736 0.160409 -0.105884
C69   C     C_2   0.318917 0.678302 0.249518 -0.109235
C70   C     C_2   0.733902 0.735518 0.160001 -0.099860
C71   C     C_2   0.161655 0.157827 0.233816 -0.154024
C72   C     C_2   0.764913 0.235702 0.341821 -0.096939
C73   C     C_2   0.838555 0.841928 0.233773 -0.150650
C74   C     C_2   0.239452 0.752930 0.375009 -0.168363
C75   C     C_2   0.235702 0.764911 0.658178 -0.096933
C76   C     C_2   0.841929 0.838554 0.766227 -0.150649
C77   C     C_2   0.752929 0.239452 0.624992 -0.168358
C78   C     C_R   0.330911 0.579538 0.855442 -0.050121
C79   C     C_2   0.157827 0.161655 0.766185 -0.154025
C80   C     C_2   0.551306 0.252203 0.158826 0.977418
C81   C     C_2   0.774213 0.574382 0.090238 0.943290
C82   C     C_2   0.445958 0.752639 0.152536 0.970772
C83   C     C_2   0.226163 0.426021 0.090192 0.939697
C84   C     C_2   0.574389 0.774217 0.909773 0.943298
C85   C     C_2   0.752635 0.445961 0.847458 0.970808
C86   C     C_2   0.426023 0.226163 0.909796 0.939679
C87   C     C_2   0.252209 0.551298 0.841166 0.977431
C88   C     C_2   0.073413 0.725861 0.588833 0.941850
C89   C     C_R   0.105516 0.803793 0.603931 -0.117116
C90   C     C_2   0.247133 0.050368 0.659671 0.977747
C91   C     C_2   0.927412 0.274202 0.586814 0.928138
C92   C     C_2   0.754153 0.952470 0.659872 0.973585
C93   C     C_2   0.050370 0.247135 0.340331 0.977725
C94   C     C_2   0.274202 0.927413 0.413187 0.928140
C95   C     C_2   0.952469 0.754152 0.340129 0.973590
C96   C     C_2   0.725861 0.073413 0.411166 0.941848
H1    H     H_    0.580339 0.751811 0.098721 0.139338
H2    H     H_    0.747364 0.081122 0.585623 0.145035
H3    H     H_    0.965538 0.791118 0.665105 0.103191
H4    H     H_    0.252022 0.918998 0.597776 0.142571
H5    H     H_    0.081122 0.747364 0.414378 0.145035
H6    H     H_    0.791118 0.965537 0.334895 0.103190
H7    H     H_    0.918999 0.252021 0.402222 0.142574
H8    H     H_    0.208584 0.033769 0.335600 0.104909
H9    H     H_    0.837208 0.679415 0.880011 0.141743
H10   H     H_    0.412114 0.761450 0.729414 0.141496
H11   H     H_    0.163169 0.320997 0.878869 0.141710
H12   H     H_    0.280287 0.544486 0.158272 0.111954
H13   H     H_    0.580499 0.255040 0.715380 0.136511
H14   H     H_    0.761454 0.412112 0.270583 0.141509
H15   H     H_    0.320999 0.163170 0.121134 0.141709
H16   H     H_    0.255045 0.580498 0.284623 0.136510
H17   H     H_    0.679416 0.837205 0.119990 0.141758
H18   H     H_    0.261666 0.087826 0.230172 0.145123
H19   H     H_    0.820828 0.337284 0.379812 0.138696
H20   H     H_    0.739038 0.912618 0.228781 0.141504
H21   H     H_    0.157399 0.666888 0.346597 0.148577
H22   H     H_    0.337285 0.820827 0.620188 0.138692
H23   H     H_    0.419231 0.248157 0.098686 0.144346
H24   H     H_    0.912619 0.739037 0.771218 0.141504
H25   H     H_    0.666891 0.157397 0.653410 0.148576
H26   H     H_    0.087824 0.261665 0.769830 0.145121
H27   H     H_    0.710630 0.777163 0.802143 0.171920
H28   H     H_    0.296799 0.629205 0.704795 0.190223
H29   H     H_    0.289379 0.222640 0.802059 0.176413
H30   H     H_    0.739494 0.329145 0.743008 0.168722
H31   H     H_    0.629207 0.296801 0.295206 0.190243
H32   H     H_    0.222636 0.289381 0.197936 0.176405
H33   H     H_    0.329125 0.739503 0.256977 0.168742
H34   H     H_    0.708197 0.466025 0.165402 0.102746
H35   H     H_    0.777163 0.710630 0.197861 0.171955
H36   H     H_    0.129953 0.203690 0.205358 0.189220
H37   H     H_    0.720940 0.210858 0.304853 0.174029
H38   H     H_    0.870098 0.795729 0.205963 0.188775
H39   H     H_    0.300216 0.766911 0.377501 0.192906
H40   H     H_    0.210858 0.720938 0.695145 0.174022
H41   H     H_    0.795729 0.870097 0.794037 0.188776
H42   H     H_    0.766910 0.300216 0.622495 0.192895
H43   H     H_    0.203691 0.129953 0.794642 0.189213
H44   H     H_    0.539027 0.144042 0.118308 0.325856
H45   H     H_    0.544484 0.280291 0.841724 0.111945
H46   H     H_    0.838873 0.489090 0.045871 0.355608
H47   H     H_    0.465390 0.858995 0.109856 0.325813
H48   H     H_    0.161184 0.506111 0.036691 0.353176
H49   H     H_    0.489077 0.838881 0.954092 0.355606
H50   H     H_    0.859005 0.465356 0.890117 0.325817
H51   H     H_    0.506116 0.161181 0.963290 0.353176
H52   H     H_    0.144043 0.539020 0.881669 0.325856
H53   H     H_    0.988498 0.662260 0.541307 0.354495
H54   H     H_    0.355597 0.037190 0.620301 0.326341
H55   H     H_    0.013565 0.336542 0.540199 0.354986
H56   H     H_    0.248156 0.419230 0.901319 0.144331
H57   H     H_    0.645631 0.968437 0.621194 0.324042
H58   H     H_    0.037194 0.355598 0.379706 0.326340
H59   H     H_    0.336541 0.013565 0.459804 0.354985
H60   H     H_    0.968437 0.645631 0.378810 0.324045
H61   H     H_    0.662260 0.988499 0.458695 0.354495
H62   H     H_    0.466033 0.708188 0.834592 0.102765
H63   H     H_    0.751811 0.580339 0.901283 0.139339
H64   H     H_    0.033769 0.208584 0.664400 0.104908
N1    N     N_R   0.574080 0.369570 0.076720 -0.056526
N2    N     N_R   0.130430 0.074080 0.576720 -0.055746
N3    N     N_R   0.925920 0.130430 0.576720 -0.072445
N4    N     N_R   0.869570 0.925920 0.576720 -0.057477
N5    N     N_R   0.074080 0.130430 0.423280 -0.055744
N6    N     N_R   0.130430 0.925920 0.423280 -0.072445
N7    N     N_R   0.925920 0.869570 0.423280 -0.057475
N8    N     N_R   0.869570 0.074080 0.423280 -0.070019
N9    N     N_R   0.574050 0.630410 0.076720 -0.063731
N10   N     N_R   0.369590 0.574050 0.076720 -0.037163
N11   N     N_R   0.425950 0.369590 0.076720 -0.063726
N12   N     N_R   0.630430 0.574080 0.076720 -0.069819
N13   N     N_R   0.630410 0.425950 0.076720 -0.034322
N14   N     N_R   0.574050 0.369590 0.923280 -0.037161
N15   N     N_R   0.369590 0.425950 0.923280 -0.063734
N16   N     N_R   0.425950 0.630410 0.923280 -0.034313
N17   N     N_R   0.630410 0.574050 0.923280 -0.063732
N18   N     N_R   0.074050 0.130410 0.576720 -0.034875
N19   N     N_R   0.869590 0.074050 0.576720 -0.066290
N20   N     N_R   0.925950 0.869590 0.576720 -0.034157
N21   N     N_R   0.130410 0.925950 0.576720 -0.063385
N22   N     N_R   0.074050 0.869590 0.423280 -0.066290
N23   N     N_R   0.425920 0.630430 0.076720 -0.061063
N24   N     N_R   0.869590 0.925950 0.423280 -0.034157
N25   N     N_R   0.925950 0.130410 0.423280 -0.063383
N26   N     N_R   0.130410 0.074050 0.423280 -0.034875
N27   N     N_R   0.369570 0.425920 0.076720 -0.068989
N28   N     N_R   0.574080 0.630430 0.923280 -0.069821
N29   N     N_R   0.630430 0.425920 0.923280 -0.061067
N30   N     N_R   0.425920 0.369570 0.923280 -0.068989
N31   N     N_R   0.369570 0.574080 0.923280 -0.056537
N32   N     N_R   0.074080 0.869570 0.576720 -0.070019
Ni1   Ni    Ni4+2 0.500000 0.370760 0.000000 0.276083
Ni2   Ni    Ni4+2 0.629240 0.500000 0.000000 0.275677
Ni3   Ni    Ni4+2 0.500000 0.629240 0.000000 0.275688
Ni4   Ni    Ni4+2 0.370760 0.500000 0.000000 0.276072
Ni5   Ni    Ni4+2 0.000000 0.870760 0.500000 0.275137
Ni6   Ni    Ni4+2 0.129240 0.000000 0.500000 0.275425
Ni7   Ni    Ni4+2 0.000000 0.129240 0.500000 0.275428
Ni8   Ni    Ni4+2 0.870760 0.000000 0.500000 0.275137
O1    O     O_2   0.522442 0.235494 0.221162 -0.641084
O2    O     O_R   0.506049 0.783011 0.951189 -0.780019
O3    O     O_2   0.769830 0.471470 0.783743 -0.630697
O4    O     O_R   0.807487 0.443027 0.906487 -0.769647
O5    O     O_2   0.396653 0.169500 0.879807 -0.631068
O6    O     O_R   0.489141 0.216982 0.959112 -0.785440
O7    O     O_2   0.235517 0.522410 0.778840 -0.641091
O8    O     O_R   0.196113 0.559926 0.898272 -0.767886
O9    O     O_2   0.106387 0.668253 0.612754 -0.627901
O10   O     O_R   0.005369 0.718024 0.546278 -0.785335
O11   O     O_2   0.262800 0.020882 0.722086 -0.640213
O12   O     O_R   0.559916 0.196120 0.101705 -0.767874
O13   O     O_R   0.303965 0.058813 0.603225 -0.767810
O14   O     O_2   0.901259 0.330681 0.619793 -0.632125
O15   O     O_R   0.993007 0.281796 0.540830 -0.781991
O16   O     O_2   0.740169 0.982978 0.722021 -0.640971
O17   O     O_R   0.696400 0.945159 0.603984 -0.772521
O18   O     O_2   0.020891 0.262806 0.277913 -0.640207
O19   O     O_R   0.058812 0.303963 0.396782 -0.767807
O20   O     O_2   0.330680 0.901261 0.380207 -0.632112
O21   O     O_R   0.281795 0.993007 0.459173 -0.781999
O22   O     O_2   0.982975 0.740166 0.277979 -0.640965
O23   O     O_2   0.831348 0.608097 0.114228 -0.631671
O24   O     O_R   0.945160 0.696401 0.396020 -0.772516
O25   O     O_2   0.668253 0.106386 0.387242 -0.627889
O26   O     O_R   0.718024 0.005371 0.453723 -0.785339
O27   O     O_R   0.783006 0.506071 0.048772 -0.780056
O28   O     O_2   0.471430 0.769850 0.216263 -0.630675
O29   O     O_R   0.443066 0.807474 0.093488 -0.769655
O30   O     O_2   0.169498 0.396643 0.120165 -0.631066
O31   O     O_R   0.216985 0.489142 0.040881 -0.785473
O32   O     O_2   0.608137 0.831355 0.885833 -0.631667

loop_
_geom_bond_atom_site_label_1
_geom_bond_atom_site_label_2
_ccdc_geom_bond_type
C78   C87   S    
C36   C89   A    
C79   H43   S    
N18   Ni7   S    
C6    N6    A    
C11   N11   A    
C59   H24   S    
C23   C82   S    
C67   C86   S    
N10   N23   A    
C24   N24   A    
C24   C42   A    
H48   O31   S    
C10   H12   S    
C34   N27   A    
N6    N22   A    
C8    C43   A    
N11   Ni1   S    
C11   H23   S    
C2    N2    A    
N15   N30   A    
C63   H28   S    
C56   C85   S    
C67   N30   A    
H46   O27   S    
C20   N20   A    
C21   C36   A    
C44   H9    S    
C51   H16   S    
C21   N21   A    
C37   C79   S    
C9    N9    A    
H44   O12   S    
C43   C72   S    
N17   N28   A    
C12   C28   A    
C23   C29   A    
C12   N12   A    
C40   C71   S    
C18   C37   A    
C91   O14   D    
N26   Ni6   S    
N5    Ni7   S    
C16   C35   A    
H49   O2    S    
N27   Ni4   S    
N21   N32   A    
C7    C42   A    
C22   C41   A    
C55   H20   S    
C44   C59   S    
C17   N17   A    
C49   C54   S    
C58   H22   S    
C66   H31   S    
C3    C91   S    
H54   O13   S    
C2    C90   S    
N31   Ni4   S    
C62   H27   S    
C91   O15   S    
N20   Ni5   S    
C8    N8    A    
C85   O4    S    
C26   H8    S    
C41   C74   S    
N12   Ni2   S    
N29   Ni2   S    
C1    C80   S    
C80   O1    D    
N28   Ni3   S    
C3    C38   A    
N24   Ni8   S    
C6    C41   A    
C8    C96   S    
C94   O21   S    
N23   Ni3   S    
C13   H34   S    
C4    N4    A    
C51   C57   S    
C5    N5    A    
C48   C65   D    
C81   O27   S    
C68   H32   S    
H57   O17   S    
N4    N20   A    
C52   C55   S    
C3    N3    A    
C80   O12   S    
C88   C89   S    
C16   N16   A    
C35   C63   S    
C48   H13   S    
C71   H36   S    
C14   H45   S    
N3    Ni7   S    
C88   O10   S    
C46   C58   S    
C70   H35   S    
C31   C62   S    
C86   O6    S    
C92   O17   S    
N22   Ni5   S    
C17   H63   S    
N21   Ni6   S    
C86   O5    D    
C15   H56   S    
C19   H2    S    
C58   C75   D    
C48   C60   S    
C29   C69   S    
C81   O23   D    
C28   C70   S    
C60   C77   D    
C50   C53   S    
C49   C66   D    
C30   C34   A    
C16   H62   S    
C95   O22   D    
C52   C70   D    
C77   H42   S    
C11   C30   A    
N9    Ni3   S    
N17   Ni2   S    
C47   C64   D    
C21   H4    S    
C85   O3    D    
C75   H40   S    
C25   H7    S    
N16   N31   A    
C6    C94   S    
C76   H41   S    
C82   O28   D    
C54   H19   S    
H47   O29   S    
C93   O18   D    
C96   O26   S    
C57   C74   D    
H51   O6    S    
C13   N13   A    
N6    Ni6   S    
C23   N23   A    
C36   C75   S    
N1    N13   A    
N7    N24   A    
C4    C39   A    
C74   H39   S    
C94   O20   D    
N7    Ni5   S    
N1    Ni1   S    
C39   C76   S    
N25   Ni7   S    
C96   O25   D    
C22   H5    S    
C87   O7    D    
C25   N25   A    
H61   O26   S    
C69   H33   S    
C25   C43   A    
C38   C77   S    
C82   O29   S    
C47   H11   S    
C88   O9    D    
N3    N19   A    
C17   C31   A    
N9    N12   A    
N30   Ni1   S    
C45   C84   S    
C34   C83   S    
C31   C45   A    
C53   C71   D    
C19   N19   A    
N15   Ni4   S    
C53   H18   S    
C33   C67   A    
C57   H21   S    
C84   O2    S    
C20   C39   A    
C7    N7    A    
C56   N29   A    
C42   C73   S    
C9    H1    S    
N8    N25   A    
N8    Ni8   S    
C13   C27   A    
C78   N31   A    
C95   O24   S    
C14   C32   A    
C15   C33   A    
C47   C61   S    
C5    C93   S    
C45   N28   A    
C83   O30   D    
N11   N27   A    
C10   N10   A    
C7    C95   S    
N2    Ni6   S    
C35   C78   A    
N5    N26   A    
C15   N15   A    
C46   C63   D    
H60   O24   S    
C44   C62   D    
C65   H30   S    
C32   C65   S    
C14   N14   A    
C27   C66   S    
N32   Ni5   S    
N10   Ni4   S    
C26   N26   A    
C2    C37   A    
C26   C40   A    
C72   H37   S    
C90   O11   D    
C20   H3    S    
C83   O31   S    
C61   C79   D    
C33   C64   S    
C52   H17   S    
C46   H10   S    
C50   H15   S    
C89   N32   A    
H53   O10   S    
C12   C81   S    
C92   O16   D    
C24   H6    S    
N16   Ni3   S    
C60   H25   S    
C84   O32   D    
C87   O8    S    
N2    N18   A    
C18   H64   S    
C93   O19   S    
H52   O8    S    
N14   N29   A    
C1    N1    A    
C55   C73   D    
C10   C29   A    
C19   C38   A    
C54   C72   D    
C73   H38   S    
C18   N18   A    
N14   Ni1   S    
C22   N22   A    
C64   H29   S    
N19   Ni8   S    
C5    C40   A    
H50   O4    S    
N13   Ni2   S    
C1    C27   A    
H59   O21   S    
C61   H26   S    
H55   O15   S    
C51   C69   D    
H58   O19   S    
C50   C68   D    
C59   C76   D    
C32   C56   A    
C90   O13   S    
C30   C68   S    
N4    Ni8   S    
C9    C28   A    
C49   H14   S    
C4    C92   S    
