data_mof_unit_40078.cif
_audit_creation_date              2013-03-05T15:41:33-0500
_audit_creation_method            fapswitch 2.2
_symmetry_space_group_name_H-M    P1
_symmetry_Int_Tables_number       1
_space_group_crystal_system       triclinic
_cell_length_a                    24.509282
_cell_length_b                    17.532463
_cell_length_c                    15.603822
_cell_angle_alpha                 89.675647
_cell_angle_beta                  129.003894
_cell_angle_gamma                 89.512802
_cell_volume                      5209.83394159

loop_
_atom_site_label
_atom_site_type_symbol
_atom_site_description
_atom_site_fract_x
_atom_site_fract_y
_atom_site_fract_z
_atom_type_partial_charge
C1    C     C_R   0.333883 0.396143 0.197849 -0.020887
C2    C     C_R   0.350601 0.641117 0.242349 -0.068323
C3    C     C_R   0.837677 0.883181 0.208752 -0.025844
C4    C     C_R   0.836231 0.117608 0.207562 -0.041107
H1    H     H_    0.280330 0.399932 0.167791 0.131472
H2    H     H_    0.301592 0.653862 0.225806 0.128395
H3    H     H_    0.784368 0.881982 0.179686 0.128188
H4    H     H_    0.784162 0.120270 0.183353 0.155975
N1    N     N_R   0.389430 0.421450 0.294590 -0.056948
N2    N     N_R   0.389430 0.578550 0.294590 -0.058906
N3    N     N_R   0.889430 0.921450 0.294590 -0.057204
N4    N     N_R   0.889430 0.078550 0.294590 -0.061650
C5    C     C_R   0.664914 0.383698 0.793282 0.406556
C6    C     C_R   0.668544 0.598990 0.803612 0.470715
C7    C     C_R   0.169447 0.901137 0.805009 0.418464
C8    C     C_R   0.159994 0.124027 0.781151 0.454268
N5    N     N_R   0.612200 0.424040 0.705410 -0.113850
N6    N     N_R   0.612200 0.575960 0.705410 -0.112399
N7    N     N_R   0.112200 0.924040 0.705410 -0.120303
N8    N     N_R   0.112200 0.075960 0.705410 -0.116233
C9    C     C_R   0.588563 0.357571 0.407534 -0.096912
C10   C     C_R   0.611994 0.614628 0.408985 -0.111889
C11   C     C_R   0.091807 0.858364 0.410143 -0.138821
C12   C     C_R   0.112119 0.111774 0.407040 -0.088519
H5    H     H_    0.561782 0.344979 0.322052 0.116793
H6    H     H_    0.592703 0.617742 0.324827 0.115463
H7    H     H_    0.067197 0.846332 0.325606 0.118644
H8    H     H_    0.088806 0.118176 0.321186 0.116336
N9    N     N_R   0.581780 0.422390 0.443390 -0.060679
N10   N     N_R   0.581780 0.577610 0.443390 -0.054777
N11   N     N_R   0.081780 0.922390 0.443390 -0.055585
N12   N     N_R   0.081780 0.077610 0.443390 -0.055156
C13   C     C_R   0.411650 0.358501 0.591884 -0.107291
C14   C     C_R   0.383563 0.597267 0.589748 -0.033463
C15   C     C_R   0.913829 0.858369 0.593419 -0.089732
C16   C     C_R   0.884175 0.099702 0.589922 -0.057572
H9    H     H_    0.434784 0.346460 0.675712 0.159879
H10   H     H_    0.402712 0.592584 0.673509 0.173085
H11   H     H_    0.943896 0.842190 0.678780 0.146600
H12   H     H_    0.902957 0.094135 0.673166 0.179288
N13   N     N_R   0.419850 0.423100 0.556610 -0.045720
N14   N     N_R   0.419850 0.576900 0.556610 -0.045704
N15   N     N_R   0.919850 0.923100 0.556610 -0.038285
N16   N     N_R   0.919850 0.076900 0.556610 -0.054428
C17   C     C_R   0.663379 0.357439 0.591198 -0.121921
C18   C     C_R   0.684867 0.612579 0.593018 0.017209
C19   C     C_R   0.163950 0.858322 0.593855 0.013667
C20   C     C_R   0.188306 0.102885 0.589883 0.074426
H13   H     H_    0.706734 0.343156 0.674675 0.174260
H14   H     H_    0.731900 0.611835 0.677045 0.174846
H15   H     H_    0.205352 0.846094 0.679141 0.231226
H16   H     H_    0.237203 0.092222 0.670406 0.194238
N17   N     N_R   0.627410 0.423100 0.556610 -0.048850
N18   N     N_R   0.627410 0.576900 0.556610 -0.051492
N19   N     N_R   0.127410 0.923100 0.556610 -0.064632
N20   N     N_R   0.127410 0.076900 0.556610 -0.062183
C21   C     C_R   0.339053 0.357697 0.408086 -0.104888
C22   C     C_R   0.311416 0.600772 0.407233 -0.087707
C23   C     C_R   0.837375 0.859097 0.409318 -0.082395
C24   C     C_R   0.812104 0.104074 0.407252 -0.114270
H17   H     H_    0.296738 0.345125 0.322823 0.138348
H18   H     H_    0.265084 0.600275 0.321626 0.103010
H19   H     H_    0.793575 0.846769 0.325053 0.143085
H20   H     H_    0.766115 0.106890 0.321379 0.128956
N21   N     N_R   0.374220 0.422390 0.443390 -0.059782
N22   N     N_R   0.374220 0.577610 0.443390 -0.048156
N23   N     N_R   0.874220 0.922390 0.443390 -0.061298
N24   N     N_R   0.874220 0.077610 0.443390 -0.053014
C25   C     C_R   0.574632 0.382538 0.794201 0.244474
C26   C     C_R   0.578242 0.603425 0.803285 0.347871
C27   C     C_R   0.079788 0.900830 0.806956 0.279753
C28   C     C_R   0.067357 0.129681 0.776816 0.349071
N25   N     N_R   0.555000 0.424040 0.705410 -0.121423
N26   N     N_R   0.555000 0.575960 0.705410 -0.122924
N27   N     N_R   0.055000 0.924040 0.705410 -0.119090
N28   N     N_R   0.055000 0.075960 0.705410 -0.128520
C29   C     C_R   0.424804 0.394999 0.197409 -0.034226
C30   C     C_R   0.443041 0.642692 0.244167 0.035396
C31   C     C_R   0.929412 0.878650 0.209985 -0.048825
C32   C     C_R   0.926150 0.116953 0.203581 -0.008176
H21   H     H_    0.453970 0.397980 0.166883 0.129788
H22   H     H_    0.479571 0.658856 0.230859 0.139181
H23   H     H_    0.959424 0.872156 0.181401 0.135402
H24   H     H_    0.955471 0.118808 0.173258 0.133471
N29   N     N_R   0.446630 0.421450 0.294590 -0.056424
N30   N     N_R   0.446630 0.578550 0.294590 -0.067106
N31   N     N_R   0.946630 0.921450 0.294590 -0.060788
N32   N     N_R   0.946630 0.078550 0.294590 -0.064369
C33   C     C_R   0.355104 0.378206 0.137210 0.032902
C34   C     C_R   0.384259 0.683951 0.212940 0.014636
C35   C     C_R   0.863421 0.850205 0.160726 0.058398
C36   C     C_R   0.856871 0.141576 0.147338 0.034145
C37   C     C_R   0.641592 0.352773 0.845968 -0.209539
C38   C     C_R   0.648849 0.616286 0.866126 -0.326630
C39   C     C_R   0.151152 0.886231 0.870700 -0.314236
C40   C     C_R   0.131741 0.161926 0.823324 -0.283743
C41   C     C_R   0.639613 0.314589 0.499503 0.130536
C42   C     C_R   0.675573 0.639683 0.502454 0.049363
C43   C     C_R   0.143596 0.815956 0.503813 0.019715
C44   C     C_R   0.179815 0.128352 0.498837 0.000578
C45   C     C_R   0.361679 0.315530 0.500519 0.073079
C46   C     C_R   0.315345 0.612624 0.497687 0.001412
C47   C     C_R   0.858775 0.819702 0.502878 0.059246
C48   C     C_R   0.816323 0.116804 0.498134 0.020175
Ni1   Ni    Ni4+2 0.382890 0.500000 0.370170 0.233648
Ni2   Ni    Ni4+2 0.882890 1.000000 0.370170 0.244189
Ni3   Ni    Ni4+2 0.618740 0.500000 0.629830 0.306374
Ni4   Ni    Ni4+2 0.118740 0.000000 0.629830 0.308586
Ni5   Ni    Ni4+2 0.514090 0.500000 0.370170 0.247291
Ni6   Ni    Ni4+2 0.014090 1.000000 0.370170 0.236997
Ni7   Ni    Ni4+2 0.487550 0.500000 0.629830 0.305159
Ni8   Ni    Ni4+2 0.987550 0.000000 0.629830 0.307237
C49   C     C_3   0.358570 0.209324 0.605722 -0.430755
C50   C     C_3   0.295014 0.743341 0.516291 -0.394492
C51   C     C_3   0.840345 0.756731 0.625755 -0.462515
C52   C     C_3   0.773310 0.148598 0.603377 -0.438422
H25   H     H_    0.397732 0.240340 0.682485 0.218401
H26   H     H_    0.352276 0.745178 0.586998 0.240361
H27   H     H_    0.850000 0.812091 0.667429 0.235026
H28   H     H_    0.759793 0.088434 0.604828 0.234189
H29   H     H_    0.389274 0.165720 0.599681 0.181643
H30   H     H_    0.288829 0.762656 0.442378 0.201880
H31   H     H_    0.891367 0.724848 0.673656 0.162495
H32   H     H_    0.828053 0.157191 0.679566 0.182999
C53   C     C_3   0.787821 0.711638 0.626261 0.383307
C54   C     C_3   0.725732 0.204811 0.605855 0.390500
C55   C     C_3   0.307142 0.169626 0.615763 0.345655
C56   C     C_3   0.254546 0.797751 0.534742 0.332813
H33   H     H_    0.816158 0.659847 0.678415 0.083796
H34   H     H_    0.761160 0.241099 0.679139 0.116695
H35   H     H_    0.323429 0.108597 0.637947 0.104793
H36   H     H_    0.237167 0.847930 0.478416 0.100207
H37   H     H_    0.287059 0.340687 0.573948 0.248218
H38   H     H_    0.317574 0.646905 0.673847 0.247409
H39   H     H_    0.744071 0.863825 0.485250 0.230303
H40   H     H_    0.675288 0.088795 0.401451 0.231275
C57   C     C_3   0.260731 0.310063 0.494822 -0.459030
C58   C     C_3   0.265067 0.638017 0.592853 -0.424661
C59   C     C_3   0.738632 0.811329 0.440735 -0.454012
C60   C     C_3   0.688953 0.148222 0.396859 -0.443841
C61   C     C_3   0.278128 0.206606 0.400331 -0.318862
C62   C     C_3   0.190877 0.659355 0.388184 -0.383057
C63   C     C_3   0.804500 0.692234 0.454018 -0.294609
C64   C     C_3   0.784696 0.247371 0.496126 -0.333520
C65   C     C_3   0.316349 0.261027 0.500423 0.162280
C66   C     C_3   0.266909 0.661296 0.498425 0.180931
C67   C     C_3   0.811882 0.770346 0.505533 0.161386
C68   C     C_3   0.766405 0.163489 0.498546 0.177103
H41   H     H_    0.781397 0.700227 0.366603 0.249839
H42   H     H_    0.778661 0.258964 0.420247 0.204140
H43   H     H_    0.241491 0.239408 0.321817 0.204143
H44   H     H_    0.167522 0.602637 0.377998 0.194593
H45   H     H_    0.316559 0.176048 0.396620 0.228834
H46   H     H_    0.188643 0.669812 0.315786 0.199800
H47   H     H_    0.856915 0.664223 0.497904 0.197339
H48   H     H_    0.840380 0.258582 0.568270 0.209031
C69   C     C_3   0.725106 0.687172 0.505454 0.021625
C70   C     C_3   0.683066 0.256209 0.499189 0.018178
C71   C     C_3   0.230505 0.175128 0.501344 0.022223
C72   C     C_3   0.188312 0.756932 0.506421 0.042714
C73   C     C_3   0.685420 0.757917 0.428262 0.417108
C74   C     C_3   0.639930 0.206494 0.392844 0.410430
C75   C     C_3   0.202929 0.259310 0.472909 0.428517
C76   C     C_3   0.209464 0.686705 0.585675 0.392961
C77   C     C_3   0.756575 0.640846 0.460624 -0.564311
C78   C     C_3   0.736931 0.301689 0.498527 -0.569412
C79   C     C_3   0.235484 0.148464 0.410956 -0.521846
C80   C     C_3   0.147379 0.722398 0.388430 -0.523784
H49   H     H_    0.787363 0.590921 0.515815 0.207773
H50   H     H_    0.769674 0.337929 0.573013 0.215212
H51   H     H_    0.261321 0.091171 0.433435 0.221291
H52   H     H_    0.136837 0.766963 0.328425 0.210827
H53   H     H_    0.714358 0.618232 0.377228 0.222105
H54   H     H_    0.709586 0.340789 0.425410 0.211986
H55   H     H_    0.182874 0.143454 0.328988 0.216580
H56   H     H_    0.096056 0.699250 0.358816 0.215120
H57   H     H_    0.236021 0.354220 0.428046 0.156263
H58   H     H_    0.252668 0.576463 0.587566 0.179409
H59   H     H_    0.717180 0.829607 0.356393 0.166974
H60   H     H_    0.680866 0.153865 0.318639 0.169780
H61   H     H_    0.649857 0.738314 0.341271 0.093420
H62   H     H_    0.617793 0.244008 0.319664 0.080137
H63   H     H_    0.157035 0.263422 0.383379 0.093297
H64   H     H_    0.161955 0.651452 0.548285 0.106946
H65   H     H_    0.667358 0.219821 0.807593 0.195810
H66   H     H_    0.703485 0.743238 0.906873 0.174488
H67   H     H_    0.234387 0.775952 0.961605 0.168632
H68   H     H_    0.207522 0.268525 0.834543 0.223620
C81   C     C_2   0.678377 0.290443 0.927103 0.409614
C82   C     C_2   0.697415 0.644324 0.976590 0.483733
C83   C     C_2   0.203323 0.877130 0.990670 0.508419
C84   C     C_2   0.168675 0.219086 0.909096 0.426009
C85   C     C_2   0.690842 0.226275 0.893794 -0.291641
C86   C     C_2   0.725995 0.710753 0.982591 -0.285007
C87   C     C_2   0.245316 0.815625 0.024236 -0.331464
C88   C     C_2   0.212842 0.263247 0.908866 -0.298136
C89   C     C_2   0.357891 0.755545 0.148783 0.156972
C90   C     C_2   0.307947 0.351666 0.025628 0.149592
C91   C     C_2   0.810145 0.178797 0.037982 0.168869
C92   C     C_2   0.826843 0.792036 0.077639 0.136667
C93   C     C_2   0.306451 0.795612 0.137882 0.309833
C94   C     C_2   0.280014 0.283066 0.012725 0.269760
C95   C     C_2   0.739997 0.165827 0.970435 0.289483
C96   C     C_2   0.787544 0.742167 0.084036 0.287537
Cl1   Cl    Cl    0.316695 0.211787 0.729788 -0.477343
Cl2   Cl    Cl    0.313837 0.834287 0.672452 -0.491652
Cl3   Cl    Cl    0.761795 0.766206 0.693212 -0.452507
Cl4   Cl    Cl    0.672521 0.156197 0.630279 -0.508444
Cl5   Cl    Cl    0.629163 0.808324 0.446353 -0.480541
Cl6   Cl    Cl    0.565739 0.160831 0.367040 -0.446918
Cl7   Cl    Cl    0.170972 0.295261 0.542069 -0.520645
Cl8   Cl    Cl    0.240222 0.704660 0.722609 -0.518135
Cl9   Cl    Cl    0.754380 0.396868 0.859737 -0.484120
Cl10  Cl    Cl    0.755668 0.580693 0.858830 -0.498455
Cl11  Cl    Cl    0.254809 0.924455 0.856647 -0.451721
Cl12  Cl    Cl    0.249671 0.116959 0.844570 -0.467974
N33   N     N_R   0.301383 0.798264 0.225119 0.239613
O1    O     O_R   0.357987 0.800191 0.327718 -0.344185
O2    O     O_R   0.240376 0.802238 0.202246 -0.383125
N34   N     N_R   0.315693 0.227038 0.101549 0.258009
O3    O     O_R   0.319810 0.235875 0.188189 -0.359238
O4    O     O_R   0.335037 0.161990 0.088009 -0.214853
N35   N     N_R   0.711579 0.095103 0.973429 0.246747
O5    O     O_R   0.646419 0.092573 0.933809 -0.303340
O6    O     O_R   0.746770 0.031374 0.999350 -0.374537
N36   N     N_R   0.796887 0.730871 0.184239 0.228365
O7    O     O_R   0.742395 0.729160 0.180601 -0.424245
O8    O     O_R   0.859279 0.719188 0.277937 -0.385110
N37   N     N_R   0.374518 0.771998 0.076981 0.255544
O9    O     O_R   0.382497 0.717246 0.029588 -0.296006
O10   O     O_R   0.384231 0.842102 0.062206 -0.224300
N38   N     N_R   0.281110 0.404770 0.935762 0.253254
O11   O     O_R   0.283974 0.477746 0.952725 -0.334805
O12   O     O_R   0.266578 0.381746 0.844385 -0.289894
N39   N     N_R   0.838898 0.234702 0.009034 0.263369
O13   O     O_R   0.818139 0.237326 0.909086 -0.336595
O14   O     O_R   0.893502 0.273539 0.085510 -0.303882
N40   N     N_R   0.827038 0.794527 0.985579 0.256782
O15   O     O_R   0.836189 0.858891 0.954520 -0.293668
O16   O     O_R   0.828889 0.731513 0.943968 -0.275528
N41   N     N_R   0.705333 0.301728 0.038876 0.269195
O17   O     O_R   0.715961 0.370531 0.076790 -0.255273
O18   O     O_R   0.710221 0.245083 0.097646 -0.399237
N42   N     N_R   0.729294 0.591292 0.067799 0.280181
O19   O     O_R   0.689940 0.543736 0.070426 -0.267867
O20   O     O_R   0.796664 0.577913 0.131689 -0.274443
N43   N     N_R   0.216972 0.939240 0.061969 0.281129
O21   O     O_R   0.169707 0.992727 0.025659 -0.278373
O22   O     O_R   0.279947 0.950617 0.153397 -0.265769
N44   N     N_R   0.166078 0.219549 0.998784 0.278669
O23   O     O_R   0.171228 0.283418 0.045351 -0.380191
O24   O     O_R   0.158331 0.156419 0.033957 -0.249584
N45   N     N_R   0.542480 0.389408 0.845082 0.252338
O25   O     O_R   0.556263 0.339857 0.918953 -0.303381
O26   O     O_R   0.499369 0.445876 0.818144 -0.367004
N46   N     N_R   0.535242 0.622339 0.832633 0.240044
O27   O     O_R   0.549123 0.591889 0.920698 -0.265674
O28   O     O_R   0.498096 0.685162 0.792889 -0.365921
N47   N     N_R   0.042853 0.911229 0.849711 0.258473
O29   O     O_R   0.063371 0.874975 0.938758 -0.326979
O30   O     O_R   0.986319 0.953614 0.796855 -0.371726
N48   N     N_R   0.023949 0.146984 0.805872 0.232196
O31   O     O_R   0.019388 0.097989 0.863811 -0.275056
O32   O     O_R   0.003868 0.217228 0.798906 -0.380260

loop_
_geom_bond_atom_site_label_1
_geom_bond_atom_site_label_2
_geom_bond_distance
_ccdc_geom_bond_type
C81   C85   1.352691 D    
C22   H18   1.079296 S    
C96   N36   1.442708 S    
C11   C43   1.391629 A    
C52   H32   1.110807 S    
H37   C57   1.113376 S    
C10   C42   1.380754 A    
C69   C73   1.556646 S    
C30   H22   1.078288 S    
N9    N17   1.373128 A    
C83   N43   1.444593 S    
C48   C68   1.469625 S    
N35   O5    1.301302 A    
C14   N14   1.327174 A    
C3    N3    1.318788 A    
C64   C68   1.548268 S    
C61   H45   1.112666 S    
C60   C68   1.553980 S    
N34   O4    1.299886 A    
C47   C67   1.465569 S    
C38   C82   1.437533 S    
C34   C89   1.467315 S    
C30   C34   1.389594 A    
C39   C83   1.464571 S    
H39   C59   1.113607 S    
C33   C90   1.438427 S    
N10   N18   1.372774 A    
C59   C67   1.564165 S    
N27   Ni8   1.840662 S    
C14   C46   1.377040 A    
C56   Cl2   1.800072 S    
N18   Ni3   1.860451 S    
C1    H1    1.081864 S    
N35   O6    1.302039 A    
C72   C76   1.574488 S    
N9    Ni5   1.862073 S    
C26   C38   1.371229 A    
C8    Cl12  1.755463 S    
C74   H62   1.111956 S    
C90   N38   1.442085 S    
N29   Ni5   1.903640 S    
N5    Ni3   1.847681 S    
C7    C39   1.377512 A    
N45   O25   1.300387 A    
C76   Cl8   1.793594 S    
C28   C40   1.383707 A    
C53   C69   1.572648 S    
C27   C39   1.383382 A    
C54   H34   1.110916 S    
N1    Ni1   1.888313 S    
C55   H35   1.112949 S    
C51   C67   1.551630 S    
C19   C43   1.382194 A    
N42   O19   1.300086 A    
N8    N28   1.401931 A    
C3    C35   1.374003 A    
N41   O17   1.300938 A    
C41   C70   1.473101 S    
C94   N34   1.447393 S    
C2    C34   1.392195 A    
N43   O21   1.300669 A    
C62   C66   1.549046 S    
N6    Ni3   1.855324 S    
C63   C77   1.539934 S    
C16   H12   1.074145 S    
C64   H42   1.114176 S    
C23   N23   1.322474 A    
C7    N7    1.335573 A    
C63   H47   1.112908 S    
H40   C60   1.112711 S    
C22   N22   1.321436 A    
N20   Ni4   1.860451 S    
N3    N31   1.401931 A    
C64   H48   1.114304 S    
C31   H23   1.079382 S    
N46   O28   1.300452 A    
C26   N26   1.344132 A    
N39   O13   1.301232 A    
C20   H16   1.071462 S    
C25   N25   1.350568 A    
C22   C46   1.370096 A    
C11   H7    1.073374 S    
C4    N4    1.326128 A    
C36   C91   1.471040 S    
C15   N15   1.319788 A    
C54   Cl4   1.792592 S    
C16   N16   1.327787 A    
C4    H4    1.079552 S    
N1    N29   1.401931 A    
N7    Ni4   1.847681 S    
C30   N30   1.338886 A    
N43   O22   1.301577 A    
C18   C42   1.363835 A    
C29   N29   1.338571 A    
N6    N26   1.401931 A    
C52   C54   1.539577 S    
C43   C72   1.482486 S    
C32   N32   1.344647 A    
N5    N25   1.401931 A    
N28   Ni8   1.870422 S    
N39   O14   1.301215 A    
C2    H2    1.078855 S    
C61   C79   1.547027 S    
N24   Ni2   1.876236 S    
C91   C95   1.359006 D    
C56   H36   1.114226 S    
C31   N31   1.341391 A    
N34   O3    1.301067 A    
N25   Ni7   1.840662 S    
C82   C86   1.337306 D    
C83   C87   1.338893 D    
C54   C70   1.565854 S    
C5    Cl9   1.756693 S    
C77   H49   1.113302 S    
C86   C96   1.450142 S    
C20   C44   1.371160 A    
N40   O16   1.299450 A    
C78   H54   1.114282 S    
C51   H31   1.114358 S    
N4    N32   1.401931 A    
N10   Ni5   1.891903 S    
C25   N45   1.432776 S    
C32   H24   1.081491 S    
C59   C73   1.522850 S    
N30   Ni5   1.873396 S    
C1    N1    1.326645 A    
C50   C66   1.549519 S    
C7    Cl11  1.757795 S    
C26   N46   1.426060 S    
N26   Ni7   1.870422 S    
C52   C68   1.555134 S    
C56   C72   1.569416 S    
C75   Cl7   1.799602 S    
C19   H15   1.067665 S    
C74   Cl6   1.793413 S    
N33   O1    1.301734 A    
C75   H63   1.114254 S    
C53   Cl3   1.803699 S    
C13   H9    1.066909 S    
C52   H28   1.112683 S    
C51   H27   1.112764 S    
C5    C37   1.374149 A    
C49   C65   1.555374 S    
C11   N11   1.323628 A    
C32   C36   1.395427 A    
C15   C47   1.379516 A    
C15   H11   1.074362 S    
N14   Ni7   1.853255 S    
C12   N12   1.329684 A    
C90   C94   1.341290 D    
N37   O9    1.301338 A    
C76   H64   1.113304 S    
C91   N39   1.438328 S    
C92   C96   1.355182 D    
C29   C33   1.370796 A    
C50   C56   1.524172 S    
N17   Ni3   1.867196 S    
C60   C74   1.541092 S    
N45   O26   1.300653 A    
C84   C88   1.338046 D    
C42   C69   1.454422 S    
C29   H21   1.081476 S    
C8    N8    1.328378 A    
C45   C65   1.470848 S    
N46   O27   1.299687 A    
C18   N18   1.307334 A    
N3    Ni2   1.888313 S    
N38   O12   1.300979 A    
C17   H13   1.066794 S    
C8    C40   1.387378 A    
C95   N35   1.442153 S    
C28   N28   1.346197 A    
C73   Cl5   1.798279 S    
C62   H46   1.110157 S    
C89   C93   1.351151 D    
C24   N24   1.324922 A    
C50   H26   1.113588 S    
C10   H6    1.080835 S    
N12   Ni6   1.891903 S    
C49   H25   1.104893 S    
C35   C92   1.446410 S    
N16   Ni8   1.853255 S    
C62   H44   1.112977 S    
C27   N27   1.349864 A    
C78   H50   1.114260 S    
N36   O8    1.301912 A    
C4    C36   1.383147 A    
C81   N41   1.439859 S    
C80   H52   1.112507 S    
N31   Ni6   1.903640 S    
C23   H19   1.076297 S    
N16   N24   1.372774 A    
N41   O18   1.300386 A    
N15   Ni8   1.882958 S    
C27   N47   1.434074 S    
C69   C77   1.555258 S    
N47   O29   1.300983 A    
C2    N2    1.330067 A    
C55   C71   1.580727 S    
C63   C67   1.545330 S    
C61   H43   1.111977 S    
C19   N19   1.322772 A    
C21   N21   1.326225 A    
C25   C37   1.389303 A    
C57   C65   1.560193 S    
C20   N20   1.320435 A    
C9    H5    1.078169 S    
N40   O15   1.301349 A    
N2    N30   1.401931 A    
C1    C33   1.372875 A    
C37   C81   1.463107 S    
C10   N10   1.327570 A    
H67   C87   1.091785 S    
C14   H10   1.077616 S    
C31   C35   1.381542 A    
C6    N6    1.330781 A    
H66   C86   1.091432 S    
C12   H8    1.080474 S    
H65   C85   1.087023 S    
N47   O30   1.299773 A    
C85   C95   1.468057 S    
H38   C58   1.111767 S    
C79   H51   1.112938 S    
C12   C44   1.382193 A    
N21   Ni1   1.869465 S    
N23   Ni2   1.869465 S    
C21   H17   1.079176 S    
N48   O31   1.299155 A    
C49   C55   1.536218 S    
C89   N37   1.441385 S    
C23   C47   1.379138 A    
N33   O2    1.301598 A    
C49   H29   1.113545 S    
C21   C45   1.381489 A    
C18   H14   1.070122 S    
C3    H3    1.080698 S    
C51   C53   1.520627 S    
C5    N5    1.339081 A    
N19   Ni4   1.867196 S    
C24   H20   1.079614 S    
C13   N13   1.327455 A    
C71   C79   1.563907 S    
C40   C84   1.456232 S    
C13   C45   1.389275 A    
N7    N27   1.401931 A    
C55   Cl1   1.805635 S    
N32   Ni6   1.873396 S    
N37   O10   1.300511 A    
C17   C41   1.386137 A    
C87   C93   1.467069 S    
C57   C75   1.526708 S    
N4    Ni2   1.880546 S    
C44   C71   1.474490 S    
C6    Cl10  1.753358 S    
C16   C48   1.376720 A    
C9    N9    1.324095 A    
C58   C66   1.554620 S    
C84   N44   1.440462 S    
C82   N42   1.439954 S    
C93   N33   1.443593 S    
C61   C65   1.554873 S    
C60   H60   1.110217 S    
N11   Ni6   1.862073 S    
N42   O20   1.301552 A    
C62   C80   1.530828 S    
C79   H55   1.110632 S    
C71   C75   1.558901 S    
C72   C80   1.568667 S    
N13   N21   1.373128 A    
C92   N40   1.439913 S    
N44   O23   1.301530 A    
C59   H59   1.110185 S    
C9    C41   1.379986 A    
C70   C74   1.566786 S    
C17   N17   1.330611 A    
C50   H30   1.114658 S    
C70   C78   1.553647 S    
C53   H33   1.112931 S    
C63   H41   1.106827 S    
N48   O32   1.300620 A    
C57   H57   1.113739 S    
C28   N48   1.425735 S    
H68   C88   1.085718 S    
N15   N23   1.373128 A    
N36   O7    1.301196 A    
N13   Ni7   1.882958 S    
C64   C78   1.521677 S    
N14   N22   1.372774 A    
N12   N20   1.372774 A    
N2    Ni1   1.880546 S    
C58   C76   1.544474 S    
N22   Ni1   1.876236 S    
C80   H56   1.113401 S    
N11   N19   1.373128 A    
C24   C48   1.375098 A    
C77   H53   1.113169 S    
N44   O24   1.300078 A    
C6    C38   1.367494 A    
C73   H61   1.114215 S    
C46   C66   1.462096 S    
C88   C94   1.454374 S    
N38   O11   1.301524 A    
N8    Ni4   1.855324 S    
C58   H58   1.113037 S    
