data_mof_unit_36206.cif
_audit_creation_date              2012-12-10T18:04:30-0500
_audit_creation_method            fapswitch 2.2
_symmetry_space_group_name_H-M    P1
_symmetry_Int_Tables_number       1
_space_group_crystal_system       triclinic
_cell_length_a                    10.843332
_cell_length_b                    9.629961
_cell_length_c                    9.050191
_cell_angle_alpha                 89.251124
_cell_angle_beta                  92.816884
_cell_angle_gamma                 87.847343
_cell_volume                      943.115445974

loop_
_atom_site_label
_atom_site_type_symbol
_atom_type_description
_atom_site_fract_x
_atom_site_fract_y
_atom_site_fract_z
_atom_type_partial_charge
C1    C     C_R   0.262573 0.502306 0.500318 0.856861
C2    C     C_R   0.057984 0.596447 0.400766 0.192941
C3    C     C_R   0.871986 0.489138 0.477430 -0.277621
C4    C     C_R   0.128304 0.505524 0.497907 -0.222257
C5    C     C_R   0.425662 0.079722 0.400124 0.246516
C6    C     C_R   0.568478 0.920910 0.605417 0.229608
C7    C     C_R   0.562247 0.070076 0.611186 0.240380
C8    C     C_R   0.429216 0.930632 0.396615 0.222476
C9    C     C_3   0.143444 0.422145 0.835917 -0.722411
C10   C     C_3   0.838828 0.827154 0.338112 -0.683188
C11   C     C_3   0.979255 0.125460 0.607062 -0.708104
C12   C     C_R   0.737581 0.496871 0.492496 0.811131
C13   C     C_3   0.137692 0.619027 0.159244 -0.671449
C14   C     C_3   0.333355 0.189050 0.169248 -0.619718
C15   C     C_3   0.627718 0.832007 0.856510 -0.661141
C16   C     C_3   0.710804 0.165389 0.795836 -0.605180
C17   C     C_3   0.413762 0.855642 0.141868 -0.638540
C18   C     C_R   0.500484 0.500426 0.221007 0.830035
C19   C     C_R   0.500189 0.499330 0.779034 0.842659
C20   C     C_1   0.500769 0.500126 0.065675 -0.239511
C21   C     C_1   0.500441 0.498646 0.934372 -0.209196
C22   C     C_R   0.070168 0.404925 0.580864 0.205358
C23   C     C_R   0.928361 0.594508 0.397800 0.178330
C24   C     C_R   0.945838 0.379843 0.546788 0.208929
Cu1   Cu    Cu3+1 0.500000 0.640660 0.500000 0.976400
Cu2   Cu    Cu3+1 0.500000 0.359340 0.500000 0.960115
H1    H     H_    0.210642 0.278237 0.686568 0.274557
H2    H     H_    0.059742 0.117733 0.535827 0.221075
H3    H     H_    0.928258 0.028405 0.595669 0.191850
H4    H     H_    0.008631 0.131770 0.725800 0.263966
H5    H     H_    0.078269 0.781866 0.287826 0.261649
H6    H     H_    0.048402 0.588945 0.105704 0.226750
H7    H     H_    0.200515 0.525794 0.174905 0.217412
H8    H     H_    0.180418 0.693525 0.084608 0.217836
H9    H     H_    0.239376 0.129524 0.354692 0.213248
H10   H     H_    0.308611 0.300625 0.150442 0.220429
H11   H     H_    0.264130 0.130639 0.103353 0.181614
H12   H     H_    0.051373 0.466608 0.862967 0.237777
H13   H     H_    0.427736 0.167302 0.130333 0.229349
H14   H     H_    0.745292 0.857883 0.682625 0.229061
H15   H     H_    0.675885 0.912141 0.921597 0.201719
H16   H     H_    0.663163 0.729498 0.900979 0.231696
H17   H     H_    0.526799 0.841591 0.871542 0.226506
H18   H     H_    0.534492 0.096070 0.834066 0.229838
H19   H     H_    0.734462 0.265385 0.745763 0.276271
H20   H     H_    0.776777 0.080890 0.767519 0.216738
H21   H     H_    0.718010 0.178760 0.917672 0.186162
H22   H     H_    0.267063 0.896477 0.275486 0.234847
H23   H     H_    0.180387 0.357135 0.931122 0.223034
H24   H     H_    0.379597 0.941238 0.067050 0.179911
H25   H     H_    0.386516 0.759312 0.085891 0.231314
H26   H     H_    0.516373 0.856433 0.153505 0.225608
H27   H     H_    0.207436 0.507491 0.817747 0.215096
H28   H     H_    0.780648 0.641289 0.243653 0.247815
H29   H     H_    0.863826 0.895825 0.245727 0.214231
H30   H     H_    0.896907 0.851128 0.438118 0.211947
H31   H     H_    0.740430 0.849661 0.360658 0.236188
H32   H     H_    0.840027 0.217388 0.474406 0.272165
N1    N     N_R   0.500000 0.852070 0.500000 -0.212532
N2    N     N_2   0.358391 0.862946 0.284637 -0.341981
N3    N     N_R   0.500000 0.147930 0.500000 -0.212789
N4    N     N_2   0.132163 0.337215 0.705949 -0.421287
N5    N     N_2   0.856783 0.683490 0.296162 -0.414900
N6    N     N_2   0.898053 0.243373 0.562518 -0.413991
N7    N     N_2   0.117595 0.683163 0.300035 -0.395633
N8    N     N_2   0.326017 0.156370 0.324889 -0.373408
N9    N     N_2   0.653787 0.842597 0.701397 -0.358111
N10   N     N_2   0.585757 0.133494 0.750298 -0.377405
O1    O     O_R   0.319640 0.618740 0.499990 -0.544208
O2    O     O_R   0.680360 0.381260 0.500010 -0.589238
O3    O     O_R   0.680360 0.618740 0.500010 -0.546737
O4    O     O_R   0.319640 0.381260 0.499990 -0.576702
O5    O     O_R   0.500000 0.618760 0.288390 -0.549166
O6    O     O_R   0.500000 0.381240 0.711610 -0.546732
O7    O     O_R   0.500000 0.618760 0.711610 -0.556787
O8    O     O_R   0.500000 0.381240 0.288390 -0.559473

loop_
_geom_bond_atom_site_label_1
_geom_bond_atom_site_label_2
_ccdc_geom_bond_type
C16   H19   S    
C17   H24   S    
C5    C8    A    
C2    C4    A    
C13   H7    S    
C6    C7    A    
C16   N10   S    
H1    N4    S    
C22   N4    S    
Cu2   O4    S    
C13   H6    S    
Cu1   O5    S    
C10   N5    S    
C17   H26   S    
C1    C4    S    
C15   N9    S    
C17   H25   S    
C23   N5    S    
C4    C22   A    
C14   N8    S    
C15   H17   S    
C13   H8    S    
C24   N6    S    
C13   N7    S    
C8    N2    S    
C14   H11   S    
C14   H10   S    
C10   H29   S    
C15   H15   S    
C3    C24   A    
C7    N3    A    
C11   H2    S    
C11   H4    S    
Cu1   O3    S    
C16   H21   S    
C19   O7    A    
C6    N9    S    
Cu1   Cu2   S    
Cu2   N3    S    
H22   N2    S    
C18   O5    A    
C18   C20   S    
C8    N1    A    
H32   N6    S    
C14   H13   S    
C2    N7    S    
C22   C24   A    
H18   N10   S    
C1    O4    A    
C9    H27   S    
H28   N5    S    
C17   N2    S    
C5    N3    A    
Cu2   O8    S    
C10   H31   S    
C9    H23   S    
C20   C21   T    
C11   H3    S    
Cu2   O6    S    
C11   N6    S    
Cu1   O1    S    
C16   H20   S    
C2    C23   A    
H5    N7    S    
C10   H30   S    
C12   O2    A    
Cu2   O2    S    
C9    H12   S    
C3    C12   S    
Cu1   N1    S    
H9    N8    S    
C19   C21   S    
C7    N10   S    
C3    C23   A    
C6    N1    A    
C12   O3    A    
C19   O6    A    
C1    O1    A    
C9    N4    S    
C15   H16   S    
C18   O8    A    
C5    N8    S    
Cu1   O7    S    
H14   N9    S    
