data_mof_unit_58169.cif
_audit_creation_date              2012-12-11T16:07:29-0500
_audit_creation_method            fapswitch 2.2
_symmetry_space_group_name_H-M    P1
_symmetry_Int_Tables_number       1
_space_group_crystal_system       triclinic
_cell_length_a                    17.240197
_cell_length_b                    17.184748
_cell_length_c                    17.648489
_cell_angle_alpha                 89.667613
_cell_angle_beta                  90.509651
_cell_angle_gamma                 90.77837
_cell_volume                      5227.91663484

loop_
_atom_site_label
_atom_site_type_symbol
_atom_type_description
_atom_site_fract_x
_atom_site_fract_y
_atom_site_fract_z
_atom_type_partial_charge
C1    C     C_R   0.393001 0.696714 0.606115 0.617472
C2    C     C_R   0.608564 0.699246 0.600062 0.620905
C3    C     C_3   0.742739 0.249703 0.725151 0.322225
C4    C     C_3   0.779486 0.783308 0.303245 0.358455
C5    C     C_3   0.220642 0.221152 0.690813 0.374642
C6    C     C_3   0.785390 0.204669 0.349718 0.404213
C7    C     C_3   0.210571 0.772002 0.678212 0.401692
C8    C     C_3   0.725348 0.714357 0.804625 0.388594
C9    C     C_3   0.274400 0.296766 0.182227 0.389868
C10   C     C_3   0.714197 0.305953 0.863603 0.377885
C11   C     C_3   0.228671 0.751281 0.223350 0.345052
C12   C     C_3   0.284516 0.285840 0.815657 0.358134
C13   C     C_R   0.698110 0.391322 0.399847 0.597858
C14   C     C_3   0.715069 0.711629 0.181988 0.393832
C15   C     C_3   0.272259 0.719079 0.809618 0.426515
C16   C     C_3   0.740140 0.253705 0.211203 0.327809
C17   C     C_3   0.143816 0.130813 0.369632 0.290834
C18   C     C_3   0.086495 0.178717 0.414988 -0.276351
C19   C     C_3   0.005364 0.143001 0.411545 -0.983911
C20   C     C_3   0.869849 0.881538 0.630228 0.186978
C21   C     C_3   0.859829 0.949333 0.685912 -0.252614
C22   C     C_3   0.930831 0.002896 0.688056 -1.111098
C23   C     C_3   0.220050 0.913878 0.448442 0.274323
C24   C     C_R   0.302408 0.604164 0.604425 0.599934
C25   C     C_3   0.299069 0.943080 0.478826 -0.322137
C26   C     C_3   0.317097 0.027664 0.457388 -0.890284
C27   C     C_3   0.821206 0.188916 0.638244 0.261538
C28   C     C_3   0.872058 0.249170 0.597083 -0.242397
C29   C     C_3   0.955256 0.222261 0.592987 -1.027900
C30   C     C_3   0.845459 0.889707 0.358229 0.182431
C31   C     C_3   0.912417 0.893816 0.301374 -0.250089
C32   C     C_3   0.954535 0.972230 0.303393 -1.027726
C33   C     C_3   0.136554 0.131057 0.636807 0.235488
C34   C     C_3   0.171043 0.056786 0.606254 -0.315416
C35   C     C_R   0.607394 0.697486 0.392975 0.601801
C36   C     C_3   0.131304 0.985068 0.638874 -1.027888
C37   C     C_3   0.808038 0.108028 0.441377 0.206251
C38   C     C_3   0.728325 0.082235 0.471551 -0.322650
C39   C     C_3   0.728946 0.999327 0.502601 -0.915544
C40   C     C_3   0.106937 0.796854 0.593488 0.258080
C41   C     C_3   0.077188 0.720415 0.558743 -0.285287
C42   C     C_3   0.994533 0.727535 0.527774 -0.942309
C43   C     C_3   0.631730 0.639899 0.866838 0.298666
C44   C     C_3   0.575278 0.691969 0.908762 -0.291411
C45   C     C_3   0.491618 0.669751 0.890459 -0.960469
C46   C     C_R   0.391766 0.301876 0.604161 0.616180
C47   C     C_3   0.358359 0.389277 0.126800 0.219636
C48   C     C_3   0.345741 0.458697 0.179776 -0.270704
C49   C     C_3   0.419457 0.507464 0.189829 -1.098770
C50   C     C_3   0.693021 0.410341 0.945162 0.233779
C51   C     C_3   0.768570 0.442256 0.980798 -0.314856
C52   C     C_3   0.781111 0.529151 0.966153 -0.894673
C53   C     C_3   0.288920 0.678842 0.129893 0.257996
C54   C     C_3   0.345198 0.729174 0.083189 -0.254043
C55   C     C_3   0.425567 0.693563 0.080173 -1.013422
C56   C     C_3   0.355017 0.384737 0.877920 0.126805
C57   C     C_R   0.301153 0.607587 0.399240 0.596169
C58   C     C_3   0.438771 0.375157 0.852556 -0.198607
C59   C     C_3   0.485802 0.450364 0.861606 -1.095159
C60   C     C_3   0.624318 0.620530 0.138747 0.215874
C61   C     C_3   0.654453 0.538263 0.125603 -0.310968
C62   C     C_3   0.623234 0.478311 0.182477 -1.031852
C63   C     C_3   0.301253 0.621102 0.899118 0.211811
C64   C     C_3   0.222264 0.596486 0.931662 -0.323958
C65   C     C_3   0.224683 0.517476 0.971521 -0.932164
C66   C     C_3   0.649089 0.292593 0.119493 0.228648
C67   C     C_3   0.613020 0.227717 0.071005 -0.218403
C68   C     C_R   0.679899 0.414101 0.636800 0.533971
C69   C     C_3   0.534799 0.251667 0.037938 -0.986237
C70   C     C_R   0.907523 0.183946 0.131411 0.586011
C71   C     C_R   0.100720 0.804243 0.888505 0.605818
C72   C     C_R   0.199609 0.109605 0.098490 0.626699
C73   C     C_R   0.605491 0.300809 0.399722 0.631947
C74   C     C_R   0.802158 0.893984 0.893614 0.551787
C75   C     C_R   0.081353 0.828638 0.143812 0.543800
C76   C     C_R   0.892126 0.200229 0.905038 0.508654
C77   C     C_R   0.800381 0.890433 0.097478 0.624429
C78   C     C_R   0.198138 0.108140 0.897220 0.496007
C79   C     C_R   0.891487 0.802676 0.894314 0.635956
C80   C     C_R   0.109463 0.199418 0.098702 0.643324
C81   C     C_R   0.193988 0.894769 0.887280 0.585550
C82   C     C_R   0.815124 0.091031 0.129992 0.570627
C83   C     C_R   0.107795 0.198299 0.895798 0.593025
C84   C     C_R   0.699341 0.610009 0.599035 0.632271
C85   C     C_R   0.889887 0.800209 0.097840 0.617871
C86   C     C_R   0.800256 0.109630 0.905101 0.616713
C87   C     C_R   0.175056 0.919685 0.140926 0.507264
C88   C     C_3   0.280908 0.284871 0.305257 -0.190013
C89   C     C_3   0.722528 0.723662 0.680921 -0.206215
C90   C     C_3   0.267099 0.735594 0.339424 -0.249638
C91   C     C_3   0.688480 0.317171 0.742908 -0.191336
C92   C     C_3   0.718323 0.717371 0.306132 -0.282843
C93   C     C_3   0.283212 0.284638 0.691951 -0.215281
C94   C     C_3   0.724719 0.267495 0.332060 -0.186157
C95   C     C_R   0.302316 0.394093 0.393057 0.540868
C96   C     C_3   0.276700 0.713419 0.686834 -0.199510
C97   C     C_3   0.781092 0.784455 0.806675 -0.193482
C98   C     C_3   0.222906 0.222725 0.180090 -0.205746
C99   C     C_3   0.767819 0.237419 0.845494 -0.259917
C100  C     C_3   0.183807 0.824194 0.247361 -0.175553
C101  C     C_3   0.221425 0.221411 0.814309 -0.275237
C102  C     C_3   0.776262 0.777272 0.179080 -0.223689
C103  C     C_3   0.208098 0.779866 0.801219 -0.198447
C104  C     C_3   0.801949 0.192377 0.228818 -0.166883
C105  C     C_R   0.316976 0.679262 0.624629 -0.255066
C106  C     C_R   0.586949 0.321970 0.638603 0.551284
C107  C     C_R   0.682101 0.314008 0.384729 -0.280494
C108  C     C_R   0.685506 0.686674 0.616021 -0.292432
C109  C     C_R   0.316971 0.319167 0.371568 -0.263356
C110  C     C_R   0.649921 0.352844 0.678848 -0.202233
C111  C     C_R   0.316539 0.684571 0.382767 -0.272564
C112  C     C_R   0.316916 0.317760 0.624642 -0.277131
C113  C     C_R   0.682782 0.682372 0.372716 -0.226218
C114  C     C_R   0.841483 0.156204 0.167589 -0.223461
C115  C     C_R   0.174022 0.820164 0.863821 -0.261669
C116  C     C_R   0.186257 0.186276 0.114845 -0.292004
C117  C     C_R   0.393495 0.698680 0.398041 0.520680
C118  C     C_R   0.816148 0.818562 0.873535 -0.275508
C119  C     C_R   0.142558 0.861846 0.185579 -0.200677
C120  C     C_R   0.814350 0.187999 0.894019 -0.264976
C121  C     C_R   0.813068 0.813390 0.113529 -0.305532
C122  C     C_R   0.183886 0.184206 0.878158 -0.229676
C123  C     C_3   0.773028 0.680139 0.740312 0.269572
C124  C     C_3   0.225474 0.325944 0.248582 0.228177
C125  C     C_3   0.652995 0.270571 0.809059 0.292202
C126  C     C_3   0.299005 0.779848 0.269347 0.191511
C127  C     C_3   0.238733 0.329629 0.753469 0.229065
C128  C     C_R   0.302393 0.393195 0.605014 0.612649
C129  C     C_3   0.762258 0.671498 0.245035 0.266192
C130  C     C_3   0.317176 0.763440 0.747882 0.276494
C131  C     C_3   0.687102 0.214709 0.270146 0.191814
C132  C     C_3   0.778103 0.305159 0.271925 0.253225
C133  C     C_3   0.231029 0.668657 0.749048 0.173029
C134  C     C_3   0.671024 0.757811 0.242114 0.231610
C135  C     C_3   0.328274 0.240404 0.754645 0.332670
C136  C     C_3   0.196212 0.708009 0.292233 0.264474
C137  C     C_3   0.750289 0.352346 0.797065 0.301442
C138  C     C_3   0.329126 0.254750 0.238195 0.196846
C139  C     C_R   0.697456 0.606977 0.394256 0.476370
C140  C     C_3   0.674719 0.758145 0.746454 0.216698
C141  C     C_3   0.277803 0.181509 0.237197 0.278897
C142  C     C_3   0.730310 0.827981 0.747639 0.233480
C143  C     C_3   0.152697 0.780381 0.317504 0.265003
C144  C     C_3   0.803948 0.284866 0.779075 0.199126
C145  C     C_3   0.731860 0.823331 0.240169 0.231073
C146  C     C_3   0.265676 0.176870 0.752456 0.250646
C147  C     C_3   0.838539 0.243810 0.290717 0.292434
C148  C     C_3   0.165786 0.728350 0.741111 0.187684
C149  C     C_3   0.252820 0.822610 0.737731 0.259999
C150  C     C_R   0.392359 0.303236 0.392465 0.633259
C151  C     C_3   0.748265 0.152890 0.287664 0.203602
C152  C     C_3   0.176478 0.265730 0.751345 0.257714
C153  C     C_3   0.822984 0.736745 0.243198 0.348084
C154  C     C_3   0.706320 0.203348 0.790128 0.271170
C155  C     C_3   0.255484 0.852346 0.293593 0.298772
C156  C     C_3   0.829072 0.749866 0.741586 0.191769
C157  C     C_3   0.174701 0.252508 0.247547 0.215738
C158  C     C_3   0.229861 0.211199 0.303487 0.387120
C159  C     C_3   0.778919 0.794151 0.683272 0.400332
C160  C     C_3   0.223753 0.809069 0.364008 0.383191
H1    H     H_    0.382374 0.808172 0.605168 0.332619
H2    H     H_    0.615960 0.811268 0.597397 0.334523
H3    H     H_    0.462141 0.473765 0.223443 0.289322
H4    H     H_    0.406751 0.560841 0.222233 0.272320
H5    H     H_    0.444308 0.524064 0.134143 0.276553
H6    H     H_    0.644078 0.423384 0.982868 0.074401
H7    H     H_    0.677069 0.440774 0.891734 0.137628
H8    H     H_    0.768217 0.430825 0.042832 0.216024
H9    H     H_    0.818732 0.411438 0.957192 0.219856
H10   H     H_    0.786713 0.540720 0.904585 0.296370
H11   H     H_    0.835375 0.549023 0.994829 0.284274
H12   H     H_    0.732545 0.563464 0.988220 0.274904
H13   H     H_    0.808818 0.380384 0.411528 0.335464
H14   H     H_    0.269324 0.629114 0.094622 0.120721
H15   H     H_    0.317355 0.652006 0.180218 0.095531
H16   H     H_    0.321785 0.736270 0.024868 0.224217
H17   H     H_    0.350575 0.788345 0.107524 0.248386
H18   H     H_    0.449530 0.685292 0.138121 0.278718
H19   H     H_    0.465415 0.733285 0.048996 0.286512
H20   H     H_    0.422971 0.636487 0.051242 0.252483
H21   H     H_    0.356223 0.411746 0.934842 0.142070
H22   H     H_    0.324930 0.426439 0.840212 0.147785
H23   H     H_    0.465705 0.328844 0.887430 0.248835
H24   H     H_    0.191484 0.611649 0.599075 0.307122
H25   H     H_    0.439760 0.358918 0.791897 0.244867
H26   H     H_    0.458121 0.498210 0.829056 0.274369
H27   H     H_    0.545099 0.442035 0.839339 0.293315
H28   H     H_    0.490350 0.466471 0.922374 0.256219
H29   H     H_    0.572632 0.628682 0.101964 0.113172
H30   H     H_    0.603095 0.627281 0.197757 0.120135
H31   H     H_    0.636998 0.519874 0.067867 0.166718
H32   H     H_    0.718805 0.538534 0.128008 0.261634
H33   H     H_    0.608691 0.504293 0.237940 0.262836
H34   H     H_    0.668019 0.434025 0.193554 0.300653
H35   H     H_    0.617600 0.809287 0.388804 0.334865
H36   H     H_    0.571347 0.448481 0.158340 0.263036
H37   H     H_    0.345353 0.610861 0.943841 0.117593
H38   H     H_    0.319045 0.584317 0.850899 0.157445
H39   H     H_    0.203226 0.640997 0.972694 0.227600
H40   H     H_    0.178721 0.592014 0.885506 0.226243
H41   H     H_    0.228951 0.470509 0.929116 0.267662
H42   H     H_    0.170204 0.507910 0.003551 0.292244
H43   H     H_    0.274327 0.514359 0.011856 0.241235
H44   H     H_    0.647976 0.347200 0.086388 0.143020
H45   H     H_    0.613338 0.304081 0.170195 0.139402
H46   H     H_    0.377462 0.190405 0.600283 0.349840
H47   H     H_    0.652625 0.213717 0.023920 0.239505
H48   H     H_    0.604843 0.174269 0.105481 0.188009
H49   H     H_    0.493633 0.263967 0.084078 0.261997
H50   H     H_    0.510394 0.203807 0.002675 0.281000
H51   H     H_    0.541712 0.304450 0.001936 0.273065
H52   H     H_    0.832044 0.594982 0.779790 0.345892
H53   H     H_    0.165762 0.409692 0.207016 0.347026
H54   H     H_    0.570297 0.225191 0.866473 0.339068
H55   H     H_    0.396830 0.730600 0.250975 0.329006
H56   H     H_    0.186937 0.417647 0.794788 0.341746
H57   H     H_    0.193897 0.620659 0.425910 0.340452
H58   H     H_    0.737068 0.563172 0.258291 0.351517
H59   H     H_    0.403458 0.814048 0.797277 0.345137
H60   H     H_    0.601362 0.151789 0.233829 0.321638
H61   H     H_    0.823334 0.390171 0.215744 0.347410
H62   H     H_    0.172205 0.574779 0.726429 0.353401
H63   H     H_    0.579353 0.794900 0.191974 0.350564
H64   H     H_    0.417831 0.196464 0.802611 0.354956
H65   H     H_    0.125696 0.632784 0.248384 0.355710
H66   H     H_    0.826635 0.431770 0.819508 0.354161
H67   H     H_    0.422956 0.217407 0.194383 0.340309
H68   H     H_    0.788047 0.407451 0.662471 0.353716
H69   H     H_    0.581622 0.812879 0.772348 0.359633
H70   H     H_    0.344328 0.100094 0.272412 0.346779
H71   H     H_    0.675906 0.914208 0.703926 0.342348
H72   H     H_    0.070699 0.735413 0.376329 0.343817
H73   H     H_    0.908510 0.247763 0.766607 0.337065
H74   H     H_    0.675012 0.910111 0.277521 0.342213
H75   H     H_    0.234250 0.069166 0.756247 0.345352
H76   H     H_    0.922281 0.296007 0.342273 0.341370
H77   H     H_    0.078481 0.658314 0.757618 0.337127
H78   H     H_    0.300064 0.911060 0.689164 0.343921
H79   H     H_    0.904442 0.291186 0.161890 0.342949
H80   H     H_    0.679915 0.063422 0.297318 0.334778
H81   H     H_    0.087761 0.310851 0.702732 0.349957
H82   H     H_    0.913746 0.698040 0.293649 0.352120
H83   H     H_    0.652451 0.120804 0.737237 0.349794
H84   H     H_    0.341021 0.922993 0.311231 0.349530
H85   H     H_    0.921351 0.704232 0.702423 0.347441
H86   H     H_    0.078071 0.301217 0.272637 0.368542
H87   H     H_    0.104709 0.693046 0.883104 0.312991
H88   H     H_    0.309755 0.123427 0.083263 0.339719
H89   H     H_    0.611274 0.189400 0.409226 0.327137
H90   H     H_    0.690702 0.884503 0.895457 0.339672
H91   H     H_    0.055603 0.742590 0.209623 0.357175
H92   H     H_    0.888289 0.311682 0.914864 0.334605
H93   H     H_    0.689520 0.878790 0.084535 0.337704
H94   H     H_    0.309660 0.118002 0.900300 0.347230
H95   H     H_    0.880079 0.690940 0.891103 0.335477
H96   H     H_    0.119009 0.311254 0.093266 0.334601
H97   H     H_    0.304510 0.885649 0.876774 0.337342
H98   H     H_    0.706535 0.095150 0.153875 0.323653
H99   H     H_    0.117340 0.310231 0.896182 0.339691
H100  H     H_    0.809846 0.623857 0.586659 0.335470
H101  H     H_    0.878377 0.688810 0.088609 0.349679
H102  H     H_    0.691552 0.119760 0.928185 0.334054
H103  H     H_    0.283807 0.905290 0.154227 0.352312
H104  H     H_    0.149813 0.073520 0.398123 0.084174
H105  H     H_    0.121695 0.117895 0.311389 0.132918
H106  H     H_    0.106199 0.181922 0.474930 0.211456
H107  H     H_    0.084662 0.239182 0.392954 0.228191
H108  H     H_    0.987801 0.131361 0.352005 0.316478
H109  H     H_    0.963713 0.184476 0.435486 0.308452
H110  H     H_    0.003278 0.088086 0.444966 0.231767
H111  H     H_    0.191152 0.382340 0.397992 0.344058
H112  H     H_    0.887105 0.906255 0.574481 0.116964
H113  H     H_    0.918837 0.844622 0.648229 0.141432
H114  H     H_    0.808240 0.983923 0.670039 0.231522
H115  H     H_    0.852334 0.926235 0.744051 0.228484
H116  H     H_    0.981727 0.969900 0.708721 0.289586
H117  H     H_    0.920948 0.051234 0.728138 0.277920
H118  H     H_    0.942301 0.027810 0.630978 0.267470
H119  H     H_    0.175451 0.928558 0.490353 0.098004
H120  H     H_    0.201054 0.945381 0.396547 0.122889
H121  H     H_    0.300682 0.936635 0.541517 0.205351
H122  H     H_    0.577944 0.222058 0.688257 0.356966
H123  H     H_    0.345973 0.907048 0.456147 0.228396
H124  H     H_    0.317014 0.035251 0.395016 0.293200
H125  H     H_    0.375463 0.044303 0.479481 0.289371
H126  H     H_    0.274544 0.067687 0.481731 0.271489
H127  H     H_    0.813581 0.137243 0.601981 0.118055
H128  H     H_    0.849215 0.165506 0.690410 0.081370
H129  H     H_    0.848987 0.259223 0.539187 0.240949
H130  H     H_    0.871133 0.305998 0.626217 0.243445
H131  H     H_    0.980799 0.219309 0.650832 0.291464
H132  H     H_    0.990113 0.263749 0.558349 0.291105
H133  H     H_    0.392522 0.810373 0.390780 0.331032
H134  H     H_    0.956840 0.163661 0.567136 0.253873
H135  H     H_    0.867917 0.910011 0.414022 0.125428
H136  H     H_    0.799125 0.930671 0.341934 0.164627
H137  H     H_    0.954290 0.847537 0.314810 0.281051
H138  H     H_    0.889920 0.885119 0.243097 0.198942
H139  H     H_    0.913457 0.019898 0.290652 0.286403
H140  H     H_    0.001013 0.973467 0.260202 0.270419
H141  H     H_    0.981597 0.981172 0.359970 0.267261
H142  H     H_    0.082478 0.141286 0.604914 0.127313
H143  H     H_    0.119459 0.124378 0.697443 0.096029
H144  H     H_    0.190846 0.382447 0.603161 0.337612
H145  H     H_    0.163435 0.056365 0.543820 0.179349
H146  H     H_    0.234056 0.054745 0.619569 0.258955
H147  H     H_    0.125255 0.988734 0.701348 0.286699
H148  H     H_    0.167953 0.934991 0.626504 0.312451
H149  H     H_    0.073828 0.976261 0.611371 0.253601
H150  H     H_    0.852217 0.097857 0.486208 0.102507
H151  H     H_    0.827494 0.071854 0.393446 0.148093
H152  H     H_    0.710251 0.122352 0.517028 0.241052
H153  H     H_    0.684150 0.084921 0.426013 0.209764
H154  H     H_    0.733662 0.957094 0.455759 0.267800
H155  H     H_    0.808970 0.616188 0.393655 0.349143
H156  H     H_    0.674089 0.986913 0.533161 0.286140
H157  H     H_    0.778188 0.991780 0.542390 0.253990
H158  H     H_    0.094206 0.843702 0.552025 0.119873
H159  H     H_    0.074591 0.812916 0.645176 0.143053
H160  H     H_    0.115877 0.703877 0.511649 0.220830
H161  H     H_    0.077652 0.673484 0.602003 0.215948
H162  H     H_    0.953486 0.737244 0.574557 0.262492
H163  H     H_    0.977276 0.672805 0.498627 0.287598
H164  H     H_    0.990412 0.776403 0.486524 0.275331
H165  H     H_    0.632193 0.582354 0.895648 0.087607
H166  H     H_    0.384179 0.191759 0.383155 0.336739
H167  H     H_    0.612289 0.627580 0.807577 0.127734
H168  H     H_    0.585583 0.686556 0.970786 0.205839
H169  H     H_    0.585362 0.753897 0.893259 0.222193
H170  H     H_    0.481293 0.668640 0.828271 0.315936
H171  H     H_    0.452607 0.713305 0.915333 0.303146
H172  H     H_    0.478205 0.611610 0.914857 0.240613
H173  H     H_    0.374024 0.413042 0.070307 0.107834
H174  H     H_    0.409146 0.355129 0.145115 0.138198
H175  H     H_    0.298462 0.495519 0.156862 0.214095
H176  H     H_    0.330138 0.438104 0.237061 0.244705
N1    N     N_R   0.424590 0.632770 0.578330 -0.141545
N2    N     N_R   0.575410 0.632770 0.578330 -0.144914
N3    N     N_R   0.632770 0.424590 0.421670 -0.139169
N4    N     N_R   0.367230 0.575410 0.578330 -0.140549
N5    N     N_R   0.575410 0.632770 0.421670 -0.141820
N6    N     N_R   0.424590 0.367230 0.578330 -0.148970
N7    N     N_R   0.367230 0.575410 0.421670 -0.141649
N8    N     N_R   0.632770 0.424590 0.578330 -0.134021
N9    N     N_R   0.924590 0.132770 0.078330 -0.136003
N10   N     N_R   0.075410 0.867230 0.921670 -0.136158
N11   N     N_R   0.132770 0.075410 0.078330 -0.152596
N12   N     N_R   0.575410 0.367230 0.421670 -0.141167
N13   N     N_R   0.867230 0.924590 0.921670 -0.142942
N14   N     N_R   0.075410 0.867230 0.078330 -0.118569
N15   N     N_R   0.924590 0.132770 0.921670 -0.132703
N16   N     N_R   0.867230 0.924590 0.078330 -0.148848
N17   N     N_R   0.132770 0.075410 0.921670 -0.137541
N18   N     N_R   0.924590 0.867230 0.921670 -0.143530
N19   N     N_R   0.075410 0.132770 0.078330 -0.146579
N20   N     N_R   0.132770 0.924590 0.921670 -0.134843
N21   N     N_R   0.867230 0.075410 0.078330 -0.138907
N22   N     N_R   0.075410 0.132770 0.921670 -0.142504
N23   N     N_R   0.632770 0.575410 0.578330 -0.146962
N24   N     N_R   0.924590 0.867230 0.078330 -0.151204
N25   N     N_R   0.867230 0.075410 0.921670 -0.137685
N26   N     N_R   0.132770 0.924590 0.078330 -0.132640
N27   N     N_R   0.367230 0.424590 0.421670 -0.140562
N28   N     N_R   0.575410 0.367230 0.578330 -0.131681
N29   N     N_R   0.424590 0.632770 0.421670 -0.134387
N30   N     N_R   0.367230 0.424590 0.578330 -0.144421
N31   N     N_R   0.632770 0.575410 0.421670 -0.135465
N32   N     N_R   0.424590 0.367230 0.421670 -0.141202
Ni1   Ni    Ni4+2 0.500000 0.631570 0.500000 0.297376
Ni2   Ni    Ni4+2 0.500000 0.368430 0.500000 0.297902
Ni3   Ni    Ni4+2 0.631570 0.500000 0.500000 0.294129
Ni4   Ni    Ni4+2 0.368430 0.500000 0.500000 0.295121
Ni5   Ni    Ni4+2 1.000000 0.131570 0.000000 0.295552
Ni6   Ni    Ni4+2 0.000000 0.868430 0.000000 0.299928
Ni7   Ni    Ni4+2 0.131570 0.000000 0.000000 0.288829
Ni8   Ni    Ni4+2 0.868430 0.000000 0.000000 0.292400
O1    O     O_3   0.423593 0.770089 0.594791 -0.617095
O2    O     O_3   0.575862 0.770671 0.587101 -0.619770
O3    O     O_3   0.770273 0.422363 0.416008 -0.619972
O4    O     O_3   0.230847 0.571992 0.588767 -0.640691
O5    O     O_3   0.577362 0.770276 0.403182 -0.620935
O6    O     O_3   0.417735 0.229174 0.585328 -0.626459
O7    O     O_3   0.230199 0.577009 0.419573 -0.599164
O8    O     O_3   0.752887 0.446645 0.640592 -0.617124
O9    O     O_3   0.940807 0.256792 0.135695 -0.625536
O10   O     O_3   0.067522 0.732252 0.899600 -0.641229
O11   O     O_3   0.270301 0.081376 0.076699 -0.616843
O12   O     O_3   0.572105 0.229933 0.416776 -0.630588
O13   O     O_3   0.730457 0.925614 0.905071 -0.602071
O14   O     O_3   0.042164 0.760262 0.158129 -0.643386
O15   O     O_3   0.927272 0.270475 0.921207 -0.621995
O16   O     O_3   0.729599 0.919840 0.076121 -0.615032
O17   O     O_3   0.270032 0.077042 0.910701 -0.613410
O18   O     O_3   0.920490 0.729521 0.906310 -0.625499
O19   O     O_3   0.078881 0.271023 0.081812 -0.629067
O20   O     O_3   0.267609 0.925902 0.892858 -0.626759
O21   O     O_3   0.742196 0.058038 0.130471 -0.626995
O22   O     O_3   0.076526 0.270472 0.906618 -0.614897
O23   O     O_3   0.770461 0.582096 0.578213 -0.615948
O24   O     O_3   0.919053 0.728866 0.078609 -0.618113
O25   O     O_3   0.730119 0.077583 0.926271 -0.614187
O26   O     O_3   0.248879 0.949754 0.145610 -0.605483
O27   O     O_3   0.217023 0.168211 0.370772 -0.660864
O28   O     O_3   0.800694 0.837337 0.618042 -0.636319
O29   O     O_3   0.220651 0.831861 0.440901 -0.614617
O30   O     O_3   0.747662 0.220333 0.650819 -0.657144
O31   O     O_3   0.815828 0.813218 0.369386 -0.634092
O32   O     O_3   0.188078 0.193725 0.622376 -0.646608
O33   O     O_3   0.808864 0.188601 0.425023 -0.672579
O34   O     O_3   0.230361 0.424166 0.406760 -0.602789
O35   O     O_3   0.188477 0.795904 0.604172 -0.642265
O36   O     O_3   0.706915 0.672837 0.871530 -0.655762
O37   O     O_3   0.290881 0.342111 0.116839 -0.635200
O38   O     O_3   0.697386 0.328534 0.938519 -0.644916
O39   O     O_3   0.223281 0.722606 0.148365 -0.642579
O40   O     O_3   0.316002 0.312101 0.885443 -0.625971
O41   O     O_3   0.681193 0.676618 0.117198 -0.642372
O42   O     O_3   0.303889 0.701630 0.881973 -0.674322
O43   O     O_3   0.727706 0.276709 0.135057 -0.653446
O44   O     O_3   0.795416 0.602344 0.736847 -0.659905
O45   O     O_3   0.550366 0.251316 0.648491 -0.634410
O46   O     O_3   0.195077 0.400708 0.254765 -0.705405
O47   O     O_3   0.573996 0.262986 0.823995 -0.732776
O48   O     O_3   0.376365 0.783864 0.245928 -0.708303
O49   O     O_3   0.221617 0.408932 0.751241 -0.697871
O50   O     O_3   0.784519 0.593572 0.246616 -0.672443
O51   O     O_3   0.396494 0.781301 0.751633 -0.688952
O52   O     O_3   0.607178 0.200415 0.263183 -0.708818
O53   O     O_3   0.793743 0.384816 0.263385 -0.695466
O54   O     O_3   0.222421 0.587455 0.751271 -0.725605
O55   O     O_3   0.590887 0.769846 0.241459 -0.706694
O56   O     O_3   0.428883 0.769951 0.407783 -0.625687
O57   O     O_3   0.407612 0.224680 0.754487 -0.672781
O58   O     O_3   0.165538 0.632283 0.289131 -0.681305
O59   O     O_3   0.773604 0.430686 0.797432 -0.710894
O60   O     O_3   0.410216 0.252926 0.236369 -0.715174
O61   O     O_3   0.593657 0.763143 0.747209 -0.706574
O62   O     O_3   0.305023 0.105504 0.231505 -0.653762
O63   O     O_3   0.705328 0.904960 0.751571 -0.706732
O64   O     O_3   0.076595 0.782062 0.343573 -0.760419
O65   O     O_3   0.882835 0.298798 0.765032 -0.707386
O66   O     O_3   0.712467 0.902015 0.236105 -0.679262
O67   O     O_3   0.230180 0.422997 0.590457 -0.617369
O68   O     O_3   0.284097 0.097850 0.751372 -0.668067
O69   O     O_3   0.917974 0.258034 0.300348 -0.701884
O70   O     O_3   0.085745 0.712921 0.740812 -0.721553
O71   O     O_3   0.264860 0.903051 0.732685 -0.704210
O72   O     O_3   0.736293 0.072118 0.290519 -0.738476
O73   O     O_3   0.096585 0.278772 0.748779 -0.712456
O74   O     O_3   0.902719 0.723070 0.244039 -0.690249
O75   O     O_3   0.683151 0.125161 0.784737 -0.678595
O76   O     O_3   0.286991 0.927792 0.292391 -0.694967
O77   O     O_3   0.909837 0.743011 0.741930 -0.702216
O78   O     O_3   0.769530 0.575617 0.405954 -0.615877
O79   O     O_3   0.093464 0.251242 0.249900 -0.696360
O80   O     O_3   0.423989 0.230566 0.399171 -0.625824

loop_
_geom_bond_atom_site_label_1
_geom_bond_atom_site_label_2
_ccdc_geom_bond_type
H122  O45   S    
C157  C158  S    
H95   O18   S    
C46   C112  A    
C55   H20   S    
C131  C151  S    
C62   H36   S    
C21   H114  S    
H100  O23   S    
C22   H117  S    
N3    N12   A    
C85   N24   A    
C95   N27   A    
C154  O75   S    
C151  O72   S    
C80   N19   A    
C14   C102  S    
H155  O78   S    
C59   H26   S    
C47   O37   S    
C54   H16   S    
C3    O30   S    
C31   H137  S    
C27   H128  S    
H75   O68   S    
C16   C104  S    
C80   C116  A    
C73   N12   A    
C6    C94   S    
C12   C135  S    
C57   O7    S    
N2    N23   A    
H90   O13   S    
C85   C121  A    
C69   H51   S    
C9    O37   S    
C10   C125  S    
C142  C159  S    
C95   O34   S    
C4    C153  S    
C21   C22   S    
H13   O3    S    
C104  C147  S    
C71   N10   A    
C106  N28   A    
C8    O36   S    
H93   O16   S    
N10   N20   A    
C32   H139  S    
C30   H135  S    
C123  C156  S    
H35   O5    S    
C44   H169  S    
C153  O74   S    
C51   C52   S    
C37   H151  S    
C51   H9    S    
C11   C126  S    
C38   H152  S    
C95   C109  A    
C52   H10   S    
C18   H106  S    
C47   H174  S    
C94   C132  S    
C63   H37   S    
C75   N14   A    
C58   H23   S    
N23   Ni3   S    
C43   C44   S    
C37   C38   S    
C9    C138  S    
C65   H43   S    
C98   C157  S    
C135  C146  S    
C138  O60   S    
C90   C126  S    
C7    O35   S    
C8    C123  S    
H69   O61   S    
C68   C110  A    
C102  C153  S    
C88   C138  S    
C40   H159  S    
C88   C109  S    
C48   H175  S    
C146  O68   S    
C17   O27   S    
C64   H40   S    
C76   N15   A    
C13   O3    S    
C55   H18   S    
C62   H34   S    
C25   H121  S    
H84   O76   S    
C24   O4    S    
N1    N4    A    
C141  O62   S    
C66   H45   S    
C72   C116  A    
H83   O75   S    
C91   C125  S    
N16   Ni8   S    
N5    N31   A    
C138  C141  S    
C54   H17   S    
C40   O35   S    
C14   C134  S    
C133  O54   S    
C101  C122  S    
C8    C140  S    
C142  O63   S    
C11   C136  S    
C42   H164  S    
C30   C31   S    
C15   C130  S    
H53   O46   S    
C89   C108  S    
C2    C108  A    
C53   H14   S    
C35   C113  A    
C16   O43   S    
C10   C99   S    
C97   C142  S    
C34   H146  S    
C2    N2    A    
C134  O55   S    
C93   C112  S    
C106  O45   S    
C37   O33   S    
C20   C21   S    
C60   H30   S    
C61   H31   S    
C84   O23   S    
C15   C103  S    
C1    C105  A    
C157  O79   S    
C9    C98   S    
N27   N32   A    
H52   O44   S    
C88   C124  S    
C52   H12   S    
C60   O41   S    
C143  C160  S    
C19   H109  S    
C57   C111  A    
C53   C54   S    
C12   O40   S    
C86   C120  A    
C76   C120  A    
C36   H147  S    
H86   O79   S    
C117  O56   S    
C136  C143  S    
C38   C39   S    
C68   N8    A    
C86   N25   A    
C99   C154  S    
H74   O66   S    
C72   O11   S    
C97   C156  S    
C150  O80   S    
C16   C131  S    
H111  O34   S    
N15   N25   A    
C49   H4    S    
C33   O32   S    
C113  C139  A    
C59   H27   S    
C81   N20   A    
C25   H123  S    
C102  C121  S    
C13   N3    A    
C26   H124  S    
C140  O61   S    
N29   Ni1   S    
C45   H171  S    
H103  O26   S    
C66   H44   S    
C66   C67   S    
C24   N4    A    
C148  O70   S    
C123  O44   S    
N31   Ni3   S    
H99   O22   S    
C133  C148  S    
C90   C111  S    
H62   O54   S    
C16   C132  S    
C159  O28   S    
C89   C159  S    
C132  O53   S    
C74   C118  A    
C94   C107  S    
C149  O71   S    
H67   O60   S    
C79   O18   S    
H85   O77   S    
C26   H125  S    
C42   H162  S    
C84   N23   A    
C23   H119  S    
H56   O49   S    
H82   O74   S    
C41   H160  S    
C25   C26   S    
C3    C154  S    
H54   O47   S    
C79   N18   A    
C63   O42   S    
C87   C119  A    
C15   O42   S    
C31   C32   S    
C89   C140  S    
C17   C18   S    
C11   O39   S    
H2    O2    S    
C100  C119  S    
C29   H132  S    
H65   O58   S    
C5    O32   S    
C152  O73   S    
C137  C144  S    
C88   C158  S    
N16   N24   A    
C139  N31   A    
C74   O13   S    
C136  O58   S    
C40   H158  S    
C125  C154  S    
C53   H15   S    
C54   C55   S    
N14   N26   A    
C36   H149  S    
N9    N21   A    
H66   O59   S    
C132  C147  S    
C55   H19   S    
C92   C134  S    
C93   C135  S    
C22   H118  S    
C68   O8    S    
N6    Ni2   S    
C17   H104  S    
C109  C150  A    
C12   C101  S    
C129  C153  S    
C6    C147  S    
H58   O50   S    
H71   O63   S    
C4    C145  S    
C85   O24   S    
H96   O19   S    
C56   C58   S    
C34   C36   S    
C83   C122  A    
C61   C62   S    
C49   H3    S    
C77   C121  A    
C27   H127  S    
C63   C64   S    
H46   O6    S    
H87   O10   S    
C69   H49   S    
H98   O21   S    
H63   O55   S    
C41   H161  S    
C69   H50   S    
H68   O8    S    
N12   Ni2   S    
N13   N18   A    
C70   O9    S    
C160  O29   S    
C96   C105  S    
C41   C42   S    
C130  O51   S    
N32   Ni2   S    
C32   H140  S    
C30   H136  S    
C7    C96   S    
C124  O46   S    
C37   H150  S    
C91   C110  S    
C28   C29   S    
N6    N30   A    
C140  C142  S    
C28   H129  S    
C102  C145  S    
C18   H107  S    
C33   H143  S    
C73   C107  A    
C56   H21   S    
C47   H173  S    
C43   O36   S    
H70   O62   S    
C86   O25   S    
H24   O4    S    
C3    C91   S    
C18   C19   S    
C4    O31   S    
C20   H113  S    
C43   H167  S    
C46   O6    S    
C65   H42   S    
C50   H6    S    
C83   O22   S    
N25   Ni8   S    
N18   Ni6   S    
N13   Ni8   S    
C92   C113  S    
C145  O66   S    
C126  C155  S    
C48   H176  S    
C56   O40   S    
C58   H25   S    
C30   O31   S    
C87   N26   A    
C21   H115  S    
C82   N21   A    
C22   H116  S    
C66   O43   S    
C44   H168  S    
H76   O69   S    
H89   O12   S    
N3    Ni3   S    
C99   C144  S    
N1    Ni1   S    
C58   C59   S    
C70   C114  A    
C60   C61   S    
C46   N6    A    
N17   Ni7   S    
C103  C115  S    
C49   H5    S    
C31   H138  S    
N19   Ni5   S    
C128  O67   S    
C32   H141  S    
C156  O77   S    
C124  C157  S    
C50   C51   S    
C75   O14   S    
C117  N29   A    
C50   O38   S    
H97   O20   S    
H60   O52   S    
N7    N29   A    
H61   O53   S    
C48   C49   S    
N9    Ni5   S    
N11   Ni7   S    
N30   Ni4   S    
C44   C45   S    
C96   C130  S    
C35   O5    S    
C134  C145  S    
H166  O80   S    
C155  O76   S    
C3    C144  S    
N2    Ni1   S    
C100  C143  S    
C10   O38   S    
C101  C152  S    
C94   C131  S    
C36   H148  S    
C63   H38   S    
C111  C117  A    
C64   C65   S    
N8    Ni3   S    
C92   C129  S    
C23   O29   S    
C43   H165  S    
C74   N13   A    
C82   O21   S    
N8    N28   A    
C84   C108  A    
C76   O15   S    
C90   C160  S    
C39   H157  S    
N27   Ni4   S    
C112  C128  A    
C103  C149  S    
C128  N30   A    
C141  C158  S    
C158  O27   S    
C135  O57   S    
C64   H39   S    
C72   N11   A    
C62   H33   S    
N11   N19   A    
C45   H170  S    
C4    C92   S    
C14   C129  S    
C79   C118  A    
N26   Ni7   S    
C38   H153  S    
C137  O59   S    
C13   C107  A    
C78   N17   A    
C12   C127  S    
N15   Ni5   S    
C5    C152  S    
N10   Ni6   S    
C104  C151  S    
C83   N22   A    
C26   H126  S    
C27   O30   S    
C42   H163  S    
C70   N9    A    
H91   O14   S    
C78   O17   S    
C9    C124  S    
N28   Ni2   S    
C97   C118  S    
C34   H145  S    
C17   H105  S    
C99   C120  S    
C91   C137  S    
C60   H29   S    
C61   H32   S    
C10   C137  S    
C127  O49   S    
C80   O19   S    
C20   H112  S    
C77   N16   A    
C150  N32   A    
N17   N22   A    
H77   O70   S    
C143  O64   S    
H64   O57   S    
C23   C25   S    
N4    Ni4   S    
C7    C149  S    
C71   O10   S    
C35   N5    A    
C51   H8    S    
C147  O69   S    
C39   H156  S    
C52   H11   S    
H72   O64   S    
C103  C148  S    
C19   H110  S    
N24   Ni6   S    
C1    O1    S    
C101  C146  S    
C6    O33   S    
C53   O39   S    
C75   C119  A    
C82   C114  A    
H144  O67   S    
H102  O25   S    
H101  O24   S    
C89   C123  S    
H92   O15   S    
H81   O73   S    
C11   C100  S    
C67   C69   S    
C81   O20   S    
C8    C97   S    
C93   C127  S    
C87   O26   S    
C127  C152  S    
C90   C136  S    
C129  O50   S    
C98   C116  S    
C47   C48   S    
H59   O51   S    
C81   C115  A    
C130  C149  S    
C33   C34   S    
C139  O78   S    
C71   C115  A    
C59   H28   S    
N20   Ni7   S    
H1    O1    S    
N7    Ni4   S    
N22   Ni5   S    
C45   H172  S    
C104  C114  S    
C40   C41   S    
C125  O47   S    
C126  O48   S    
C98   C141  S    
H80   O72   S    
C6    C151  S    
C1    N1    A    
C50   H7    S    
C67   H47   S    
C100  C155  S    
C7    C148  S    
C106  C110  A    
C29   H131  S    
C5    C146  S    
C155  C160  S    
N21   Ni8   S    
C156  C159  S    
H55   O48   S    
C29   H134  S    
C5    C93   S    
C23   H120  S    
C20   O28   S    
H94   O17   S    
C96   C133  S    
C15   C133  S    
C77   O16   S    
H88   O11   S    
N5    Ni1   S    
C73   O12   S    
C28   H130  S    
H133  O56   S    
C33   H142  S    
N14   Ni6   S    
C56   H22   S    
C14   O41   S    
C144  O65   S    
C2    O2    S    
C78   C122  A    
C131  O52   S    
C67   H48   S    
H78   O71   S    
C65   H41   S    
H57   O7    S    
H73   O65   S    
C27   C28   S    
C24   C105  A    
C39   H154  S    
H79   O9    S    
C57   N7    A    
C19   H108  S    
