data_mof_unit_33065.cif
_audit_creation_date              2012-12-10T17:24:45-0500
_audit_creation_method            fapswitch 2.2
_symmetry_space_group_name_H-M    P1
_symmetry_Int_Tables_number       1
_space_group_crystal_system       triclinic
_cell_length_a                    23.529219
_cell_length_b                    10.889067
_cell_length_c                    9.593245
_cell_angle_alpha                 88.083436
_cell_angle_beta                  89.542188
_cell_angle_gamma                 93.320062
_cell_volume                      2452.27783073

loop_
_atom_site_label
_atom_site_type_symbol
_atom_type_description
_atom_site_fract_x
_atom_site_fract_y
_atom_site_fract_z
_atom_type_partial_charge
C1    C     C_R   0.500888 0.261755 0.503205 0.837762
C2    C     C_R   0.963126 0.298398 0.601974 -0.232939
C3    C     C_R   0.022367 0.294419 0.602003 -0.143788
C4    C     C_R   0.056945 0.399966 0.555647 -0.053166
C5    C     C_R   0.030400 0.505878 0.503637 -0.010883
C6    C     C_R   0.063707 0.611173 0.452948 -0.085075
C7    C     C_R   0.035912 0.718359 0.408085 -0.046302
C8    C     C_R   0.976461 0.714926 0.403598 -0.180181
C9    C     C_R   0.116999 0.405395 0.561780 0.549757
C10   C     C_R   0.123349 0.603152 0.445597 0.561758
C11   C     C_R   0.239393 0.516902 0.627233 -0.082943
C12   C     C_R   0.391017 0.499753 0.500514 0.829375
C13   C     C_R   0.298621 0.515691 0.626713 -0.172236
C14   C     C_R   0.328465 0.500418 0.501526 -0.049233
C15   C     C_R   0.297976 0.486194 0.377088 -0.191353
C16   C     C_R   0.238750 0.486978 0.378014 -0.080945
C17   C     C_R   0.209281 0.502509 0.502965 0.341866
C18   C     C_R   0.761545 0.507123 0.372009 -0.096821
C19   C     C_R   0.702214 0.505228 0.372051 -0.219224
C20   C     C_R   0.671653 0.503845 0.498709 -0.036128
C21   C     C_R   0.701545 0.505478 0.625035 -0.218914
C22   C     C_R   0.760808 0.507346 0.624654 -0.098100
C23   C     C_R   0.494308 0.736378 0.497363 0.778205
C24   C     C_R   0.791014 0.507741 0.498292 0.351248
C25   C     C_R   0.481602 0.098030 0.767666 -0.096459
C26   C     C_R   0.453276 0.029705 0.875369 -0.041699
C27   C     C_R   0.428254 0.914143 0.850298 -0.140268
C28   C     C_R   0.437231 0.861106 0.722798 -0.132677
C29   C     C_R   0.468996 0.926407 0.615409 0.087146
C30   C     C_R   0.484051 0.052606 0.631072 0.083777
C31   C     C_R   0.499785 0.126207 0.509407 -0.139936
C32   C     C_R   0.506147 0.069586 0.381912 -0.247427
C33   C     C_R   0.498512 0.943137 0.370732 -0.017586
C34   C     C_R   0.609008 0.501172 0.499484 0.773930
C35   C     C_R   0.484820 0.869243 0.491930 -0.171737
C36   C     C_R   0.578402 0.658532 0.137387 -0.115494
C37   C     C_R   0.618082 0.733814 0.062150 -0.138875
C38   C     C_R   0.618084 0.734725 0.918437 -0.190642
C39   C     C_R   0.578735 0.659593 0.849132 -0.125464
C40   C     C_R   0.538953 0.577636 0.921676 0.130731
C41   C     C_R   0.538883 0.577382 0.071298 0.167793
C42   C     C_R   0.462555 0.427514 0.078395 -0.094384
C43   C     C_R   0.462058 0.427906 0.930954 0.411032
C44   C     C_R   0.883686 0.608848 0.449217 0.547628
C45   C     C_R   0.877207 0.405099 0.549424 0.543025
C46   C     C_R   0.936789 0.402811 0.552270 -0.000077
C47   C     C_R   0.970272 0.506420 0.502102 -0.006327
C48   C     C_R   0.943438 0.610464 0.450153 -0.038402
Cu1   Cu    Cu3+1 0.500000 0.499990 0.640660 0.974705
Cu2   Cu    Cu3+1 0.500000 0.500010 0.359340 0.964322
H1    H     H_    0.937417 0.217236 0.637283 0.195012
H2    H     H_    0.680364 0.504451 0.273116 0.163307
H3    H     H_    0.679229 0.505066 0.724242 0.164327
H4    H     H_    0.783359 0.508297 0.722613 0.145461
H5    H     H_    0.516035 0.124812 0.287729 0.189375
H6    H     H_    0.502485 0.183681 0.796403 0.183186
H7    H     H_    0.449858 0.067661 0.977796 0.164757
H8    H     H_    0.403104 0.864104 0.930708 0.161733
H9    H     H_    0.417731 0.770141 0.707516 0.156188
H10   H     H_    0.431879 0.368484 0.137514 0.171402
H11   H     H_    0.579430 0.670269 0.246783 0.191914
H12   H     H_    0.648003 0.794441 0.115967 0.169070
H13   H     H_    0.648208 0.795670 0.859850 0.160922
H14   H     H_    0.581218 0.671052 0.738912 0.199456
H15   H     H_    0.955840 0.796722 0.368248 0.211871
H16   H     H_    0.216820 0.529311 0.724091 0.154120
H17   H     H_    0.320977 0.527447 0.724032 0.186692
H18   H     H_    0.319801 0.473967 0.279137 0.171115
H19   H     H_    0.215663 0.475450 0.281688 0.153584
H20   H     H_    0.784662 0.507178 0.273947 0.146487
N1    N     N_R   0.851963 0.507163 0.498552 -0.471980
N2    N     N_R   0.148319 0.503788 0.503635 -0.471480
N3    N     N_R   0.500540 0.501210 0.147910 -0.216505
N4    N     N_R   0.500560 0.501290 0.852040 -0.228961
O1    O     O_R   0.500000 0.319640 0.618810 -0.557550
O2    O     O_2   0.844686 0.305748 0.596035 -0.527233
O3    O     O_2   0.144357 0.314202 0.625843 -0.486346
O4    O     O_2   0.156468 0.692139 0.379016 -0.495534
O5    O     O_R   0.500000 0.319660 0.381240 -0.583549
O6    O     O_R   0.417880 0.499950 0.618810 -0.535600
O7    O     O_R   0.417880 0.499980 0.381240 -0.576364
O8    O     O_R   0.500000 0.680340 0.618760 -0.610710
O9    O     O_R   0.500000 0.680360 0.381190 -0.564757
O10   O     O_R   0.582120 0.500020 0.618760 -0.603600
O11   O     O_R   0.582120 0.500050 0.381190 -0.602262
O12   O     O_2   0.857464 0.708499 0.400843 -0.527191
C49   C     C_2   0.500766 0.894970 0.228215 0.843670
O13   O     O_2   0.538248 0.934026 0.146535 -0.619586
O14   O     O_R   0.457977 0.810945 0.184316 -0.735270
H21   H     H_    0.465933 0.780062 0.088147 0.321699
C50   C     C_2   0.045284 0.174239 0.642057 0.981854
O15   O     O_2   0.075074 0.123306 0.559628 -0.469338
O16   O     O_R   0.031208 0.115173 0.770358 -0.699956
H22   H     H_    0.007204 0.166025 0.831891 0.299436
Cl1   Cl    Cl    0.408977 0.333959 0.853591 -0.635263
C51   C     C_2   0.066028 0.839315 0.375103 0.957119
O17   O     O_2   0.102037 0.881397 0.454417 -0.480517
O18   O     O_R   0.050623 0.908522 0.257433 -0.741557
H23   H     H_    0.073207 0.990569 0.247537 0.358979

loop_
_geom_bond_atom_site_label_1
_geom_bond_atom_site_label_2
_ccdc_geom_bond_type
C18   H20   S    
C49   O13   D    
C4    C9    A    
O16   H22   S    
C23   O8    A    
C45   N1    A    
C19   C20   A    
C25   H6    S    
Cu2   O5    S    
C37   H12   S    
C10   O4    S    
C7    C8    A    
C22   H4    S    
C45   C46   A    
C2    C46   A    
C39   H14   S    
C5    C47   A    
C26   C27   A    
C37   C38   A    
C23   O9    A    
C45   O2    S    
C18   C24   A    
Cu1   O10   S    
C36   C37   A    
C30   C31   A    
C15   C16   A    
C1    C31   S    
C44   N1    A    
C3    C50   S    
C18   C19   A    
Cu2   O11   S    
C19   H2    S    
C11   C17   A    
C47   C48   A    
C16   C17   A    
C51   O18   S    
C43   Cl1   S    
C9    N2    A    
C32   H5    S    
C11   H16   S    
C20   C34   S    
C43   N4    A    
C8    H15   S    
C21   C22   A    
C36   C41   A    
C34   O10   A    
C44   O12   S    
Cu2   O9    S    
C38   C39   A    
C1    O1    A    
Cu2   N3    S    
C42   H10   S    
C50   O15   D    
C25   C26   A    
C34   O11   A    
Cu1   O8    S    
C8    C48   A    
C29   C30   A    
C7    C51   S    
C50   O16   S    
C31   C32   A    
C51   O17   D    
Cu1   O1    S    
C9    O3    S    
C40   C41   A    
C12   C14   S    
O18   H23   S    
C23   C35   S    
C49   O14   S    
C1    O5    A    
C22   C24   A    
C42   C43   A    
C3    C4    A    
C39   C40   A    
C38   H13   S    
C13   H17   S    
C28   H9    S    
C25   C30   A    
C46   C47   A    
C28   C29   A    
C42   N3    A    
Cu1   N4    S    
C16   H19   S    
C4    C5    A    
C27   H8    S    
C6    C10   A    
C6    C7    A    
C29   C35   A    
Cu1   O6    S    
C32   C33   A    
C2    C3    A    
C33   C49   S    
C21   H3    S    
C11   C13   A    
C5    C6    A    
C15   H18   S    
C12   O6    A    
C33   C35   A    
C40   N4    A    
C12   O7    A    
C26   H7    S    
C2    H1    S    
C41   N3    A    
C44   C48   A    
C20   C21   A    
C24   N1    S    
C17   N2    S    
Cu1   Cu2   S    
C27   C28   A    
C14   C15   A    
O14   H21   S    
C13   C14   A    
C36   H11   S    
Cu2   O7    S    
C10   N2    A    
