data_mof_unit_25272.cif
_audit_creation_date              2012-12-10T17:46:18-0500
_audit_creation_method            fapswitch 2.2
_symmetry_space_group_name_H-M    P1
_symmetry_Int_Tables_number       1
_space_group_crystal_system       triclinic
_cell_length_a                    14.129232
_cell_length_b                    10.604265
_cell_length_c                    9.99476
_cell_angle_alpha                 88.625311
_cell_angle_beta                  91.531167
_cell_angle_gamma                 91.802371
_cell_volume                      1495.83909377

loop_
_atom_site_label
_atom_site_type_symbol
_atom_type_description
_atom_site_fract_x
_atom_site_fract_y
_atom_site_fract_z
_atom_type_partial_charge
C1    C     C_R   0.501038 0.261067 0.501404 0.855447
C2    C     C_1   0.772138 0.500051 0.504188 -0.223398
C3    C     C_R   0.670338 0.134697 0.588527 -0.166553
C4    C     C_R   0.752199 0.070591 0.624346 -0.135647
C5    C     C_R   0.753015 0.939848 0.616142 -0.131338
C6    C     C_R   0.671770 0.872894 0.573038 -0.179765
C7    C     C_R   0.587467 0.936324 0.538616 0.062122
C8    C     C_R   0.587319 0.067908 0.544969 0.095524
C9    C     C_R   0.504295 0.128949 0.504119 -0.127795
C10   C     C_R   0.423306 0.064772 0.457813 -0.248148
C11   C     C_R   0.421158 0.935186 0.454230 0.154382
C12   C     C_R   0.329449 0.499297 0.498547 0.854784
C13   C     C_R   0.503396 0.872014 0.495743 -0.136115
C14   C     C_R   0.349712 0.382753 0.137713 -0.138309
C15   C     C_R   0.263509 0.361471 0.069225 0.168176
C16   C     C_R   0.261983 0.368477 0.929867 -0.173803
C17   C     C_R   0.349114 0.370165 0.865655 0.161879
C18   C     C_R   0.426497 0.438325 0.928076 0.045008
C19   C     C_R   0.426551 0.440956 0.071549 0.085513
C20   C     C_R   0.569922 0.557998 0.073694 -0.105137
C21   C     C_R   0.570502 0.558997 0.931233 0.228416
C22   C     C_R   0.500451 0.739102 0.498538 0.865015
C23   C     C_R   0.670557 0.500393 0.501469 0.864471
C24   C     C_1   0.227882 0.498962 0.495925 -0.219637
C25   C     C_1   0.142558 0.498824 0.496351 -0.018107
C26   C     C_1   0.042649 0.498889 0.498780 -0.000029
C27   C     C_1   0.957375 0.499155 0.501376 -0.000512
C28   C     C_1   0.857462 0.499634 0.503818 -0.016497
H1    H     H_    0.361116 0.116315 0.425790 0.137251
H2    H     H_    0.198146 0.337093 0.876298 0.158772
H3    H     H_    0.672927 0.236384 0.594531 0.138355
H4    H     H_    0.815366 0.122603 0.657390 0.137533
H5    H     H_    0.816873 0.890166 0.642561 0.137934
H6    H     H_    0.676034 0.771707 0.565617 0.125230
H7    H     H_    0.626742 0.604982 0.129814 0.150802
H8    H     H_    0.355856 0.349697 0.239265 0.194090
N1    N     N_R   0.499190 0.498800 0.142780 -0.119671
N2    N     N_R   0.499160 0.498720 0.857170 -0.109239
O1    O     O_R   0.500000 0.316780 0.614690 -0.642247
O2    O     O_R   0.499990 0.316750 0.385360 -0.610458
O3    O     O_R   0.373720 0.500010 0.614690 -0.595490
O4    O     O_R   0.373710 0.499990 0.385360 -0.609078
O5    O     O_R   0.500010 0.683250 0.614640 -0.614720
O6    O     O_R   0.500000 0.683220 0.385310 -0.598405
O7    O     O_R   0.626290 0.500010 0.614640 -0.604343
O8    O     O_R   0.626280 0.499990 0.385310 -0.589832
Zn1   Zn    Zn3+2 0.500010 0.500020 0.653130 0.919066
Zn2   Zn    Zn3+2 0.499990 0.499980 0.346870 0.933121
C29   C     C_3   0.367618 0.250144 0.791730 -0.326347
C30   C     C_3   0.317443 0.129442 0.845755 -0.946684
H9    H     H_    0.332099 0.117018 0.954994 0.274642
H10   H     H_    0.239836 0.131699 0.825909 0.259128
H11   H     H_    0.344201 0.046458 0.794310 0.263710
H12   H     H_    0.345012 0.262296 0.685220 0.218129
H13   H     H_    0.443773 0.229410 0.805115 0.240924
C31   C     C_3   0.652211 0.626185 0.864718 -0.829712
H14   H     H_    0.626516 0.690890 0.784688 0.268464
H15   H     H_    0.694676 0.684730 0.936432 0.197615
H16   H     H_    0.700468 0.556467 0.825258 0.246179
C32   C     C_3   0.330044 0.868243 0.407730 -0.399659
C33   C     C_3   0.322725 0.866162 0.255177 -0.806837
H17   H     H_    0.383187 0.815987 0.214765 0.276121
H18   H     H_    0.255871 0.816175 0.223691 0.244548
H19   H     H_    0.322462 0.963916 0.212594 0.248155
H20   H     H_    0.324294 0.770215 0.448469 0.197869
H21   H     H_    0.268170 0.917361 0.445862 0.197523
C34   C     C_3   0.176396 0.318328 0.142167 -0.913912
H22   H     H_    0.189574 0.314748 0.252253 0.238920
H23   H     H_    0.118555 0.384676 0.119570 0.250814
H24   H     H_    0.153526 0.222535 0.109401 0.241790

loop_
_geom_bond_atom_site_label_1
_geom_bond_atom_site_label_2
_ccdc_geom_bond_type
C32   H20   S    
C33   H19   S    
C30   H10   S    
C12   O3    A    
C23   O7    A    
C21   C31   S    
C2    C28   T    
C9    C10   A    
C12   C24   S    
C22   O5    A    
C31   H16   S    
C34   H24   S    
C15   C34   S    
C20   C21   A    
C17   C18   A    
O3    Zn1   S    
C32   H21   S    
C7    C8    A    
C23   O8    A    
O4    Zn2   S    
C11   C32   S    
C24   C25   T    
N1    Zn2   S    
C3    H3    S    
C20   N1    A    
C11   C13   A    
C10   H1    S    
N2    Zn1   S    
C4    H4    S    
C32   C33   S    
C5    C6    A    
C21   N2    A    
C31   H15   S    
C13   C22   S    
C29   C30   S    
C6    C7    A    
O7    Zn1   S    
C14   H8    S    
C33   H17   S    
O8    Zn2   S    
C30   H11   S    
C19   N1    A    
C15   C16   A    
C1    O1    A    
C34   H23   S    
C16   H2    S    
C34   H22   S    
C6    H6    S    
C7    C13   A    
C1    C9    S    
C31   H14   S    
O1    Zn1   S    
C3    C8    A    
C10   C11   A    
C17   C29   S    
C2    C23   S    
C33   H18   S    
C18   C19   A    
O2    Zn2   S    
C14   C15   A    
C4    C5    A    
C26   C27   T    
C12   O4    A    
C29   H12   S    
C1    O2    A    
C30   H9    S    
C25   C26   S    
C18   N2    A    
C20   H7    S    
O5    Zn1   S    
C14   C19   A    
C22   O6    A    
C3    C4    A    
O6    Zn2   S    
C16   C17   A    
C8    C9    A    
C27   C28   S    
C29   H13   S    
C5    H5    S    
