data_mof_unit_17083.cif
_audit_creation_date              2012-12-11T14:39:36-0500
_audit_creation_method            fapswitch 2.2
_symmetry_space_group_name_H-M    P1
_symmetry_Int_Tables_number       1
_space_group_crystal_system       monoclinic
_cell_length_a                    7.218692
_cell_length_b                    14.035905
_cell_length_c                    16.36285
_cell_angle_alpha                 90.0
_cell_angle_beta                  97.308263
_cell_angle_gamma                 90.0
_cell_volume                      1644.42969423

loop_
_atom_site_label
_atom_site_type_symbol
_atom_type_description
_atom_site_fract_x
_atom_site_fract_y
_atom_site_fract_z
_atom_type_partial_charge
O1    O     O_R   0.525340 0.338340 0.164530 -0.532594
O2    O     O_R   0.474660 0.661660 0.835470 -0.532593
O3    O     O_R   0.974660 0.838340 0.835470 -0.532593
O4    O     O_R   0.025340 0.161660 0.164530 -0.532594
O5    O     O_R   0.253520 0.352000 0.336710 -0.545602
O6    O     O_R   0.746480 0.648000 0.663290 -0.545601
O7    O     O_R   0.246480 0.852000 0.663290 -0.545602
O8    O     O_R   0.753520 0.148000 0.336710 -0.545602
O9    O     O_R   0.083330 0.168380 0.337300 -0.531381
O10   O     O_R   0.916670 0.831620 0.662700 -0.531381
O11   O     O_R   0.416670 0.668380 0.662700 -0.531381
O12   O     O_R   0.583330 0.331620 0.337300 -0.531381
C1    C     C_R   0.432266 0.369717 0.362931 0.801426
C2    C     C_R   0.567734 0.630283 0.637069 0.801426
C3    C     C_R   0.067734 0.869717 0.637069 0.801426
C4    C     C_R   0.932266 0.130283 0.362931 0.801426
O13   O     O_R   0.195840 0.349670 0.165140 -0.545805
O14   O     O_R   0.804160 0.650330 0.834860 -0.545805
O15   O     O_R   0.304160 0.849670 0.834860 -0.545805
O16   O     O_R   0.695840 0.150330 0.165140 -0.545805
C5    C     C_R   0.357053 0.371643 0.137412 0.826917
C6    C     C_R   0.642947 0.628357 0.862587 0.826917
C7    C     C_R   0.142947 0.871643 0.862587 0.826917
C8    C     C_R   0.857053 0.128357 0.137412 0.826917
O17   O     O_3   0.387830 0.193120 0.250910 -0.381684
O18   O     O_3   0.612170 0.806880 0.749090 -0.381684
O19   O     O_3   0.112170 0.693120 0.749090 -0.381684
O20   O     O_3   0.887830 0.306880 0.250910 -0.381684
V1    V     V_3+5 0.113010 0.264540 0.250910 1.512578
V2    V     V_3+5 0.886990 0.735460 0.749090 1.512578
V3    V     V_3+5 0.386990 0.764540 0.749090 1.512578
V4    V     V_3+5 0.613010 0.235460 0.250910 1.512577
C9    C     C_R   0.900004 0.191912 0.526556 -0.276911
C10   C     C_R   0.099996 0.808088 0.473444 -0.276911
C11   C     C_R   0.599996 0.691912 0.473444 -0.276911
C12   C     C_R   0.400004 0.308088 0.526556 -0.276911
C13   C     C_R   0.883292 0.225018 0.605320 -0.294013
C14   C     C_R   0.116708 0.774982 0.394680 -0.294013
C15   C     C_R   0.616707 0.725018 0.394680 -0.294013
C16   C     C_R   0.383293 0.274982 0.605320 -0.294013
C17   C     C_R   0.916085 0.164131 0.672333 0.677013
C18   C     C_R   0.083915 0.835869 0.327667 0.677013
C19   C     C_R   0.583914 0.664131 0.327667 0.677013
C20   C     C_R   0.416086 0.335869 0.672333 0.677013
C21   C     C_R   0.965825 0.069362 0.661269 0.487971
C22   C     C_R   0.034175 0.930638 0.338731 0.487971
C23   C     C_R   0.534174 0.569362 0.338731 0.487971
C24   C     C_R   0.465826 0.430638 0.661269 0.487971
C25   C     C_R   0.982583 0.033118 0.581207 -0.139561
C26   C     C_R   0.017417 0.966882 0.418793 -0.139561
C27   C     C_R   0.517417 0.533118 0.418793 -0.139560
C28   C     C_R   0.482583 0.466882 0.581207 -0.139560
C29   C     C_R   0.949270 0.095968 0.512794 -0.014879
C30   C     C_R   0.050730 0.904032 0.487206 -0.014879
C31   C     C_R   0.550729 0.595968 0.487206 -0.014879
C32   C     C_R   0.449271 0.404032 0.512794 -0.014879
C33   C     C_R   0.033058 0.937042 0.567788 -0.073418
C34   C     C_R   0.966942 0.062958 0.432212 -0.073418
C35   C     C_R   0.466942 0.437042 0.432212 -0.073417
C36   C     C_R   0.533058 0.562958 0.567788 -0.073418
H1    H     H_    0.874321 0.242818 0.476760 0.152031
H2    H     H_    0.125678 0.757182 0.523240 0.152031
H3    H     H_    0.625678 0.742818 0.523240 0.152031
H4    H     H_    0.374322 0.257182 0.476760 0.152031
H5    H     H_    0.845325 0.298560 0.614359 0.176566
H6    H     H_    0.154675 0.701440 0.385641 0.176566
H7    H     H_    0.654674 0.798560 0.385640 0.176566
H8    H     H_    0.345326 0.201440 0.614359 0.176566
H9    H     H_    0.138213 0.066074 0.056705 0.150956
H10   H     H_    0.861787 0.933925 0.943295 0.150956
H11   H     H_    0.361787 0.566074 0.943295 0.150956
H12   H     H_    0.638213 0.433926 0.056705 0.150956
C37   C     C_2   0.150101 0.941680 0.930877 -0.235897
C38   C     C_2   0.849899 0.058320 0.069123 -0.235897
C39   C     C_2   0.349899 0.441680 0.069123 -0.235897
C40   C     C_2   0.650101 0.558320 0.930877 -0.235897
C41   C     C_2   0.996142 0.965597 0.965539 -0.060789
C42   C     C_2   0.003857 0.034403 0.034461 -0.060789
C43   C     C_2   0.503857 0.465597 0.034461 -0.060789
C44   C     C_2   0.496142 0.534403 0.965539 -0.060789
H13   H     H_    0.715975 0.026645 0.046141 0.124595
H14   H     H_    0.284024 0.973355 0.953859 0.124595
H15   H     H_    0.784024 0.526645 0.953859 0.124595
H16   H     H_    0.215975 0.473355 0.046141 0.124595
F1    F     F_    0.099592 0.802656 0.250999 -0.601492
F2    F     F_    0.900408 0.197344 0.749001 -0.601492
F3    F     F_    0.400408 0.302656 0.749001 -0.601492
F4    F     F_    0.599592 0.697344 0.250999 -0.601492
F5    F     F_    0.998285 0.014759 0.729903 -0.676028
F6    F     F_    0.001715 0.985241 0.270097 -0.676028
F7    F     F_    0.501715 0.514759 0.270097 -0.676028
F8    F     F_    0.498285 0.485241 0.729903 -0.676028

loop_
_geom_bond_atom_site_label_1
_geom_bond_atom_site_label_2
_ccdc_geom_bond_type
O1    C5    A    
O13   V1    S    
O3    C7    A    
C6    C40   S    
O15   V3    S    
C41   C42   S    
C17   F2    S    
C26   C30   A    
C19   F4    S    
O20   V1    S    
O9    C4    A    
C14   C18   A    
H12   C43   S    
O10   C3    A    
O4    C8    A    
O11   C2    A    
C39   H16   S    
C10   H2    S    
C25   C33   A    
C18   C22   A    
C28   C36   A    
C14   H6    S    
C13   H5    S    
O2    C6    A    
O14   V2    S    
C20   F3    S    
C21   F5    S    
C16   C20   A    
O5    C1    A    
O4    V1    S    
O9    V1    S    
O17   V4    S    
O7    C3    A    
O11   V3    S    
O18   V3    S    
O8    C4    A    
C10   C14   A    
C31   C36   A    
O12   V4    S    
O19   V2    S    
C3    C33   S    
H9    C42   S    
C15   H7    S    
C7    C37   S    
C40   H15   S    
H11   C44   S    
O5    V1    S    
C9    C29   A    
O7    V3    S    
C11   C31   A    
C26   C34   A    
O16   C8    A    
C12   C16   A    
O15   C7    A    
C23   C27   A    
O1    V4    S    
O13   C5    A    
O2    V3    S    
O8    V4    S    
O3    V2    S    
C11   C15   A    
C12   C32   A    
O6    C2    A    
O10   V2    S    
C21   C25   A    
C18   F1    S    
C4    C34   S    
C1    C35   S    
O6    V2    S    
C10   C30   A    
C16   H8    S    
C27   C35   A    
C38   H13   S    
C37   H14   S    
O16   V4    S    
C22   C26   A    
C17   C21   A    
O14   C6    A    
C23   F7    S    
C40   C44   D    
C15   C19   A    
C29   C34   A    
C22   F6    S    
C2    C36   S    
C5    C39   S    
C32   C35   A    
C8    C38   S    
C39   C43   D    
C25   C29   A    
C38   C42   D    
C27   C31   A    
C13   C17   A    
C9    C13   A    
C43   C44   S    
C28   C32   A    
C24   C28   A    
O12   C1    A    
C9    H1    S    
C24   F8    S    
C37   C41   D    
C11   H3    S    
C12   H4    S    
C19   C23   A    
C20   C24   A    
H10   C41   S    
C30   C33   A    
