data_mof_unit_27795.cif
_audit_creation_date              2012-12-10T19:10:33-0500
_audit_creation_method            fapswitch 2.2
_symmetry_space_group_name_H-M    P1
_symmetry_Int_Tables_number       1
_space_group_crystal_system       triclinic
_cell_length_a                    10.720028
_cell_length_b                    9.796465
_cell_length_c                    15.72644
_cell_angle_alpha                 89.728751
_cell_angle_beta                  91.612294
_cell_angle_gamma                 87.020343
_cell_volume                      1648.64767585

loop_
_atom_site_label
_atom_site_type_symbol
_atom_type_description
_atom_site_fract_x
_atom_site_fract_y
_atom_site_fract_z
_atom_type_partial_charge
C1    C     C_R   0.258253 0.503704 0.492225 0.868268
C2    C     C_3   0.933068 0.394452 0.428641 0.345819
C3    C     C_3   0.058936 0.657112 0.463794 1.005572
C4    C     C_3   0.121316 0.510485 0.487848 -0.078068
C5    C     C_3   0.879824 0.497173 0.496601 -0.145063
C6    C     C_R   0.498715 0.500306 0.338313 0.884821
C7    C     C_3   0.918991 0.647074 0.480675 -0.438910
C8    C     C_3   0.380460 0.087460 0.529729 -0.413604
C9    C     C_3   0.381705 0.926151 0.530770 -0.406864
C10   C     C_3   0.512851 0.077978 0.410454 0.286463
C11   C     C_3   0.513575 0.914815 0.410048 0.297334
C12   C     C_3   0.625970 0.484194 0.953258 0.942703
C13   C     C_3   0.600393 0.075458 0.556269 0.458201
C14   C     C_3   0.603106 0.912554 0.553796 0.433803
C15   C     C_R   0.742742 0.497573 0.499599 0.937225
C16   C     C_R   0.501408 0.499714 0.661463 0.884896
C17   C     C_3   0.410046 0.635419 0.046564 0.230263
C18   C     C_3   0.423460 0.375732 0.048151 0.229329
C19   C     C_3   0.401403 0.386540 0.948648 0.818646
C20   C     C_3   0.427547 0.650614 0.947629 0.799534
C21   C     C_1   0.498327 0.500045 0.750012 -0.216157
C22   C     C_3   0.485250 0.505739 0.081805 -0.128038
C23   C     C_3   0.620875 0.507789 0.051967 -0.526811
C24   C     C_3   0.485837 0.505870 0.916678 -0.210762
C25   C     C_3   0.301091 0.725543 0.824383 -0.261096
C26   C     C_3   0.186869 0.329054 0.955687 -0.397189
C27   C     C_3   0.913060 0.468849 0.730137 -0.355322
C28   C     C_3   0.843531 0.504584 0.303476 -0.259558
C29   C     C_3   0.057777 0.894953 0.495352 -0.381473
C30   C     C_3   0.185065 0.707007 0.344603 -0.366866
C31   C     C_3   0.690866 0.169437 0.679500 -0.271838
C32   C     C_3   0.705735 0.809445 0.673961 -0.180938
C33   C     C_3   0.728829 0.109165 0.379286 -0.161422
C34   C     C_1   0.492313 0.502500 0.825091 0.145625
C35   C     C_3   0.612312 0.849789 0.284117 -0.276133
C36   C     C_3   0.445078 0.166285 0.120944 -0.264919
C37   C     C_3   0.347709 0.810944 0.138117 -0.428194
C38   C     C_3   0.381127 0.226392 0.832987 -0.256045
C39   C     C_3   0.466515 0.890328 0.939430 -0.100131
C40   C     C_3   0.799136 0.635704 0.953618 -0.358459
C41   C     C_3   0.794369 0.315533 0.944158 -0.261333
C42   C     C_1   0.487594 0.503550 0.173830 0.096237
C43   C     C_1   0.492564 0.501391 0.249270 -0.229606
C44   C     C_3   0.082530 0.465882 0.578698 -0.513181
C45   C     C_3   0.074624 0.406721 0.420526 -0.549656
C46   C     C_3   0.940228 0.451433 0.583994 0.315232
H1    H     H_    0.309136 0.615764 0.055741 0.099131
H2    H     H_    0.132647 0.374083 0.008708 0.169533
H3    H     H_    0.230371 0.228585 0.976589 0.173282
H4    H     H_    0.119852 0.310527 0.902451 0.180793
H5    H     H_    0.878453 0.539601 0.779798 0.226801
H6    H     H_    0.014226 0.445480 0.743878 0.171054
H7    H     H_    0.860803 0.374472 0.734731 0.150048
H8    H     H_    0.930041 0.556937 0.291846 0.209216
H9    H     H_    0.770887 0.571533 0.333069 0.179545
H10   H     H_    0.804663 0.478511 0.239844 0.167716
H11   H     H_    0.954762 0.906229 0.499716 0.141503
H12   H     H_    0.331677 0.373155 0.079863 0.046937
H13   H     H_    0.085153 0.927975 0.431259 0.190947
H14   H     H_    0.096142 0.967928 0.541707 0.172457
H15   H     H_    0.234127 0.607205 0.331870 0.145763
H16   H     H_    0.241975 0.770724 0.385903 0.201492
H17   H     H_    0.172874 0.762662 0.283381 0.170553
H18   H     H_    0.894562 0.707149 0.538198 0.203957
H19   H     H_    0.863039 0.698944 0.428256 0.193657
H20   H     H_    0.300157 0.127534 0.489009 0.154638
H21   H     H_    0.302701 0.894271 0.491259 0.192632
H22   H     H_    0.361294 0.127720 0.594314 0.233820
H23   H     H_    0.114257 0.542544 0.625584 0.223039
H24   H     H_    0.364894 0.888534 0.596066 0.247176
H25   H     H_    0.424122 0.108735 0.375123 0.079018
H26   H     H_    0.429430 0.885268 0.372231 0.045221
H27   H     H_    0.691657 0.107457 0.534845 -0.036956
H28   H     H_    0.693371 0.875515 0.526192 0.033898
H29   H     H_    0.718410 0.263176 0.646783 0.176678
H30   H     H_    0.769509 0.091476 0.679310 0.116772
H31   H     H_    0.672434 0.195888 0.746636 0.201707
H32   H     H_    0.700873 0.814543 0.744257 0.199530
H33   H     H_    0.787683 0.866050 0.654648 0.093443
H34   H     H_    0.097710 0.436720 0.355054 0.210700
H35   H     H_    0.719519 0.700998 0.656583 0.235145
H36   H     H_    0.781477 0.104516 0.319576 0.190321
H37   H     H_    0.751787 0.013688 0.414819 0.120485
H38   H     H_    0.763430 0.192616 0.417143 0.200370
H39   H     H_    0.588108 0.952392 0.256663 0.181673
H40   H     H_    0.542551 0.778045 0.261596 0.204929
H41   H     H_    0.704094 0.814163 0.259258 0.171928
H42   H     H_    0.360921 0.127356 0.088294 0.134326
H43   H     H_    0.420626 0.213274 0.182930 0.161689
H44   H     H_    0.511714 0.078008 0.133943 0.192520
H45   H     H_    0.920847 0.341801 0.594956 0.052218
H46   H     H_    0.379988 0.899585 0.174346 0.168303
H47   H     H_    0.268383 0.847459 0.095382 0.179256
H48   H     H_    0.316632 0.735594 0.184714 0.167046
H49   H     H_    0.330170 0.313921 0.800117 0.177288
H50   H     H_    0.314804 0.144940 0.842894 0.136088
H51   H     H_    0.453149 0.185111 0.789536 0.213569
H52   H     H_    0.368849 0.901630 0.961221 0.167165
H53   H     H_    0.471715 0.944420 0.877662 0.158335
H54   H     H_    0.527463 0.942548 0.985747 0.209813
H55   H     H_    0.656028 0.607345 0.072082 0.198387
H56   H     H_    0.927062 0.291960 0.458135 0.069190
H57   H     H_    0.680255 0.428488 0.086839 0.212134
H58   H     H_    0.763444 0.732140 0.983231 0.209913
H59   H     H_    0.871431 0.664117 0.908724 0.187306
H60   H     H_    0.846180 0.566770 0.002086 0.136097
H61   H     H_    0.831592 0.334643 0.009236 0.133724
H62   H     H_    0.845769 0.370936 0.895800 0.166110
H63   H     H_    0.812419 0.204972 0.931911 0.173405
H64   H     H_    0.129921 0.365856 0.597359 0.153281
H65   H     H_    0.122287 0.303994 0.431048 0.165970
H66   H     H_    0.261747 0.644242 0.784418 0.183991
H67   H     H_    0.392025 0.752745 0.798763 0.195826
H68   H     H_    0.236457 0.817387 0.817902 0.157811
N1    N     N_3   0.499750 0.138610 0.498180 -0.127786
N2    N     N_3   0.499750 0.861390 0.498180 -0.126009
O1    O     O_R   0.314910 0.616040 0.499980 -0.600126
O2    O     O_3   0.272822 0.424192 0.928225 -0.635566
O3    O     O_3   0.891327 0.533649 0.650392 -0.626408
O4    O     O_3   0.865744 0.382061 0.349713 -0.614672
O5    O     O_3   0.108118 0.761356 0.516597 -0.626843
O6    O     O_3   0.064848 0.689883 0.375246 -0.677976
O7    O     O_3   0.580882 0.121108 0.641135 -0.561723
O8    O     O_3   0.590947 0.861991 0.638000 -0.571713
O9    O     O_3   0.601627 0.139537 0.358678 -0.579703
O10   O     O_3   0.621615 0.850973 0.374001 -0.600249
O11   O     O_3   0.503895 0.259208 0.068749 -0.523202
O12   O     O_R   0.314910 0.383960 0.499980 -0.644479
O13   O     O_3   0.447360 0.753430 0.091091 -0.584601
O14   O     O_3   0.440277 0.257626 0.911913 -0.555876
O15   O     O_3   0.513870 0.753465 0.929856 -0.611510
O16   O     O_3   0.701579 0.575272 0.907026 -0.600711
O17   O     O_3   0.664237 0.345170 0.936249 -0.557615
O18   O     O_R   0.500120 0.616090 0.377110 -0.612399
O19   O     O_R   0.500120 0.383910 0.377110 -0.551655
O20   O     O_R   0.685320 0.616040 0.499960 -0.608066
O21   O     O_R   0.685320 0.383960 0.499960 -0.639325
O22   O     O_R   0.500110 0.615990 0.622830 -0.572128
O23   O     O_R   0.500110 0.384010 0.622830 -0.580995
O24   O     O_3   0.305264 0.682531 0.910640 -0.630462
Zn1   Zn    Zn3+2 0.500150 0.654960 0.499960 0.978937
Zn2   Zn    Zn3+2 0.500150 0.345040 0.499960 0.969213

loop_
_geom_bond_atom_site_label_1
_geom_bond_atom_site_label_2
_ccdc_geom_bond_type
C36   H43   S    
O21   Zn2   S    
C8    H20   S    
C16   C21   S    
C41   H62   S    
C32   O8    S    
C1    O12   A    
C41   O17   S    
C28   H10   S    
C22   C42   S    
C36   H42   S    
C32   H35   S    
C12   C23   S    
C31   H30   S    
O20   Zn1   S    
C38   O14   S    
C3    C7    S    
C26   H4    S    
C13   O7    S    
C35   H40   S    
C40   H58   S    
C2    H56   S    
C17   C20   S    
C18   C19   S    
C8    N1    S    
C31   H29   S    
C18   H12   S    
O19   Zn2   S    
C23   H57   S    
C30   O6    S    
C19   O2    S    
C27   H5    S    
C8    C9    S    
C29   O5    S    
C38   H49   S    
C46   O3    S    
C10   O9    S    
C41   H61   S    
C33   H36   S    
C25   H66   S    
C3    O6    S    
C26   H2    S    
C10   H25   S    
C19   O14   S    
C40   O16   S    
N1    Zn2   S    
C41   H63   S    
C13   C14   S    
C35   H41   S    
C38   H51   S    
C28   H9    S    
C44   C46   S    
C31   H31   S    
C4    C45   S    
C2    C45   S    
C14   O8    S    
C17   O13   S    
C20   C24   S    
C25   O24   S    
C9    H24   S    
C28   O4    S    
C26   H3    S    
C5    C7    S    
C28   H8    S    
C11   H26   S    
C39   H52   S    
C21   C34   T    
C4    C44   S    
C24   C34   S    
O18   Zn1   S    
C35   O10   S    
O1    Zn1   S    
C9    H21   S    
C6    O19   A    
C25   H67   S    
C18   O11   S    
C7    H19   S    
C39   H53   S    
C29   H14   S    
C11   O10   S    
C33   O9    S    
C37   H47   S    
C44   H23   S    
C1    O1    A    
C11   N2    S    
C33   H37   S    
C13   N1    S    
C13   H27   S    
C8    H22   S    
C12   O17   S    
C30   H16   S    
C36   O11   S    
C42   C43   T    
C20   O15   S    
C3    C4    S    
C14   H28   S    
C27   H6    S    
C40   H60   S    
C36   H44   S    
C2    O4    S    
C12   O16   S    
C37   H46   S    
C18   C22   S    
C9    N2    S    
C16   O22   A    
C17   H1    S    
C29   H11   S    
O22   Zn1   S    
C27   H7    S    
C15   O20   A    
C27   O3    S    
C26   O2    S    
C5    C46   S    
C12   C24   S    
C17   C22   S    
C6    C43   S    
C1    C4    S    
C20   O24   S    
C19   C24   S    
C31   O7    S    
C6    O18   A    
C45   H65   S    
C32   H33   S    
C35   H39   S    
C39   H54   S    
C23   H55   S    
C39   O15   S    
C14   N2    S    
C30   H17   S    
O23   Zn2   S    
C37   O13   S    
C37   H48   S    
C45   H34   S    
C33   H38   S    
C7    H18   S    
C5    C15   S    
C10   C11   S    
C32   H32   S    
N2    Zn1   S    
C2    C5    S    
C30   H15   S    
C38   H50   S    
C16   O23   A    
C29   H13   S    
C22   C23   S    
C25   H68   S    
O12   Zn2   S    
C46   H45   S    
C10   N1    S    
C3    O5    S    
C40   H59   S    
C15   O21   A    
C44   H64   S    
