data_mof_unit_51894.cif
_audit_creation_date              2013-03-05T15:49:56-0500
_audit_creation_method            fapswitch 2.2
_symmetry_space_group_name_H-M    P1
_symmetry_Int_Tables_number       1
_space_group_crystal_system       triclinic
_cell_length_a                    11.988074
_cell_length_b                    12.730635
_cell_length_c                    14.970587
_cell_angle_alpha                 90.640777
_cell_angle_beta                  86.371527
_cell_angle_gamma                 91.536616
_cell_volume                      2279.24501006

loop_
_atom_site_label
_atom_site_type_symbol
_atom_site_description
_atom_site_fract_x
_atom_site_fract_y
_atom_site_fract_z
_atom_type_partial_charge
O1    O     O_R   0.421700 0.658830 0.504450 -0.628931
O2    O     O_R   0.578300 0.341170 0.495550 -0.627078
O3    O     O_R   0.609310 0.646410 0.493750 -0.614525
O4    O     O_R   0.390690 0.353590 0.506250 -0.610057
C1    C     C_R   0.520382 0.700612 0.490860 0.919395
C2    C     C_R   0.480390 0.300938 0.514392 0.933229
O5    O     O_R   0.406180 0.506230 0.637500 -0.625801
O6    O     O_R   0.593820 0.493770 0.362500 -0.625676
O7    O     O_R   0.593800 0.493820 0.626800 -0.631593
O8    O     O_R   0.406200 0.506180 0.373200 -0.630241
C3    C     C_R   0.500389 0.500794 0.673345 0.895832
C4    C     C_R   0.499865 0.500818 0.326607 0.900783
Zn1   Zn    Zn3+2 0.374730 0.508290 0.507150 0.946508
Zn2   Zn    Zn3+2 0.625270 0.491710 0.492850 0.945838
C5    C     C_R   0.594005 0.468050 0.180002 -0.255545
C6    C     C_R   0.409431 0.542902 0.819487 -0.284583
C7    C     C_R   0.500376 0.503555 0.230813 -0.069358
C8    C     C_R   0.501356 0.503464 0.769000 -0.062576
C9    C     C_R   0.408320 0.542451 0.190259 -0.271691
C10   C     C_R   0.594393 0.467062 0.809686 -0.274369
C11   C     C_R   0.408720 0.544848 0.097803 0.119164
C12   C     C_R   0.595678 0.468533 0.901943 0.117851
C13   C     C_R   0.502392 0.507394 0.046271 0.058001
C14   C     C_R   0.502552 0.507227 0.953361 0.061537
C15   C     C_R   0.595541 0.469224 0.087663 0.116014
C16   C     C_R   0.409243 0.544944 0.911868 0.109761
C17   C     C_R   0.316973 0.583270 0.056140 -0.222976
C18   C     C_R   0.688054 0.431393 0.943480 -0.231425
C19   C     C_R   0.317266 0.583367 0.963270 -0.230704
C20   C     C_R   0.688065 0.431911 0.036257 -0.226670
H1    H     H_    0.665015 0.438016 0.212257 0.153832
H2    H     H_    0.338176 0.571997 0.786950 0.160938
H3    H     H_    0.336864 0.571212 0.230535 0.163489
H4    H     H_    0.665157 0.436593 0.769661 0.170720
H5    H     H_    0.245035 0.612563 0.095323 0.141234
H6    H     H_    0.759785 0.401685 0.904283 0.139800
H7    H     H_    0.245575 0.612769 0.931675 0.142713
H8    H     H_    0.759837 0.402596 0.067795 0.142346
C21   C     C_R   0.473256 0.190747 0.539947 -0.241199
C22   C     C_R   0.532009 0.813770 0.482311 -0.247967
C23   C     C_R   0.654297 0.968032 0.483488 0.486464
C24   C     C_R   0.364095 0.033323 0.572025 0.481706
C25   C     C_R   0.637359 0.861717 0.460692 -0.148146
C26   C     C_R   0.373614 0.143290 0.575461 -0.140845
C27   C     C_R   0.437195 0.874390 0.499374 -0.053618
C28   C     C_R   0.571008 0.132684 0.536477 -0.022519
C29   C     C_R   0.453032 0.977170 0.529014 -0.088004
C30   C     C_R   0.561433 0.025055 0.519142 -0.084156
N1    N     N_R   0.207800 0.519350 0.516680 -0.091198
N2    N     N_R   0.792200 0.480650 0.483320 -0.092645
C31   C     C_R   0.959388 0.426061 0.399672 -0.371529
C32   C     C_R   0.040713 0.575703 0.599498 -0.375519
C33   C     C_R   0.842327 0.430620 0.411035 0.007587
C34   C     C_R   0.157762 0.570636 0.588341 0.015401
C35   C     C_R   0.855600 0.528451 0.545766 -0.062626
C36   C     C_R   0.144413 0.471940 0.454089 -0.052785
C37   C     C_R   0.973809 0.526855 0.536667 0.070868
C38   C     C_R   0.026263 0.474609 0.462681 0.067719
H9    H     H_    0.185818 0.430857 0.398200 0.128357
H10   H     H_    0.814148 0.569078 0.601890 0.128058
H11   H     H_    0.208774 0.607192 0.637650 0.121319
H12   H     H_    0.791347 0.394079 0.361714 0.129618
H13   H     H_    0.997135 0.385424 0.341921 0.150763
H14   H     H_    0.003011 0.616718 0.657071 0.148884
C39   C     C_R   0.665677 0.174822 0.585990 0.181821
C40   C     C_R   0.760941 0.220079 0.541429 -0.008906
C41   C     C_R   0.848120 0.259856 0.590068 -0.180965
C42   C     C_R   0.839336 0.258571 0.683675 -0.126001
C43   C     C_R   0.743743 0.215287 0.728650 -0.155456
C44   C     C_R   0.657323 0.173030 0.680043 -0.225651
H15   H     H_    0.767962 0.223694 0.469075 0.149951
H16   H     H_    0.921718 0.291769 0.554180 0.136188
H17   H     H_    0.906099 0.290872 0.721662 0.128382
H18   H     H_    0.736809 0.214055 0.801069 0.136832
H19   H     H_    0.584301 0.138142 0.715511 0.125822
C45   C     C_R   0.337141 0.848780 0.448177 0.200620
C46   C     C_R   0.343687 0.868208 0.355687 -0.183890
C47   C     C_R   0.253105 0.843655 0.304324 -0.146818
C48   C     C_R   0.154904 0.799797 0.344755 -0.132783
C49   C     C_R   0.147289 0.780118 0.436563 -0.173785
C50   C     C_R   0.238017 0.804123 0.488212 -0.006279
H20   H     H_    0.419304 0.902356 0.323369 0.125973
H21   H     H_    0.259073 0.858671 0.233140 0.133371
H22   H     H_    0.084950 0.781101 0.304742 0.134897
H23   H     H_    0.071174 0.745806 0.467602 0.132526
H24   H     H_    0.230695 0.787019 0.558730 0.129415
C51   C     C_R   0.295974 0.206747 0.633111 0.175756
C52   C     C_R   0.196710 0.243381 0.601703 -0.068541
C53   C     C_R   0.134189 0.316007 0.653101 -0.147494
C54   C     C_R   0.167092 0.348908 0.736940 -0.117699
C55   C     C_R   0.264507 0.310855 0.769325 -0.117499
C56   C     C_R   0.329836 0.241699 0.716990 -0.203828
H25   H     H_    0.171149 0.220246 0.536069 0.117593
H26   H     H_    0.062062 0.349908 0.627190 0.133582
H27   H     H_    0.117987 0.405130 0.776075 0.116169
H28   H     H_    0.290780 0.336720 0.834005 0.142516
H29   H     H_    0.407395 0.215954 0.741561 0.116549
C57   C     C_R   0.713568 0.810249 0.392404 0.183613
C58   C     C_R   0.692217 0.818796 0.301609 -0.142157
C59   C     C_R   0.757713 0.765787 0.235960 -0.133990
C60   C     C_R   0.845227 0.704132 0.260390 -0.127153
C61   C     C_R   0.867159 0.695351 0.350459 -0.158082
C62   C     C_R   0.801262 0.747378 0.416440 -0.110365
H30   H     H_    0.624034 0.865667 0.281833 0.119164
H31   H     H_    0.740397 0.772280 0.166182 0.133317
H32   H     H_    0.896099 0.663216 0.209577 0.122412
H33   H     H_    0.935369 0.648156 0.369037 0.145294
H34   H     H_    0.818456 0.738851 0.486035 0.123402
O9    O     O_3   0.752510 0.022637 0.456478 -0.670979
C63   C     C_3   0.850560 0.985261 0.493359 0.080702
H35   H     H_    0.912814 0.051537 0.489881 0.173055
H36   H     H_    0.889424 0.924143 0.449744 0.156520
C64   C     C_3   0.837345 0.949803 0.591952 -0.427521
H37   H     H_    0.799388 0.012796 0.634269 0.248779
H38   H     H_    0.782464 0.878367 0.598759 0.206204
C65   C     C_3   0.950402 0.924902 0.627060 -0.918373
H39   H     H_    0.989240 0.859549 0.587703 0.260239
H40   H     H_    0.938697 0.900734 0.698137 0.254337
H41   H     H_    0.007337 0.995247 0.622905 0.285227
O10   O     O_3   0.269016 0.980892 0.607730 -0.664235
C66   C     C_3   0.278271 0.961926 0.700239 0.059352
H42   H     H_    0.193312 0.939564 0.728889 0.174772
H43   H     H_    0.304426 0.033549 0.737248 0.136955
C67   C     C_3   0.357537 0.872175 0.717600 -0.385775
H44   H     H_    0.335644 0.801278 0.678085 0.223996
H45   H     H_    0.445123 0.896804 0.697853 0.215214
C68   C     C_3   0.351338 0.843088 0.816431 -0.963552
H46   H     H_    0.372648 0.912634 0.858116 0.264950
H47   H     H_    0.411882 0.780681 0.827264 0.275510
H48   H     H_    0.266033 0.813038 0.837745 0.257632

loop_
_geom_bond_atom_site_label_1
_geom_bond_atom_site_label_2
_geom_bond_distance
_ccdc_geom_bond_type
C51   C52   1.400048 A    
C3    C8    1.432813 S    
C60   C61   1.396281 A    
C17   C19   1.390112 A    
C25   C57   1.485944 S    
C54   C55   1.393124 A    
C54   H27   1.082414 S    
C46   C47   1.396512 A    
O5    C3    1.284518 A    
C59   H31   1.082321 S    
C27   C45   1.490723 S    
O1    C1    1.289200 A    
C9    C11   1.384508 A    
C14   C16   1.411062 A    
C48   H22   1.080935 S    
C5    C15   1.381557 A    
C57   C62   1.405260 A    
O4    Zn1   1.983614 S    
C65   H39   1.109609 S    
C20   H8    1.084012 S    
C41   H16   1.076021 S    
C53   H26   1.072649 S    
C63   H35   1.110793 S    
C66   C67   1.540186 S    
C61   C62   1.397536 A    
C55   H28   1.082189 S    
C47   H21   1.082350 S    
C22   C25   1.408437 A    
C40   H15   1.082523 S    
C36   C38   1.415372 A    
C42   C43   1.395354 A    
C4    C7    1.434534 S    
C13   C14   1.390764 A    
C62   H34   1.081983 S    
C26   C51   1.478797 S    
N1    C34   1.364146 A    
C50   H24   1.077948 S    
C64   C65   1.526626 S    
C10   H4    1.085026 S    
C58   H30   1.082850 S    
C11   C17   1.400179 A    
C23   O9    1.391087 S    
C51   C56   1.407823 A    
C23   C25   1.404708 A    
O2    C2    1.284002 A    
C24   C26   1.402166 A    
C32   C34   1.405693 A    
C56   H29   1.081469 S    
C27   C29   1.389005 A    
C6    C16   1.382816 A    
C22   C27   1.399520 A    
C28   C30   1.394746 A    
N2    C33   1.364048 A    
C41   C42   1.398896 A    
C29   C30   1.420361 A    
C43   H18   1.082336 S    
C31   H13   1.083013 S    
C45   C46   1.406199 A    
C28   C39   1.479911 S    
O4    C2    1.295207 A    
C9    H3    1.085324 S    
C55   C56   1.395055 A    
C47   C48   1.395039 A    
C17   H5    1.084072 S    
C42   H17   1.080645 S    
C31   C33   1.405562 A    
O7    Zn2   2.016904 S    
C68   H47   1.110403 S    
C49   H23   1.081127 S    
C33   H12   1.081325 S    
C58   C59   1.397744 A    
O6    C4    1.283947 A    
C61   H33   1.079743 S    
C31   C38   1.403778 A    
O7    C3    1.285534 A    
C63   C64   1.545609 S    
C66   H42   1.110953 S    
O3    Zn2   1.983614 S    
O8    C4    1.286830 A    
C21   C28   1.400085 A    
Zn1   N1    2.005837 S    
C10   C12   1.382120 A    
C57   C58   1.404909 A    
C35   C37   1.415697 A    
C32   H14   1.083087 S    
C12   C14   1.412011 A    
O1    Zn1   1.983060 S    
C68   H46   1.110979 S    
C60   H32   1.082304 S    
O10   C66   1.420199 S    
C67   H45   1.110540 S    
C64   H37   1.105982 S    
C15   C20   1.400084 A    
C5    C7    1.397938 A    
C52   H25   1.083012 S    
O6    Zn2   2.011382 S    
C49   C50   1.399141 A    
O3    C1    1.288598 A    
O8    Zn1   2.016904 S    
C45   C50   1.405611 A    
C36   H9    1.082369 S    
C5    H1    1.085189 S    
C21   C26   1.400947 A    
C34   H11   1.081509 S    
C67   C68   1.525971 S    
C6    H2    1.085263 S    
N1    C36   1.368436 A    
N2    C35   1.369060 A    
C65   H41   1.111219 S    
C11   C13   1.412221 A    
C68   H48   1.111025 S    
O9    C63   1.425103 S    
C24   O10   1.385816 S    
C37   C38   1.407983 A    
Zn2   N2    2.005837 S    
C46   H20   1.082994 S    
C18   C20   1.388874 A    
C59   C60   1.396306 A    
C7    C9    1.397317 A    
C23   C30   1.417989 A    
C65   H40   1.110263 S    
C40   C41   1.392323 A    
C8    C10   1.396328 A    
C24   C29   1.416358 A    
C13   C15   1.410857 A    
C43   C44   1.396073 A    
O2    Zn2   1.983060 S    
C63   H36   1.103802 S    
C66   H43   1.109971 S    
C32   C37   1.403714 A    
C48   C49   1.396678 A    
O5    Zn1   2.011381 S    
C52   C53   1.398898 A    
C18   H6    1.084182 S    
C16   C19   1.400118 A    
C6    C8    1.397683 A    
C39   C40   1.399326 A    
C1    C22   1.449882 S    
C19   H7    1.084038 S    
C44   H19   1.082172 S    
C2    C21   1.457033 S    
C12   C18   1.399428 A    
C53   C54   1.395855 A    
C35   H10   1.082416 S    
C39   C44   1.405646 A    
C67   H44   1.108347 S    
C64   H38   1.109867 S    
