data_mof_unit_8241.cif
_audit_creation_date              2012-12-10T20:44:42-0500
_audit_creation_method            fapswitch 2.2
_symmetry_space_group_name_H-M    P1
_symmetry_Int_Tables_number       1
_space_group_crystal_system       triclinic
_cell_length_a                    9.857694
_cell_length_b                    10.669525
_cell_length_c                    16.895508
_cell_angle_alpha                 89.689297
_cell_angle_beta                  93.491128
_cell_angle_gamma                 90.047031
_cell_volume                      1773.69335549

loop_
_atom_site_label
_atom_site_type_symbol
_atom_type_description
_atom_site_fract_x
_atom_site_fract_y
_atom_site_fract_z
_atom_type_partial_charge
C1    C     C_R   0.499783 0.259916 0.497920 0.909083
C2    C     C_R   0.446253 0.589100 0.778915 -0.080678
C3    C     C_R   0.586975 0.453665 0.138713 -0.096147
C4    C     C_R   0.579166 0.432042 0.220594 -0.142267
C5    C     C_R   0.488599 0.532243 0.098993 0.257456
C6    C     C_R   0.478433 0.495796 0.261221 -0.101420
C7    C     C_R   0.382999 0.572869 0.220582 -0.212174
C8    C     C_R   0.388800 0.591402 0.139963 -0.157636
C9    C     C_R   0.621978 0.064098 0.487396 0.097804
C10   C     C_R   0.499233 0.128588 0.485627 -0.077789
C11   C     C_R   0.376635 0.064874 0.468297 -0.174701
C12   C     C_R   0.516379 0.501113 0.652614 0.936651
C13   C     C_R   0.376817 0.935307 0.467654 -0.204649
C14   C     C_R   0.499674 0.871410 0.484142 -0.136918
C15   C     C_R   0.622539 0.936268 0.486115 0.140495
C16   C     C_3   0.743724 0.928376 0.544187 -0.222820
C17   C     C_3   0.742542 0.070971 0.545391 -0.533090
C18   C     C_R   0.078411 0.479995 0.568711 0.195172
C19   C     C_R   0.064654 0.508185 0.431024 -0.124169
C20   C     C_R   0.920888 0.508333 0.431047 -0.070174
C21   C     C_R   0.935750 0.479712 0.568687 0.186974
C22   C     C_3   0.937351 0.559640 0.640828 -0.454414
C23   C     C_R   0.499824 0.739969 0.496810 0.943602
C24   C     C_3   0.091231 0.560577 0.640593 -0.431859
C25   C     C_R   0.483745 0.497363 0.347087 0.918852
C26   C     C_R   0.521806 0.500869 0.737796 -0.094261
C27   C     C_R   0.584053 0.398499 0.777130 -0.253183
C28   C     C_R   0.568682 0.380681 0.857315 -0.139055
C29   C     C_R   0.493034 0.465870 0.898519 0.315873
C30   C     C_R   0.430716 0.569078 0.859256 -0.199896
H1    H     H_    0.719853 0.884356 0.601573 0.155557
H2    H     H_    0.830961 0.116326 0.518918 0.216787
H3    H     H_    0.112485 0.518564 0.375490 0.166892
H4    H     H_    0.861412 0.519516 0.375651 0.186662
H5    H     H_    0.890406 0.653101 0.628923 0.229472
H6    H     H_    0.899028 0.508557 0.692474 0.208435
H7    H     H_    0.141470 0.510665 0.692333 0.204795
H8    H     H_    0.372218 0.634990 0.891891 0.187705
H9    H     H_    0.307009 0.622729 0.251841 0.164367
H10   H     H_    0.616810 0.301268 0.887743 0.163384
H11   H     H_    0.314696 0.651684 0.108861 0.164773
H12   H     H_    0.639860 0.329802 0.745028 0.152824
H13   H     H_    0.280494 0.113908 0.460676 0.183025
N1    N     N_2   0.487371 0.449088 0.980620 -0.174023
N2    N     N_2   0.485077 0.550307 0.016701 -0.161778
N3    N     N_R   0.142860 0.499130 0.500540 -0.112429
N4    N     N_R   0.857210 0.499170 0.500530 -0.113277
O1    O     O_R   0.614690 0.316790 0.499990 -0.610950
O2    O     O_R   0.385350 0.316760 0.500000 -0.624289
O3    O     O_R   0.627460 0.498860 0.616130 -0.624191
O4    O     O_R   0.398120 0.498820 0.616130 -0.617160
O5    O     O_R   0.614650 0.683240 0.500000 -0.601567
O6    O     O_R   0.385310 0.683210 0.500010 -0.611729
O7    O     O_R   0.601880 0.501180 0.383870 -0.620724
O8    O     O_R   0.372540 0.501140 0.383870 -0.631919
Zn1   Zn    Zn3+2 0.653130 0.500020 0.499990 0.983234
Zn2   Zn    Zn3+2 0.346870 0.499980 0.500010 0.970991
C31   C     C_2   0.675150 0.344134 0.263898 0.975684
O9    O     O_2   0.797439 0.352194 0.256255 -0.621198
O10   O     O_R   0.624935 0.253317 0.314414 -0.797580
H14   H     H_    0.699714 0.199897 0.341016 0.348302
H15   H     H_    0.280727 0.886177 0.459861 0.191873
C32   C     C_2   0.868499 0.874921 0.509558 0.961152
O11   O     O_2   0.977210 0.877983 0.548381 -0.644820
O12   O     O_R   0.860389 0.821704 0.433941 -0.784879
H16   H     H_    0.951515 0.789922 0.417783 0.331364
H17   H     H_    0.716819 0.110007 0.603520 0.200539
H18   H     H_    0.134008 0.654578 0.628007 0.251862
C33   C     C_2   0.697157 0.396844 0.094286 0.974874
O13   O     O_2   0.720627 0.284488 0.099800 -0.594127
O14   O     O_R   0.771564 0.472038 0.044527 -0.777002
H19   H     H_    0.842141 0.422754 0.016521 0.346824
C34   C     C_2   0.386231 0.703819 0.740476 0.905036
O15   O     O_2   0.287458 0.753732 0.767454 -0.616480
O16   O     O_R   0.444907 0.757475 0.675102 -0.826755
H20   H     H_    0.395518 0.835816 0.655033 0.345803

loop_
_geom_bond_atom_site_label_1
_geom_bond_atom_site_label_2
_ccdc_geom_bond_type
C32   O12   S    
C18   C21   A    
C34   O15   D    
C19   C20   A    
C19   N3    A    
C7    C8    A    
C16   H1    S    
C22   H5    S    
C26   C27   A    
C18   C24   S    
C28   C29   A    
C3    C33   S    
C6    C25   S    
C28   H10   S    
C31   O10   S    
C15   C16   S    
O2    Zn2   S    
C30   H8    S    
C33   O14   S    
C13   H15   S    
C16   C17   S    
C11   H13   S    
O4    Zn2   S    
C16   C32   S    
C9    C10   A    
C20   H4    S    
C13   C14   A    
C34   O16   S    
C18   N3    A    
C23   O6    A    
O7    Zn1   S    
C17   H17   S    
C8    H11   S    
C4    C6    A    
C19   H3    S    
O6    Zn2   S    
C31   O9    D    
C5    N2    S    
O3    Zn1   S    
C12   C26   S    
O10   H14   S    
C14   C23   S    
O16   H20   S    
C29   C30   A    
C24   H7    S    
C2    C26   A    
C25   O7    A    
C2    C34   S    
C9    C17   S    
O8    Zn2   S    
C29   N1    S    
C22   C24   S    
C3    C4    A    
C12   O4    A    
N1    N2    D    
O1    Zn1   S    
C1    C10   S    
C25   O8    A    
C3    C5    A    
C5    C8    A    
C12   O3    A    
C1    O1    A    
C6    C7    A    
C22   H6    S    
C2    C30   A    
C9    C15   A    
O14   H19   S    
N3    Zn2   S    
C11   C13   A    
C27   H12   S    
C23   O5    A    
C33   O13   D    
C20   N4    A    
C10   C11   A    
C24   H18   S    
C32   O11   D    
O12   H16   S    
C4    C31   S    
C27   C28   A    
C17   H2    S    
C7    H9    S    
C14   C15   A    
C21   C22   S    
C1    O2    A    
O5    Zn1   S    
N4    Zn1   S    
C21   N4    A    
