data_mof_unit_61438.cif
_audit_creation_date              2012-12-10T20:26:49-0500
_audit_creation_method            fapswitch 2.2
_symmetry_space_group_name_H-M    P1
_symmetry_Int_Tables_number       1
_space_group_crystal_system       triclinic
_cell_length_a                    41.618715
_cell_length_b                    35.513943
_cell_length_c                    21.696731
_cell_angle_alpha                 89.809118
_cell_angle_beta                  121.561653
_cell_angle_gamma                 90.077122
_cell_volume                      27324.8931877

loop_
_atom_site_label
_atom_site_type_symbol
_atom_type_description
_atom_site_fract_x
_atom_site_fract_y
_atom_site_fract_z
_atom_type_partial_charge
C1    C     C_R   0.073422 0.000068 0.072248 1.042879
C2    C     C_R   0.977562 0.024395 0.695534 -0.032835
C3    C     C_R   0.385221 0.499938 0.885138 -0.444707
C4    C     C_R   0.133042 0.972247 0.169567 0.375352
C5    C     C_R   0.867018 0.972555 0.830018 0.375820
C6    C     C_R   0.633019 0.472294 0.169740 0.376735
C7    C     C_R   0.367006 0.472623 0.829989 0.375510
C8    C     C_R   0.172302 0.969866 0.209454 0.415303
C9    C     C_R   0.827762 0.970122 0.790144 0.415008
C10   C     C_R   0.672277 0.469865 0.209600 0.415288
C11   C     C_R   0.327748 0.470218 0.790109 0.415589
C12   C     C_R   0.193332 0.994035 0.192715 -0.262405
C13   C     C_R   0.522724 0.523954 0.304391 -0.034665
C14   C     C_R   0.806678 0.994057 0.806926 -0.262780
C15   C     C_R   0.693327 0.493985 0.192823 -0.262375
C16   C     C_R   0.306688 0.494046 0.807132 -0.262857
C17   C     C_R   0.999993 0.073439 0.500048 0.865472
C18   C     C_R   0.499989 0.573440 0.500046 0.862698
C19   C     C_R   0.999849 0.998981 0.379547 0.978919
C20   C     C_R   0.000159 0.999069 0.620456 0.980767
C21   C     C_R   0.499867 0.498969 0.379579 0.976731
C22   C     C_R   0.500174 0.499064 0.620476 0.977496
C23   C     C_R   0.000010 0.926557 0.500012 1.119717
C24   C     C_R   0.477499 0.524308 0.695473 -0.032252
C25   C     C_R   0.500002 0.426505 0.500532 1.113864
C26   C     C_R   0.500157 0.073241 0.499911 1.031276
C27   C     C_R   0.999984 0.573260 0.499889 1.013446
C28   C     C_R   0.426661 0.999575 0.426594 0.871860
C29   C     C_R   0.573341 0.999560 0.573405 0.877021
C30   C     C_R   0.926660 0.499563 0.426594 0.867941
C31   C     C_R   0.073341 0.499562 0.573409 0.868052
C32   C     C_R   0.955846 0.916085 0.112324 0.573991
C33   C     C_R   0.044065 0.916115 0.888346 0.574984
C34   C     C_R   0.456499 0.415672 0.113074 0.575151
C35   C     C_R   0.022717 0.024127 0.240381 0.423833
C36   C     C_R   0.544196 0.416201 0.888368 0.574230
C37   C     C_R   0.499951 0.926585 0.500044 0.874429
C38   C     C_R   0.999958 0.426585 0.500048 0.874386
C39   C     C_R   0.499627 0.826270 0.556041 -0.105948
C40   C     C_R   0.498663 0.826363 0.443247 -0.102831
C41   C     C_R   0.999768 0.326255 0.556121 -0.105656
C42   C     C_R   0.998800 0.326376 0.443323 -0.102622
C43   C     C_R   0.499968 0.865438 0.556325 -0.179881
C44   C     C_R   0.499022 0.865521 0.443381 -0.180978
C45   C     C_R   0.000049 0.365424 0.556373 -0.179525
C46   C     C_R   0.977643 0.024695 0.759612 0.421700
C47   C     C_R   0.999099 0.365533 0.443426 -0.180463
C48   C     C_R   0.499682 0.885356 0.499965 -0.050012
C49   C     C_R   0.999731 0.385356 0.499994 -0.050319
C50   C     C_R   0.498971 0.806902 0.499533 0.115475
C51   C     C_R   0.999141 0.306900 0.499627 0.115356
C52   C     C_1   0.498884 0.766947 0.499500 0.069895
C53   C     C_1   0.999083 0.266945 0.499586 0.070015
C54   C     C_1   0.999192 0.233332 0.499471 0.221796
C55   C     C_1   0.498996 0.733334 0.499420 0.222491
C56   C     C_R   0.033132 0.173713 0.546787 0.431927
C57   C     C_R   0.522437 0.524397 0.240132 0.424180
C58   C     C_R   0.966113 0.173395 0.452051 0.425777
C59   C     C_R   0.533013 0.673754 0.546737 0.432036
C60   C     C_R   0.465977 0.673360 0.452108 0.426201
C61   C     C_R   0.033087 0.134448 0.546143 -0.237498
C62   C     C_R   0.966565 0.134174 0.453426 -0.253943
C63   C     C_R   0.533030 0.634487 0.546087 -0.237825
C64   C     C_R   0.466489 0.634141 0.453479 -0.253784
C65   C     C_R   0.999915 0.114606 0.499903 -0.151185
C66   C     C_R   0.499876 0.614609 0.499898 -0.151186
C67   C     C_R   0.946535 0.951727 0.127848 0.051769
C68   C     C_R   0.477563 0.524611 0.759530 0.421598
C69   C     C_R   0.053389 0.951754 0.872476 0.051436
C70   C     C_R   0.446957 0.451225 0.128471 0.054746
C71   C     C_R   0.553507 0.451906 0.872729 0.050611
C72   C     C_R   0.999492 0.193182 0.499342 -0.064283
C73   C     C_R   0.499336 0.693184 0.499347 -0.064259
C74   C     C_R   0.510617 0.173030 0.452671 0.421574
C75   C     C_R   0.475638 0.173830 0.514603 0.379603
C76   C     C_R   0.015496 0.674007 0.464981 0.376194
C77   C     C_R   0.984125 0.673940 0.533456 0.375753
C78   C     C_R   0.514730 0.133831 0.461864 0.366322
C79   C     C_R   0.998983 0.999226 0.185145 -0.241046
C80   C     C_R   0.480040 0.134742 0.524715 0.347465
C81   C     C_R   0.013615 0.634618 0.461409 0.348624
C82   C     C_R   0.986128 0.634558 0.537517 0.348992
C83   C     C_R   0.498833 0.114580 0.496803 -0.421043
C84   C     C_R   0.999913 0.614656 0.499606 -0.417692
C85   C     C_R   0.492184 0.192794 0.481362 -0.275788
C86   C     C_R   0.999791 0.693238 0.499120 -0.255689
C87   C     C_1   0.492656 0.232891 0.481840 0.142787
C88   C     C_1   0.999817 0.733141 0.499073 0.138159
C89   C     C_1   0.999854 0.766631 0.499175 0.133001
C90   C     C_R   0.001099 0.999514 0.814888 -0.241141
C91   C     C_1   0.493634 0.266469 0.483926 0.144266
C92   C     C_R   0.023735 0.825789 0.482796 0.379611
C93   C     C_R   0.976161 0.825563 0.516349 0.379562
C94   C     C_R   0.519806 0.325851 0.473867 0.398601
C95   C     C_R   0.473412 0.325402 0.510197 0.373423
C96   C     C_R   0.025950 0.865228 0.487440 0.316545
C97   C     C_R   0.974065 0.865027 0.512235 0.317521
C98   C     C_R   0.524717 0.364868 0.485392 0.296056
C99   C     C_R   0.473275 0.364986 0.511162 0.320633
C100  C     C_R   0.000026 0.885148 0.499942 -0.415633
C101  C     C_R   0.498962 0.499235 0.185162 -0.242017
C102  C     C_R   0.499733 0.384996 0.500092 -0.417437
C103  C     C_R   0.910721 0.967219 0.081821 -0.160865
C104  C     C_R   0.089200 0.967206 0.918382 -0.161605
C105  C     C_R   0.411056 0.466512 0.082358 -0.162116
C106  C     C_R   0.589289 0.467375 0.918807 -0.160702
C107  C     C_R   0.999910 0.806605 0.499422 -0.254143
C108  C     C_R   0.495434 0.306514 0.488864 -0.259503
C109  C     C_R   0.884034 0.947939 0.020321 -0.230005
C110  C     C_R   0.115883 0.947875 0.980058 -0.229984
C111  C     C_R   0.384506 0.447123 0.020881 -0.229265
C112  C     C_R   0.926576 0.000085 0.927689 1.042244
C113  C     C_R   0.501094 0.499515 0.814898 -0.240799
C114  C     C_R   0.615951 0.447995 0.980433 -0.229984
C115  C     C_R   0.892700 0.912960 0.003980 -0.224909
C116  C     C_R   0.107210 0.912887 0.996711 -0.224144
C117  C     C_R   0.393386 0.412211 0.004699 -0.225190
C118  C     C_R   0.607281 0.412950 0.996881 -0.223690
C119  C     C_R   0.975099 0.972795 0.256688 0.421593
C120  C     C_R   0.024723 0.972792 0.743384 0.421208
C121  C     C_R   0.475557 0.472429 0.257220 0.420399
C122  C     C_R   0.524999 0.472998 0.743699 0.421651
C123  C     C_3   0.203994 0.027004 0.072923 -0.169518
C124  C     C_R   0.974626 0.974031 0.191689 -0.106695
C125  C     C_3   0.795963 0.026618 0.926651 -0.169617
C126  C     C_3   0.703979 0.526970 0.073002 -0.167534
C127  C     C_3   0.296064 0.526044 0.927313 -0.173076
C128  C     C_3   0.103133 0.962007 0.230855 -0.216814
C129  C     C_3   0.897081 0.963073 0.768877 -0.216596
C130  C     C_3   0.603115 0.462314 0.231105 -0.223562
C131  C     C_3   0.397050 0.463258 0.768772 -0.217012
C132  C     C_3   0.931857 0.858569 0.967410 -0.323935
C133  C     C_3   0.068069 0.858502 0.033826 -0.323288
C134  C     C_3   0.432889 0.358095 0.968427 -0.327729
C135  C     C_R   0.025302 0.974134 0.808457 -0.105596
C136  C     C_3   0.568095 0.358378 0.033526 -0.324099
C137  C     C_3   0.206428 0.957570 0.331248 -0.236707
C138  C     C_3   0.793681 0.958264 0.668343 -0.235063
C139  C     C_3   0.706436 0.457596 0.331408 -0.237786
C140  C     C_3   0.293677 0.458649 0.668210 -0.236582
C141  C     C_3   0.500189 0.203246 0.351026 -0.289528
C142  C     C_3   0.418981 0.197010 0.487351 -0.198464
C143  C     C_3   0.069636 0.698125 0.480274 -0.194668
C144  C     C_3   0.929929 0.697974 0.517847 -0.194123
C145  C     C_3   0.520865 0.110079 0.370093 -0.155433
C146  C     C_R   0.474931 0.473736 0.192083 -0.107623
C147  C     C_3   0.486773 0.119282 0.632566 -0.162929
C148  C     C_3   0.002255 0.616712 0.351235 -0.168234
C149  C     C_3   0.997519 0.616628 0.647906 -0.168356
C150  C     C_3   0.026464 0.797696 0.391817 -0.127260
C151  C     C_3   0.973339 0.796717 0.606923 -0.127538
C152  C     C_3   0.518575 0.305901 0.373708 -0.112807
C153  C     C_3   0.470143 0.293596 0.597686 -0.118614
C154  C     C_3   0.009812 0.884517 0.132904 -0.172466
C155  C     C_3   0.990064 0.884666 0.868109 -0.170763
C156  C     C_3   0.510658 0.384474 0.133751 -0.184978
C157  C     C_R   0.525450 0.474273 0.808655 -0.105613
C158  C     C_3   0.490159 0.384701 0.867759 -0.167834
C159  C     C_3   0.035549 0.082340 0.210091 -0.163929
C160  C     C_3   0.965041 0.082776 0.790277 -0.160554
C161  C     C_3   0.534665 0.582774 0.209355 -0.161966
C162  C     C_3   0.464782 0.582644 0.790044 -0.162410
C163  C     C_3   0.119287 0.007970 0.402836 -0.204580
C164  C     C_3   0.881619 0.011964 0.595297 -0.195469
C165  C     C_3   0.619159 0.508952 0.402351 -0.197958
C166  C     C_3   0.381544 0.511808 0.595080 -0.198520
C167  C     C_R   0.081103 0.046652 0.419513 0.491625
C168  C     C_R   0.920933 0.050143 0.580499 0.490493
C169  C     C_R   0.580744 0.547289 0.419025 0.490074
C170  C     C_R   0.420863 0.550046 0.580413 0.491190
C171  C     C_R   0.099964 0.075819 0.470113 0.339280
C172  C     C_R   0.573423 0.500071 0.072276 1.042841
C173  C     C_R   0.903593 0.080432 0.531575 0.330409
C174  C     C_R   0.599487 0.576589 0.469373 0.335588
C175  C     C_R   0.403517 0.580342 0.531510 0.330880
C176  C     C_R   0.084492 0.112190 0.455069 -0.391778
C177  C     C_R   0.920384 0.116186 0.549338 -0.375144
C178  C     C_R   0.583774 0.612856 0.454159 -0.390817
C179  C     C_R   0.420296 0.616103 0.549307 -0.375977
C180  C     C_R   0.049300 0.119143 0.392872 0.379689
C181  C     C_R   0.955468 0.121412 0.612653 0.364640
C182  C     C_R   0.548482 0.619571 0.392053 0.379598
C183  C     C_R   0.426580 0.500079 0.927730 1.043081
C184  C     C_R   0.455374 0.621330 0.612635 0.364834
C185  C     C_R   0.028794 0.089388 0.347328 -0.366408
C186  C     C_R   0.974559 0.090561 0.656599 -0.359210
C187  C     C_R   0.528112 0.589673 0.346796 -0.365641
C188  C     C_R   0.474468 0.590477 0.656566 -0.359346
C189  C     C_R   0.999758 0.999849 0.119897 0.981740
C190  C     C_R   0.000206 0.999953 0.880047 0.980854
C191  C     C_R   0.499727 0.499850 0.119878 0.982506
C192  C     C_R   0.500180 0.499953 0.880027 0.980631
C193  C     C_R   0.044696 0.053393 0.358950 -0.062170
C194  C     C_R   0.999471 0.998059 0.312811 -0.263752
C195  C     C_R   0.957281 0.055144 0.642326 -0.069035
C196  C     C_R   0.544246 0.553785 0.358567 -0.064067
C197  C     C_R   0.457203 0.555053 0.642260 -0.068923
C198  C     C_R   0.326434 0.994522 0.269986 -0.136291
C199  C     C_R   0.673605 0.994304 0.729951 -0.133198
C200  C     C_R   0.826423 0.494492 0.269999 -0.135093
C201  C     C_R   0.173599 0.494491 0.730023 -0.135801
C202  C     C_R   0.365559 0.997140 0.309221 -0.186480
C203  C     C_R   0.634477 0.996958 0.690761 -0.181608
C204  C     C_R   0.865548 0.497143 0.309223 -0.185378
C205  C     C_R   0.000598 0.998293 0.687223 -0.264480
C206  C     C_R   0.134470 0.497128 0.690793 -0.185814
C207  C     C_R   0.385440 0.997666 0.385196 -0.043216
C208  C     C_R   0.614565 0.997608 0.614782 -0.042002
C209  C     C_R   0.885438 0.497617 0.385201 -0.043463
C210  C     C_R   0.114567 0.497624 0.614810 -0.043222
C211  C     C_R   0.365625 0.995465 0.421277 -0.169801
C212  C     C_R   0.634349 0.995478 0.578654 -0.165141
C213  C     C_R   0.865634 0.495318 0.421293 -0.170347
C214  C     C_R   0.134362 0.495362 0.578720 -0.170646
C215  C     C_R   0.326506 0.992812 0.381881 -0.147107
C216  C     C_R   0.499547 0.498038 0.312918 -0.265075
C217  C     C_R   0.673468 0.992788 0.618001 -0.143153
C218  C     C_R   0.826516 0.492631 0.381909 -0.146529
C219  C     C_R   0.173483 0.492689 0.618107 -0.146861
C220  C     C_R   0.307081 0.992330 0.306450 0.143176
C221  C     C_R   0.692928 0.992194 0.693436 0.142088
C222  C     C_R   0.807080 0.492210 0.306475 0.142824
C223  C     C_R   0.192933 0.492246 0.693546 0.143061
C224  C     C_1   0.267095 0.991366 0.266360 -0.062743
C225  C     C_1   0.732919 0.991252 0.733452 -0.059980
C226  C     C_1   0.767091 0.491249 0.266405 -0.062089
C227  C     C_R   0.500669 0.498316 0.687305 -0.263341
C228  C     C_1   0.232925 0.491297 0.733598 -0.062574
C229  C     C_1   0.233444 0.991794 0.232794 0.147820
C230  C     C_1   0.766571 0.991728 0.766933 0.149052
C231  C     C_1   0.733439 0.491698 0.232867 0.148311
C232  C     C_1   0.266578 0.491754 0.767111 0.147978
C233  C     C_R   0.175723 0.021327 0.137936 0.371816
C234  C     C_R   0.824224 0.021231 0.861625 0.373243
C235  C     C_R   0.675740 0.521296 0.138074 0.371521
C236  C     C_R   0.324265 0.521067 0.862123 0.372780
C237  C     C_R   0.928510 0.896632 0.049050 0.463471
C238  C     C_R   0.022977 0.023690 0.304607 -0.032961
C239  C     C_R   0.071393 0.896609 0.951793 0.462890
C240  C     C_R   0.429286 0.396081 0.049875 0.462563
C241  C     C_R   0.571492 0.396655 0.951781 0.463798
C242  C     C_R   0.136298 0.025880 0.100759 0.292106
C243  C     C_R   0.863641 0.025831 0.898820 0.293255
C244  C     C_R   0.636320 0.525887 0.100910 0.291552
C245  C     C_R   0.363680 0.525665 0.899301 0.293926
C246  C     C_R   0.114787 0.999883 0.114734 -0.444144
C247  C     C_R   0.885212 0.999968 0.884985 -0.444213
C248  C     C_R   0.614787 0.499900 0.114845 -0.444188
H1    H     H_    0.871033 0.898097 0.957027 0.181950
H2    H     H_    0.002121 0.094577 0.704792 0.215124
H3    H     H_    0.736771 0.462953 0.352982 0.166964
H4    H     H_    0.704669 0.436807 0.367792 0.195976
H5    H     H_    0.307585 0.485027 0.665804 0.120711
H6    H     H_    0.263399 0.464259 0.646772 0.165664
H7    H     H_    0.295227 0.438033 0.631556 0.197378
H8    H     H_    0.119576 0.161556 0.619738 0.380623
H9    H     H_    0.896849 0.156689 0.302649 0.371810
H10   H     H_    0.619769 0.661973 0.620226 0.381840
H11   H     H_    0.396790 0.656634 0.302692 0.371797
H12   H     H_    0.482408 0.226343 0.351419 0.155519
H13   H     H_    0.500431 0.594811 0.299550 0.210068
H14   H     H_    0.481736 0.179471 0.318284 0.126927
H15   H     H_    0.514541 0.213981 0.323499 0.195309
H16   H     H_    0.405333 0.168858 0.470514 0.177294
H17   H     H_    0.415338 0.212813 0.439692 0.155623
H18   H     H_    0.404267 0.213064 0.509170 0.199535
H19   H     H_    0.084212 0.670380 0.496776 0.180705
H20   H     H_    0.075318 0.714391 0.528758 0.165038
H21   H     H_    0.081747 0.714240 0.453288 0.194364
H22   H     H_    0.915402 0.670220 0.501541 0.180625
H23   H     H_    0.924246 0.714312 0.469252 0.165264
H24   H     H_    0.502023 0.594496 0.704774 0.215222
H25   H     H_    0.917766 0.714009 0.544662 0.194354
H26   H     H_    0.489468 0.108533 0.340985 0.109968
H27   H     H_    0.530785 0.083176 0.359882 0.171351
H28   H     H_    0.529789 0.132891 0.347234 0.184925
H29   H     H_    0.487286 0.148675 0.650469 0.188415
H30   H     H_    0.516025 0.109443 0.652403 0.144818
H31   H     H_    0.475182 0.101228 0.658186 0.171679
H32   H     H_    0.999539 0.645572 0.329083 0.188829
H33   H     H_    0.974082 0.606012 0.337469 0.138636
H34   H     H_    0.012552 0.598167 0.324133 0.172542
H35   H     H_    0.311282 0.994449 0.211389 0.139724
H36   H     H_    0.000118 0.645479 0.669695 0.188695
H37   H     H_    0.025737 0.606023 0.661834 0.138451
H38   H     H_    0.987282 0.598022 0.675221 0.172638
H39   H     H_    0.045548 0.783171 0.378255 0.191553
H40   H     H_    0.016438 0.824016 0.358984 0.187161
H41   H     H_    0.002221 0.778614 0.376484 0.148142
H42   H     H_    0.954200 0.782032 0.620291 0.191932
H43   H     H_    0.983483 0.822802 0.640142 0.186274
H44   H     H_    0.997498 0.777582 0.621961 0.148318
H45   H     H_    0.533632 0.288608 0.354181 0.185414
H46   H     H_    0.688785 0.994150 0.788551 0.140130
H47   H     H_    0.515690 0.334864 0.351630 0.203661
H48   H     H_    0.490122 0.293367 0.351955 0.102438
H49   H     H_    0.450596 0.278977 0.610071 0.195118
H50   H     H_    0.482175 0.318197 0.634664 0.180904
H51   H     H_    0.492968 0.273419 0.608719 0.147974
H52   H     H_    0.107874 0.925497 0.546542 0.392740
H53   H     H_    0.891895 0.924905 0.453090 0.389872
H54   H     H_    0.604634 0.373588 0.456157 0.380507
H55   H     H_    0.392672 0.425873 0.459685 0.390518
H56   H     H_    0.002682 0.897693 0.080593 0.128858
H57   H     H_    0.811263 0.494471 0.211401 0.140283
H58   H     H_    0.004885 0.853688 0.126161 0.198740
H59   H     H_    0.040461 0.888697 0.171011 0.176723
H60   H     H_    0.997294 0.897755 0.920397 0.128415
H61   H     H_    0.994872 0.853811 0.874990 0.198451
H62   H     H_    0.959425 0.889025 0.830056 0.177430
H63   H     H_    0.503481 0.397689 0.081446 0.133435
H64   H     H_    0.505877 0.353624 0.127035 0.197776
H65   H     H_    0.541284 0.388777 0.171878 0.176484
H66   H     H_    0.497332 0.397736 0.920057 0.127222
H67   H     H_    0.494948 0.353842 0.874563 0.198524
H68   H     H_    0.188770 0.494451 0.788622 0.139756
H69   H     H_    0.459534 0.389090 0.829608 0.177552
H70   H     H_    0.910243 0.891624 0.215719 0.391292
H71   H     H_    0.088990 0.891102 0.784702 0.390989
H72   H     H_    0.413139 0.389434 0.219493 0.388766
H73   H     H_    0.590729 0.392433 0.786958 0.392365
H74   H     H_    0.051910 0.102592 0.254611 0.179039
H75   H     H_    0.004790 0.086243 0.188065 0.165943
H76   H     H_    0.040878 0.089717 0.166482 0.202657
H77   H     H_    0.949223 0.103347 0.745841 0.177796
H78   H     H_    0.995940 0.086357 0.813441 0.168909
H79   H     H_    0.380169 0.998757 0.280131 0.163845
H80   H     H_    0.959213 0.089974 0.833226 0.202174
H81   H     H_    0.550863 0.603158 0.253704 0.179108
H82   H     H_    0.503878 0.586370 0.187393 0.165704
H83   H     H_    0.539873 0.590249 0.165630 0.202046
H84   H     H_    0.448924 0.603179 0.745555 0.177509
H85   H     H_    0.495674 0.586311 0.813249 0.169475
H86   H     H_    0.458906 0.589813 0.832943 0.202030
H87   H     H_    0.133352 0.980070 0.417497 0.190986
H88   H     H_    0.141752 0.029807 0.424519 0.183862
H89   H     H_    0.102187 0.009629 0.342985 0.164791
H90   H     H_    0.619890 0.998513 0.719884 0.164537
H91   H     H_    0.864681 0.985797 0.575081 0.189833
H92   H     H_    0.861569 0.035901 0.579879 0.178260
H93   H     H_    0.899406 0.009590 0.654981 0.165772
H94   H     H_    0.633393 0.481136 0.417021 0.188588
H95   H     H_    0.641491 0.530922 0.423967 0.183059
H96   H     H_    0.602025 0.510583 0.342500 0.161682
H97   H     H_    0.364661 0.485608 0.574886 0.189507
H98   H     H_    0.361444 0.535707 0.579572 0.178417
H99   H     H_    0.399305 0.509471 0.654772 0.166382
H100  H     H_    0.171268 0.020192 0.622538 0.386262
H101  H     H_    0.880149 0.498835 0.280124 0.164199
H102  H     H_    0.833492 0.029175 0.371580 0.384535
H103  H     H_    0.671733 0.521477 0.621507 0.388004
H104  H     H_    0.333425 0.529089 0.371494 0.384364
H105  H     H_    0.128873 0.897986 0.043805 0.182339
H106  H     H_    0.119875 0.498792 0.719890 0.163917
H107  H     H_    0.380285 0.995737 0.479777 0.166880
H108  H     H_    0.619667 0.995844 0.520149 0.165840
H109  H     H_    0.880300 0.495540 0.479795 0.167321
H110  H     H_    0.119687 0.495603 0.520214 0.167149
H111  H     H_    0.311413 0.991386 0.410111 0.135761
H112  H     H_    0.688533 0.991432 0.589726 0.136005
H113  H     H_    0.811433 0.491138 0.410152 0.136009
H114  H     H_    0.188557 0.491225 0.589860 0.135680
H115  H     H_    0.499914 0.811116 0.599768 0.173374
H116  H     H_    0.371820 0.397245 0.957779 0.181642
H117  H     H_    0.498188 0.811283 0.399430 0.173431
H118  H     H_    0.000074 0.311088 0.599855 0.173504
H119  H     H_    0.998341 0.311307 0.399511 0.173495
H120  H     H_    0.500476 0.880052 0.600553 0.169878
H121  H     H_    0.498767 0.880191 0.399292 0.169846
H122  H     H_    0.000537 0.380029 0.600591 0.169998
H123  H     H_    0.998822 0.380213 0.399323 0.170105
H124  H     H_    0.058780 0.119279 0.582483 0.215269
H125  H     H_    0.940977 0.118800 0.417596 0.212329
H126  H     H_    0.558754 0.619349 0.582372 0.215762
H127  H     H_    0.628927 0.398019 0.043948 0.182502
H128  H     H_    0.440912 0.618741 0.417689 0.212519
H129  H     H_    0.903355 0.994165 0.094255 0.207118
H130  H     H_    0.096563 0.994171 0.905737 0.208348
H131  H     H_    0.403530 0.493409 0.094652 0.206676
H132  H     H_    0.596657 0.494372 0.906296 0.208827
H133  H     H_    0.856323 0.959948 0.985457 0.157431
H134  H     H_    0.143593 0.959860 0.014825 0.157879
H135  H     H_    0.356738 0.458998 0.985911 0.157688
H136  H     H_    0.643646 0.459983 0.015318 0.157834
H137  H     H_    0.064253 0.175676 0.316561 0.351909
H138  H     H_    0.100021 0.135097 0.491450 0.230149
H139  H     H_    0.941112 0.177548 0.689863 0.352493
H140  H     H_    0.563237 0.676202 0.315602 0.352145
H141  H     H_    0.441101 0.677395 0.690089 0.351835
H142  H     H_    0.220812 0.046198 0.060214 0.202517
H143  H     H_    0.177047 0.021155 0.021390 0.168184
H144  H     H_    0.220387 0.000504 0.094975 0.121046
H145  H     H_    0.778963 0.045642 0.939012 0.202920
H146  H     H_    0.822931 0.020920 0.978312 0.166816
H147  H     H_    0.779787 0.000014 0.904936 0.120645
H148  H     H_    0.720848 0.546135 0.060372 0.203171
H149  H     H_    0.906012 0.139950 0.514157 0.257994
H150  H     H_    0.677013 0.521214 0.021447 0.168212
H151  H     H_    0.720297 0.500421 0.094933 0.121026
H152  H     H_    0.279191 0.544987 0.940134 0.201659
H153  H     H_    0.323048 0.520105 0.978797 0.167310
H154  H     H_    0.279769 0.499537 0.905182 0.121657
H155  H     H_    0.080994 0.111876 0.032271 0.380251
H156  H     H_    0.918768 0.111861 0.966656 0.379583
H157  H     H_    0.581131 0.611970 0.032790 0.380302
H158  H     H_    0.418842 0.611618 0.968044 0.379299
H159  H     H_    0.088133 0.989370 0.210915 0.158359
H160  H     H_    0.599205 0.635872 0.490316 0.230630
H161  H     H_    0.128607 0.965518 0.285528 0.147035
H162  H     H_    0.083878 0.942486 0.236090 0.195682
H163  H     H_    0.912036 0.990399 0.789153 0.158598
H164  H     H_    0.871669 0.966836 0.714147 0.147974
H165  H     H_    0.916418 0.943758 0.763625 0.195554
H166  H     H_    0.588014 0.489609 0.210870 0.159700
H167  H     H_    0.628614 0.466014 0.285684 0.145856
H168  H     H_    0.583962 0.442812 0.236693 0.193151
H169  H     H_    0.411889 0.490641 0.789008 0.158750
H170  H     H_    0.371650 0.466932 0.714000 0.148261
H171  H     H_    0.405919 0.639870 0.514136 0.257958
H172  H     H_    0.416491 0.444034 0.763647 0.195698
H173  H     H_    0.944900 0.883177 0.956626 0.150863
H174  H     H_    0.901729 0.855861 0.923963 0.204988
H175  H     H_    0.946630 0.832999 0.965653 0.190046
H176  H     H_    0.055094 0.883134 0.044479 0.151180
H177  H     H_    0.098203 0.855699 0.077235 0.205244
H178  H     H_    0.053260 0.832965 0.035820 0.189814
H179  H     H_    0.445775 0.382809 0.957545 0.151125
H180  H     H_    0.402785 0.355194 0.924970 0.204723
H181  H     H_    0.447842 0.332638 0.966816 0.189531
H182  H     H_    0.001177 0.094708 0.300032 0.210086
H183  H     H_    0.555087 0.382962 0.044233 0.150475
H184  H     H_    0.598214 0.355557 0.076999 0.205125
H185  H     H_    0.553272 0.332806 0.035329 0.189636
H186  H     H_    0.192644 0.983928 0.333919 0.120259
H187  H     H_    0.236743 0.963054 0.352836 0.166284
H188  H     H_    0.204734 0.936716 0.367619 0.197421
H189  H     H_    0.807505 0.984651 0.665702 0.121380
H190  H     H_    0.763383 0.963795 0.646837 0.165737
H191  H     H_    0.795306 0.937567 0.631889 0.197339
H192  H     H_    0.692755 0.484031 0.334077 0.120655
O1    O     O_R   0.055440 0.968710 0.055440 -0.624000
O2    O     O_R   0.555440 0.999880 0.607160 -0.628918
O3    O     O_3   0.389543 0.666073 0.336670 -0.476412
O4    O     O_3   0.527955 0.191987 0.421935 -0.538134
O5    O     O_3   0.457347 0.193801 0.542004 -0.600116
O6    O     O_3   0.030615 0.693801 0.430997 -0.603527
O7    O     O_3   0.968951 0.693664 0.567214 -0.604076
O8    O     O_3   0.538414 0.114687 0.445637 -0.555511
O9    O     O_3   0.463336 0.115923 0.556765 -0.576555
O10   O     O_3   0.028560 0.615600 0.426458 -0.572190
O11   O     O_3   0.971230 0.615483 0.572690 -0.571911
O12   O     O_3   0.046756 0.805425 0.466719 -0.556481
O13   O     O_R   0.944560 0.499880 0.392840 -0.630202
O14   O     O_3   0.953069 0.804984 0.532137 -0.556038
O15   O     O_3   0.539757 0.305860 0.450105 -0.522450
O16   O     O_3   0.449669 0.304898 0.524370 -0.553776
O17   O     O_2   0.081345 0.862602 0.454403 -0.234724
O18   O     O_2   0.043466 0.919671 0.422379 -0.285135
O19   O     O_3   0.093547 0.907325 0.557778 -0.492312
O20   O     O_2   0.918809 0.861977 0.545623 -0.235048
O21   O     O_2   0.956474 0.919169 0.577212 -0.286778
O22   O     O_3   0.906370 0.906977 0.441936 -0.492714
O23   O     O_2   0.546516 0.418687 0.426546 -0.280568
O24   O     O_R   0.055440 0.499880 0.607160 -0.630240
O25   O     O_2   0.589806 0.403450 0.554478 -0.229935
O26   O     O_3   0.585934 0.357654 0.459135 -0.491301
O27   O     O_2   0.420485 0.362364 0.550851 -0.236719
O28   O     O_2   0.458569 0.419149 0.580584 -0.288909
O29   O     O_3   0.406199 0.407791 0.446516 -0.494157
O30   O     O_3   0.990255 0.900186 0.163849 -0.578764
O31   O     O_3   0.009643 0.900272 0.836996 -0.578299
O32   O     O_3   0.491015 0.399983 0.164652 -0.583878
O33   O     O_3   0.509825 0.400341 0.836851 -0.577048
O34   O     O_2   0.964934 0.923813 0.340788 -0.295190
O35   O     O_R   0.500000 0.944470 0.551750 -0.621314
O36   O     O_2   0.911159 0.962862 0.256658 -0.278343
O37   O     O_3   0.928320 0.905265 0.207112 -0.545732
O38   O     O_2   0.034721 0.923900 0.659377 -0.295171
O39   O     O_2   0.088727 0.962370 0.743985 -0.275475
O40   O     O_3   0.070866 0.904791 0.792981 -0.545100
O41   O     O_2   0.467152 0.422950 0.342576 -0.308855
O42   O     O_2   0.412288 0.460970 0.259037 -0.274311
O43   O     O_3   0.430056 0.404031 0.209048 -0.550976
O44   O     O_2   0.536210 0.424500 0.660530 -0.290706
O45   O     O_2   0.589466 0.463593 0.745655 -0.275315
O46   O     O_R   0.500000 0.944470 0.448250 -0.621260
O47   O     O_3   0.571952 0.405542 0.794157 -0.543255
O48   O     O_3   0.049111 0.045442 0.234680 -0.652760
O49   O     O_3   0.951234 0.046088 0.764944 -0.653294
O50   O     O_3   0.548595 0.545997 0.234185 -0.651937
O51   O     O_3   0.451081 0.545922 0.764771 -0.653855
O52   O     O_3   0.096336 0.010821 0.432592 -0.535667
O53   O     O_3   0.904108 0.015015 0.564537 -0.538104
O54   O     O_3   0.596225 0.511569 0.432183 -0.525639
O55   O     O_3   0.404064 0.514904 0.564397 -0.539116
O56   O     O_2   0.175012 0.075828 0.540277 -0.295397
O57   O     O_R   0.000000 0.444470 0.551750 -0.620989
O58   O     O_2   0.146162 0.093217 0.609732 -0.282233
O59   O     O_3   0.145857 0.022614 0.578481 -0.507915
O60   O     O_2   0.828507 0.079625 0.460320 -0.290465
O61   O     O_2   0.857660 0.102859 0.394412 -0.235615
O62   O     O_3   0.858671 0.030743 0.416439 -0.512811
O63   O     O_2   0.674510 0.577586 0.539032 -0.295743
O64   O     O_2   0.645679 0.594080 0.608927 -0.283513
O65   O     O_3   0.646240 0.523650 0.577589 -0.489032
O66   O     O_2   0.328431 0.579547 0.460199 -0.292588
O67   O     O_2   0.357613 0.602772 0.394340 -0.236148
O68   O     O_R   1.000000 0.444470 0.448250 -0.620935
O69   O     O_3   0.358604 0.530657 0.416352 -0.512915
O70   O     O_R   0.055440 0.031290 0.055450 -0.554740
O71   O     O_R   0.944560 0.031290 0.944550 -0.554663
O72   O     O_R   0.555440 0.531290 0.055450 -0.554438
O73   O     O_R   0.944560 0.968710 0.944560 -0.624285
O74   O     O_R   0.444560 0.531290 0.944550 -0.555313
O75   O     O_R   0.000000 0.968710 0.091620 -0.670269
O76   O     O_R   0.000000 0.968710 0.908380 -0.670106
O77   O     O_R   0.500000 0.468710 0.091620 -0.670199
O78   O     O_R   0.500000 0.468710 0.908380 -0.670286
O79   O     O_R   0.000000 0.031290 0.091630 -0.591020
O80   O     O_R   0.000000 0.031290 0.908370 -0.591488
O81   O     O_R   0.500000 0.531290 0.091630 -0.590412
O82   O     O_R   0.500000 0.531290 0.908370 -0.591698
O83   O     O_R   0.968720 0.055450 0.468730 -0.628886
O84   O     O_R   0.555440 0.468710 0.055440 -0.623987
O85   O     O_R   0.031280 0.055450 0.531270 -0.628919
O86   O     O_R   0.468720 0.555450 0.468730 -0.629578
O87   O     O_R   0.531280 0.555450 0.531270 -0.629763
O88   O     O_R   0.968700 0.000020 0.377090 -0.580240
O89   O     O_R   0.031300 0.000020 0.622910 -0.578055
O90   O     O_R   0.468700 0.500020 0.377090 -0.581386
O91   O     O_R   0.531300 0.500020 0.622910 -0.578657
O92   O     O_R   0.031300 0.000000 0.439680 -0.579227
O93   O     O_R   0.968700 0.000000 0.560320 -0.575576
O94   O     O_R   0.531300 0.500000 0.439680 -0.572171
O95   O     O_R   0.444560 0.468710 0.944560 -0.623710
O96   O     O_R   0.468700 0.500000 0.560320 -0.576898
O97   O     O_R   0.968690 0.944590 0.468690 -0.543007
O98   O     O_R   0.031310 0.944590 0.531310 -0.543731
O99   O     O_R   0.468690 0.444590 0.468690 -0.545000
O100  O     O_R   0.531310 0.444590 0.531310 -0.536126
O101  O     O_R   0.500000 0.055330 0.551710 -0.592481
O102  O     O_R   0.500000 0.055330 0.448290 -0.605850
O103  O     O_R   1.000000 0.555330 0.551710 -0.589359
O104  O     O_R   0.000000 0.555330 0.448290 -0.589422
O105  O     O_2   0.990877 0.166291 0.341768 -0.259569
O106  O     O_R   0.444560 0.999900 0.496290 -0.614386
O107  O     O_2   0.053212 0.192310 0.428696 -0.274172
O108  O     O_3   0.037004 0.178591 0.298038 -0.499999
O109  O     O_2   0.015790 0.166095 0.669308 -0.223167
O110  O     O_2   0.955062 0.195035 0.581507 -0.277272
O111  O     O_3   0.968600 0.179462 0.709951 -0.500916
O112  O     O_2   0.489764 0.666375 0.340408 -0.259556
O113  O     O_2   0.551909 0.692768 0.427380 -0.274884
O114  O     O_3   0.535954 0.678937 0.296924 -0.500491
O115  O     O_2   0.515677 0.666041 0.669189 -0.222970
O116  O     O_2   0.454910 0.694980 0.581593 -0.277525
O117  O     O_R   0.555440 0.999900 0.503710 -0.616910
O118  O     O_3   0.468580 0.679316 0.710095 -0.501317
O119  O     O_3   0.197620 0.044843 0.123673 -0.533057
O120  O     O_3   0.802264 0.044608 0.875744 -0.530284
O121  O     O_3   0.697658 0.544793 0.123834 -0.532861
O122  O     O_3   0.302341 0.544292 0.876592 -0.532191
O123  O     O_2   0.141858 0.084836 0.024724 -0.212548
O124  O     O_2   0.082833 0.049549 0.967263 -0.357633
O125  O     O_3   0.097339 0.094625 0.072738 -0.516453
O126  O     O_2   0.857905 0.084673 0.974237 -0.216026
O127  O     O_2   0.916994 0.049432 0.032182 -0.359786
O128  O     O_R   0.944560 0.499900 0.496290 -0.614690
O129  O     O_3   0.902503 0.094607 0.926347 -0.515085
O130  O     O_2   0.641948 0.584930 0.025125 -0.211740
O131  O     O_2   0.582881 0.549710 0.967496 -0.357372
O132  O     O_3   0.597431 0.594653 0.073166 -0.515988
O133  O     O_2   0.358049 0.584116 0.975581 -0.217882
O134  O     O_2   0.417138 0.548891 0.032860 -0.360481
O135  O     O_3   0.402522 0.594495 0.927528 -0.516374
O136  O     O_3   0.112511 0.946176 0.182706 -0.562072
O137  O     O_3   0.887602 0.946758 0.816697 -0.561936
O138  O     O_3   0.612466 0.446325 0.183032 -0.561693
O139  O     O_R   0.055440 0.499900 0.503710 -0.614690
O140  O     O_3   0.387575 0.446869 0.816539 -0.561438
O141  O     O_3   0.935764 0.860378 0.036081 -0.604784
O142  O     O_3   0.064111 0.860359 0.965095 -0.604771
O143  O     O_3   0.436757 0.359883 0.037066 -0.607244
O144  O     O_3   0.564212 0.360360 0.964869 -0.603491
O145  O     O_3   0.189407 0.941794 0.261250 -0.553807
O146  O     O_3   0.810718 0.942217 0.738309 -0.554284
O147  O     O_3   0.689355 0.441799 0.261417 -0.554027
O148  O     O_3   0.310677 0.442431 0.738031 -0.553784
O149  O     O_2   0.084968 0.225972 0.569189 -0.268894
O150  O     O_R   0.444560 0.999880 0.392840 -0.630186
O151  O     O_2   0.069255 0.218543 0.662192 -0.194876
O152  O     O_3   0.111301 0.167518 0.653879 -0.481502
O153  O     O_2   0.910642 0.219957 0.430616 -0.214314
O154  O     O_2   0.930781 0.223037 0.343341 -0.259318
O155  O     O_3   0.889656 0.166193 0.336665 -0.475709
O156  O     O_2   0.584822 0.725961 0.568855 -0.269846
O157  O     O_2   0.569072 0.718784 0.661854 -0.194998
O158  O     O_3   0.611169 0.667662 0.653968 -0.481094
O159  O     O_2   0.410399 0.719734 0.430789 -0.215053
O160  O     O_2   0.430543 0.723077 0.343543 -0.259362
S1    S     S_3+6 0.032056 0.165344 0.367072 0.041461
S2    S     S_3+6 0.923727 0.196998 0.389796 0.091106
S3    S     S_3+6 0.575080 0.697899 0.608584 0.094014
S4    S     S_3+6 0.423543 0.696914 0.389910 0.090746
S5    S     S_3+6 0.061233 0.888710 0.477539 0.098518
S6    S     S_3+6 0.938783 0.888281 0.522242 0.097410
S7    S     S_3+6 0.562174 0.387381 0.481344 0.095753
S8    S     S_3+6 0.439579 0.388568 0.525381 0.097586
S9    S     S_3+6 0.944440 0.940944 0.266625 0.063921
S10   S     S_3+6 0.055190 0.940717 0.733608 0.064905
S11   S     S_3+6 0.445811 0.439843 0.268248 0.057024
S12   S     S_3+6 0.974342 0.166776 0.641744 0.051577
S13   S     S_3+6 0.556076 0.441420 0.734664 0.067650
S14   S     S_3+6 0.143108 0.067642 0.551851 0.052908
S15   S     S_3+6 0.860712 0.074295 0.448523 0.067649
S16   S     S_3+6 0.642825 0.568752 0.550916 0.055164
S17   S     S_3+6 0.360646 0.574209 0.448436 0.066498
S18   S     S_3+6 0.530973 0.665669 0.365909 0.041174
S19   S     S_3+6 0.474243 0.666694 0.641764 0.051332
S20   S     S_3+6 0.114632 0.064060 0.038208 0.065905
S21   S     S_3+6 0.885207 0.063966 0.961059 0.064125
S22   S     S_3+6 0.614696 0.564134 0.038509 0.066389
S23   S     S_3+6 0.385297 0.563609 0.961987 0.062602
S24   S     S_3+6 0.075224 0.197797 0.608742 0.094281
Zn1   Zn    Zn3+2 0.000000 0.958210 0.000000 0.894679
Zn2   Zn    Zn3+2 0.500000 0.999910 0.430920 0.969629
Zn3   Zn    Zn3+2 0.000000 0.499910 0.569080 0.982633
Zn4   Zn    Zn3+2 1.000000 0.499910 0.430920 0.982594
Zn5   Zn    Zn3+2 0.500000 0.458210 0.000000 0.894999
Zn6   Zn    Zn3+2 1.000000 0.041790 0.000000 1.050452
Zn7   Zn    Zn3+2 0.500000 0.541790 0.000000 1.050198
Zn8   Zn    Zn3+2 0.958200 0.000020 0.458210 1.177119
Zn9   Zn    Zn3+2 0.041800 0.000020 0.541790 1.178244
Zn10  Zn    Zn3+2 0.458200 0.500020 0.458210 1.175800
Zn11  Zn    Zn3+2 0.541800 0.500020 0.541790 1.207248
Zn12  Zn    Zn3+2 0.500000 0.999910 0.569080 0.983742

loop_
_geom_bond_atom_site_label_1
_geom_bond_atom_site_label_2
_ccdc_geom_bond_type
C123  O119  S    
C155  H61   S    
C179  H171  S    
C160  H77   S    
O86   Zn10  S    
C87   C91   T    
C112  O73   A    
C141  H15   S    
C166  H98   S    
C142  H17   S    
C61   H124  S    
C152  O15   S    
O100  Zn11  S    
C141  O4    S    
C162  H86   S    
C155  O31   S    
C138  H191  S    
C78   O8    S    
C105  H131  S    
O3    S4    S    
C26   C83   S    
C29   C208  S    
H140  O114  S    
C128  H161  S    
C36   C241  A    
C148  O10   S    
C152  H48   S    
C44   H121  S    
C94   O15   S    
O158  S3    S    
C145  O8    S    
C164  H93   S    
H100  O59   S    
C95   C99   A    
C190  O80   A    
C221  C225  S    
C201  H68   S    
C2    C195  S    
C158  H69   S    
C38   O57   A    
C20   O89   A    
H137  O108  S    
C56   C72   A    
C199  H46   S    
C50   C52   S    
C169  C174  A    
O13   Zn4   S    
C34   C240  A    
C59   C73   A    
C36   C71   A    
C33   C69   A    
C130  H166  S    
C85   C87   S    
C156  H64   S    
C69   C135  S    
O159  S4    D    
C159  H75   S    
O73   Zn1   S    
C158  O33   S    
C236  C245  A    
C147  H29   S    
O99   Zn10  S    
C127  H152  S    
C154  H58   S    
C217  C221  A    
C71   C157  S    
O29   S8    S    
H104  O69   S    
O113  S18   D    
C127  H154  S    
O76   Zn1   S    
O110  S12   D    
C167  C171  A    
C98   C102  A    
C187  H13   S    
C209  C213  A    
C130  O138  S    
C136  O144  S    
C64   C66   A    
C144  H22   S    
C170  O55   S    
C133  O142  S    
O21   S6    D    
O34   S9    D    
C121  S11   S    
C208  C212  A    
C21   O90   A    
C57   O50   S    
C171  S14   S    
H139  O111  S    
C153  O16   S    
O115  S19   D    
C125  H147  S    
C47   H123  S    
C80   O9    S    
O114  S18   S    
C126  H148  S    
C178  C182  A    
O46   Zn2   S    
O153  S2    D    
O107  S1    D    
C132  H174  S    
C82   C84   A    
O28   S8    D    
C9    O146  S    
C131  H169  S    
C212  H108  S    
O97   Zn8   S    
C178  H160  S    
C165  H94   S    
C115  C237  A    
C96   S5    S    
O102  Zn2   S    
C153  H49   S    
C138  H189  S    
C118  H127  S    
C145  H27   S    
O130  S22   D    
H71   O40   S    
C137  H186  S    
O35   Zn12  S    
C101  C191  S    
C70   C105  A    
O58   S14   D    
C175  C179  A    
O23   S7    D    
C186  C195  A    
C240  O143  S    
C59   C63   A    
C225  C230  T    
O154  S2    D    
C103  C109  A    
C60   C64   A    
C120  C135  A    
C158  H67   S    
C239  O142  S    
C215  C220  A    
C104  C110  A    
C191  O81   A    
O125  S20   S    
C77   C82   A    
C161  H81   S    
C18   O87   A    
C141  H12   S    
C161  H83   S    
C74   O4    S    
O135  S23   S    
C167  O52   S    
C14   C230  S    
O69   S17   S    
C95   C108  A    
C214  H110  S    
C61   C65   A    
C6    O138  S    
C88   C89   T    
O19   S5    S    
C126  O121  S    
C79   C189  S    
C71   C106  A    
C29   O117  A    
C129  H163  S    
C41   C45   A    
C242  S20   S    
C140  H5    S    
H8    O152  S    
C113  C157  A    
C1    C246  S    
C224  C229  T    
C56   S24   S    
C44   C48   A    
C218  H113  S    
C175  S17   S    
C177  H149  S    
C42   H119  S    
H141  O118  S    
C128  H159  S    
C19   O92   A    
C151  O14   S    
H103  O65   S    
C139  O147  S    
C67   C103  A    
C12   C229  S    
C53   C54   T    
C25   O100  A    
C31   O139  A    
O91   Zn11  S    
O22   S6    S    
C163  H87   S    
C27   C84   S    
O36   S9    D    
C143  H20   S    
O93   Zn8   S    
C160  O49   S    
C111  H135  S    
C134  O143  S    
C25   C102  S    
C13   C57   A    
C32   C237  A    
C182  S18   S    
O101  Zn12  S    
C244  S22   S    
C92   C96   A    
O131  S22   D    
C86   C88   S    
O42   S11   D    
H70   O37   S    
O82   Zn7   S    
O72   Zn7   S    
C122  C157  A    
C13   C196  S    
C198  C202  A    
C40   H117  S    
C70   C146  S    
O98   Zn9   S    
C165  H96   S    
C200  C204  A    
C159  O48   S    
C153  H51   S    
C23   C100  S    
O39   S10   D    
C31   O24   A    
O65   S16   S    
C188  H24   S    
C207  C211  A    
C167  C193  A    
O79   Zn6   S    
H155  O125  S    
C137  H188  S    
C150  H40   S    
C20   C205  S    
O103  Zn3   S    
C147  O9    S    
C12   C233  A    
C148  H33   S    
C164  H91   S    
C6    C248  A    
C243  S21   S    
C234  O120  S    
H54   O26   S    
O61   S15   D    
O77   Zn5   S    
C51   C53   S    
O40   S10   S    
O47   S13   S    
O139  Zn4   S    
C5    C9    A    
C134  H181  S    
O105  S1    D    
O85   Zn9   S    
C206  C210  A    
C8    C12   A    
O118  S19   S    
C129  H165  S    
C184  S19   S    
C140  H7    S    
C194  C238  A    
C39   H115  S    
C19   O88   A    
C26   O101  A    
C32   C67   A    
O41   S11   D    
C202  C207  A    
C74   C78   A    
C89   C107  S    
O81   Zn7   S    
C201  C223  A    
C185  H182  S    
O133  S23   D    
C93   C97   A    
C126  H151  S    
C97   C100  A    
C28   O150  A    
O112  S18   D    
C179  C184  A    
C90   C190  S    
O116  S19   D    
C28   C207  S    
C113  C192  S    
C174  C178  A    
C160  H78   S    
C163  O52   S    
C15   C231  S    
C27   O104  A    
C143  H21   S    
C125  O120  S    
C198  C220  A    
C166  H99   S    
C161  O50   S    
C142  H18   S    
C128  O136  S    
C156  O32   S    
O74   Zn7   S    
C118  C241  A    
C115  H1    S    
O17   S5    D    
O68   Zn4   S    
C57   C101  A    
C79   C124  A    
C68   C113  A    
C128  H162  S    
C111  C117  A    
C151  H42   S    
C98   S7    S    
C152  H45   S    
C136  H183  S    
C90   C135  A    
C127  O122  S    
O111  S12   S    
C177  C181  A    
C96   C100  A    
C35   C79   A    
C41   C51   A    
C74   C85   A    
C163  H89   S    
C37   O46   A    
C193  C238  S    
C155  H62   S    
C55   C73   S    
C46   O49   S    
O37   S9    S    
C233  C242  A    
C40   C44   A    
O66   S17   D    
C20   O93   A    
O124  S20   D    
C19   C194  S    
C160  H80   S    
C121  C146  A    
O45   S13   D    
O26   S7    S    
C173  S15   S    
C3    C183  S    
C170  C197  A    
C130  H167  S    
O108  S1    S    
C58   C62   A    
C112  C247  S    
C129  O137  S    
C133  H178  S    
C203  H90   S    
C187  C196  A    
C149  H38   S    
O2    Zn12  S    
C139  H4    S    
C138  O146  S    
C220  C224  S    
C30   C209  S    
O94   Zn11  S    
C38   C49   S    
C192  O82   A    
C154  H59   S    
C116  C239  A    
C150  O12   S    
C242  C246  A    
C137  O145  S    
O63   S16   D    
C127  H153  S    
C120  C205  A    
O44   S13   D    
C110  C116  A    
C3    C7    A    
C134  H179  S    
C80   C83   A    
C122  C227  A    
C212  C217  A    
C94   C98   A    
C103  H129  S    
C60   C73   A    
C1    O70   A    
C41   H118  S    
C172  O72   A    
H156  O129  S    
C78   C83   A    
C75   C85   A    
O129  S21   S    
C162  H84   S    
C92   O12   S    
C168  C195  A    
C204  C209  A    
H52   O19   S    
O1    Zn1   S    
C183  O95   A    
C168  O53   S    
O156  S3    D    
C1    O1    A    
C125  H146  S    
C24   C227  A    
C34   C70   A    
O78   Zn5   S    
C52   C55   T    
C123  H144  S    
C105  C111  A    
C63   C66   A    
C172  O84   A    
C156  H65   S    
C199  C203  A    
C166  H97   S    
O150  Zn2   S    
C142  H16   S    
C131  H172  S    
O25   S7    D    
C241  O144  S    
H10   O158  S    
C170  C175  A    
C60   S4    S    
C162  H85   S    
C138  H190  S    
C192  O78   A    
C76   O6    S    
O38   S10   D    
C152  H47   S    
C202  H79   S    
C245  S23   S    
C5    O137  S    
C164  O53   S    
C95   O16   S    
C36   O33   S    
C143  O6    S    
C148  H32   S    
C144  H25   S    
C206  H106  S    
O149  S24   D    
C9    C14   A    
C10   O147  S    
C45   C49   A    
O62   S15   S    
C213  C218  A    
C176  H138  S    
O152  S24   S    
O96   Zn10  S    
C82   O11   S    
C236  O122  S    
C211  H107  S    
O104  Zn4   S    
O18   S5    D    
C4    C246  A    
C165  O54   S    
O87   Zn11  S    
O90   Zn10  S    
O89   Zn9   S    
C156  H63   S    
C106  C114  A    
C24   C197  S    
C26   O102  A    
C243  C247  A    
C159  H76   S    
C18   C66   S    
C76   C86   A    
C228  C232  T    
C147  H30   S    
C29   O2    A    
C189  O79   A    
H157  O132  S    
C35   O48   S    
C203  C208  A    
C109  H133  S    
C4    O136  S    
O106  Zn12  S    
C117  H116  S    
C10   C15   A    
O67   S17   D    
C45   H122  S    
C30   O13   A    
H11   O3    S    
C6    C10   A    
C46   C90   A    
C204  H101  S    
C25   O99   A    
C131  O140  S    
O24   Zn3   S    
C169  O54   S    
C200  C222  A    
C32   O30   S    
C181  S12   S    
C31   C210  S    
C188  C197  A    
C40   C50   A    
O128  Zn3   S    
C145  H26   S    
C201  C206  A    
C151  H43   S    
C23   O97   A    
C217  H112  S    
C235  C244  A    
C186  H2    S    
O132  S22   S    
C24   C68   A    
C123  H142  S    
C219  C223  A    
O84   Zn5   S    
C244  C248  A    
C99   C102  A    
C213  H109  S    
C155  H60   S    
C43   H120  S    
C133  H176  S    
C15   C235  A    
C63   H126  S    
C222  C226  S    
C56   C61   A    
C112  O71   A    
C3    C245  A    
C131  H170  S    
C142  O5    S    
C165  H95   S    
H72   O43   S    
C153  H50   S    
C81   O10   S    
C211  C215  A    
H53   O22   S    
C68   O51   S    
O70   Zn6   S    
C114  H136  S    
C141  H14   S    
C137  H187  S    
C4    C8    A    
C183  O74   A    
C67   C124  S    
O157  S3    D    
O80   Zn6   S    
C47   C49   A    
O71   Zn6   S    
C119  C124  A    
C2    C46   A    
C7    C11   A    
C94   C108  A    
C180  S1    S    
C148  H34   S    
C164  H92   S    
C162  O51   S    
C158  H66   S    
C13   C216  A    
C132  O141  S    
O151  S24   D    
C151  H44   S    
C214  C219  A    
O88   Zn8   S    
O60   S15   D    
O127  S21   D    
C23   O98   A    
C16   C236  A    
C226  C231  T    
C37   O35   A    
C161  H82   S    
C18   O86   A    
O56   S14   D    
C22   O91   A    
C11   C16   A    
C7    O140  S    
C174  S16   S    
O117  Zn2   S    
C176  C180  A    
O134  S23   D    
O160  S4    D    
C117  C240  A    
O123  S20   D    
O57   Zn3   S    
C129  H164  S    
C91   C108  S    
C144  O7    S    
C154  H56   S    
H9    O155  S    
C43   C48   A    
C64   H128  S    
C154  O30   S    
C234  C243  A    
C42   C47   A    
O27   S8    D    
C28   O106  A    
C17   O83   A    
C34   O32   S    
C21   O94   A    
C149  O11   S    
O64   S16   D    
C35   C238  A    
C200  H57   S    
C5    C247  A    
O83   Zn8   S    
C218  C222  A    
C169  C196  A    
C140  O148  S    
C33   O31   S    
C168  C173  A    
C101  C146  A    
C21   C216  S    
H73   O47   S    
C27   O103  A    
C121  C216  A    
C163  H88   S    
C144  H23   S    
O75   Zn1   S    
C106  H132  S    
C122  S13   S    
C109  C115  A    
C223  C228  S    
C39   C43   A    
C22   C227  S    
H158  O135  S    
C210  C214  A    
C30   O128  A    
C16   C232  S    
O43   S11   S    
C139  H192  S    
C184  C188  A    
O126  S21   D    
C171  C176  A    
C136  H184  S    
C33   C239  A    
C190  O76   A    
C159  H74   S    
H102  O62   S    
C92   C107  A    
C237  O141  S    
C132  H175  S    
C173  C177  A    
C116  H105  S    
C181  C186  A    
C54   C72   S    
C2    C205  A    
C59   S3    S    
C37   C48   S    
C58   S2    S    
C219  H114  S    
O92   Zn9   S    
C114  C118  A    
C172  C248  S    
C199  C221  A    
C191  O77   A    
C75   O5    S    
C77   C86   A    
C22   O96   A    
C104  H130  S    
C150  H39   S    
C14   C234  A    
C81   C84   A    
C130  H168  S    
C75   C80   A    
C69   C104  A    
O155  S2    S    
C133  H177  S    
C62   H125  S    
C62   C65   A    
O20   S6    D    
C11   O148  S    
C149  H37   S    
C139  H3    S    
C185  C193  A    
C132  H173  S    
C76   C81   A    
O95   Zn5   S    
C147  H31   S    
C42   C51   A    
C17   C65   S    
C119  C194  A    
C233  O119  S    
O59   S14   S    
C134  H180  S    
C93   C107  A    
C58   C72   A    
C38   O68   A    
C215  H111  S    
C145  H28   S    
H55   O29   S    
C8    O145  S    
C149  H36   S    
C93   O14   S    
C143  H19   S    
C182  C187  A    
C180  C185  A    
C189  O75   A    
C198  H35   S    
C77   O7    S    
C120  S10   S    
C39   C50   A    
C140  H6    S    
C97   S6    S    
C119  S9    S    
C17   O85   A    
C150  H41   S    
C99   S8    S    
C110  H134  S    
C125  H145  S    
C166  O55   S    
C136  H185  S    
C126  H150  S    
O109  S12   D    
C235  O121  S    
C123  H143  S    
