data_mof_unit_43708.cif
_audit_creation_date              2013-03-05T15:53:03-0500
_audit_creation_method            fapswitch 2.2
_symmetry_space_group_name_H-M    P1
_symmetry_Int_Tables_number       1
_space_group_crystal_system       triclinic
_cell_length_a                    19.9451
_cell_length_b                    17.075568
_cell_length_c                    15.46784
_cell_angle_alpha                 90.274917
_cell_angle_beta                  52.422377
_cell_angle_gamma                 90.357663
_cell_volume                      4174.90688522

loop_
_atom_site_label
_atom_site_type_symbol
_atom_site_description
_atom_site_fract_x
_atom_site_fract_y
_atom_site_fract_z
_atom_type_partial_charge
C1    C     C_R   0.855156 0.685040 0.020657 -0.133857
C2    C     C_R   0.156049 0.677240 0.961363 -0.105769
C3    C     C_R   0.345310 0.177996 0.036818 -0.104462
C4    C     C_R   0.655894 0.177311 0.961529 -0.103393
H1    H     H_    0.855590 0.742667 0.049392 0.120934
H2    H     H_    0.159669 0.733551 0.928310 0.105358
H3    H     H_    0.342575 0.234512 0.069410 0.105211
H4    H     H_    0.659357 0.233626 0.928614 0.105870
N1    N     N_R   0.908660 0.628630 0.995840 -0.051119
N2    N     N_R   0.091340 0.628630 0.004160 -0.052962
N3    N     N_R   0.408660 0.128630 0.995840 -0.053161
N4    N     N_R   0.591340 0.128630 0.004160 -0.053468
C5    C     C_R   0.902668 0.301322 0.206161 -0.071190
C6    C     C_R   0.097072 0.301251 0.793667 -0.071063
C7    C     C_R   0.399701 0.801781 0.207328 -0.061743
C8    C     C_R   0.596942 0.801445 0.793146 -0.094511
H5    H     H_    0.914760 0.245227 0.167958 0.184677
H6    H     H_    0.084784 0.245235 0.831744 0.185455
H7    H     H_    0.408505 0.745636 0.171094 0.197926
H8    H     H_    0.582685 0.745503 0.831327 0.197826
N5    N     N_R   0.922310 0.368460 0.151950 -0.059139
N6    N     N_R   0.077690 0.368460 0.848050 -0.059939
N7    N     N_R   0.422310 0.868460 0.151950 -0.062666
N8    N     N_R   0.577690 0.868460 0.848050 -0.059819
C9    C     C_R   0.868765 0.386769 0.893679 0.135370
C10   C     C_R   0.131699 0.387562 0.105648 0.117698
C11   C     C_R   0.368964 0.886888 0.893389 0.119896
C12   C     C_R   0.635575 0.889625 0.101195 0.126527
N9    N     N_R   0.903470 0.421430 0.936420 -0.094865
N10   N     N_R   0.096530 0.421430 0.063580 -0.098471
N11   N     N_R   0.403470 0.921430 0.936420 -0.097977
N12   N     N_R   0.596530 0.921430 0.063580 -0.097796
C13   C     C_R   0.859642 0.579867 0.315021 -0.003058
C14   C     C_R   0.139129 0.579766 0.685026 -0.014268
C15   C     C_R   0.360624 0.080328 0.315360 -0.006875
C16   C     C_R   0.638990 0.080637 0.684530 -0.007474
H9    H     H_    0.845300 0.538465 0.375899 0.135416
H10   H     H_    0.152730 0.537762 0.625018 0.137234
H11   H     H_    0.346308 0.038660 0.375974 0.135164
H12   H     H_    0.653068 0.038924 0.623791 0.134540
N13   N     N_R   0.927500 0.575670 0.211370 -0.051023
N14   N     N_R   0.072500 0.575670 0.788630 -0.051048
N15   N     N_R   0.427500 0.075670 0.211370 -0.050636
N16   N     N_R   0.572500 0.075670 0.788630 -0.050457
C17   C     C_R   0.869897 0.301012 0.999473 0.330440
C18   C     C_R   0.130117 0.301362 0.999942 0.329991
C19   C     C_R   0.370705 0.800686 0.998299 0.325653
C20   C     C_R   0.627682 0.800608 0.001873 0.282284
N17   N     N_R   0.908660 0.365680 0.995820 -0.116929
N18   N     N_R   0.091340 0.365680 0.004180 -0.117463
N19   N     N_R   0.408660 0.865680 0.995820 -0.116118
N20   N     N_R   0.591340 0.865680 0.004180 -0.115310
C21   C     C_R   0.853910 0.675179 0.222022 -0.089935
C22   C     C_R   0.143937 0.677546 0.776260 -0.101017
C23   C     C_R   0.356395 0.177385 0.223456 -0.100257
C24   C     C_R   0.643240 0.178164 0.776629 -0.101468
H13   H     H_    0.836107 0.726872 0.201262 0.107632
H14   H     H_    0.159266 0.732704 0.794125 0.114277
H15   H     H_    0.341405 0.232019 0.204933 0.111374
H16   H     H_    0.657927 0.233315 0.795296 0.114115
N21   N     N_R   0.922310 0.631420 0.151980 -0.051220
N22   N     N_R   0.077690 0.631420 0.848020 -0.052112
N23   N     N_R   0.422310 0.131420 0.151980 -0.052095
N24   N     N_R   0.577690 0.131420 0.848020 -0.052364
C25   C     C_R   0.906879 0.393954 0.303335 -0.056859
C26   C     C_R   0.092973 0.393387 0.696711 -0.059724
C27   C     C_R   0.406235 0.893519 0.303584 -0.060523
C28   C     C_R   0.593356 0.893869 0.696286 -0.055902
H17   H     H_    0.916499 0.422720 0.357330 0.146657
H18   H     H_    0.083399 0.421581 0.642705 0.148828
H19   H     H_    0.416374 0.921466 0.357563 0.146972
H20   H     H_    0.583716 0.922301 0.642476 0.145683
N25   N     N_R   0.927500 0.426330 0.211360 -0.062374
N26   N     N_R   0.072500 0.426330 0.788640 -0.063076
N27   N     N_R   0.427500 0.926330 0.211360 -0.063208
N28   N     N_R   0.572500 0.926330 0.788640 -0.062490
C29   C     C_R   0.842727 0.591148 0.929110 -0.031449
C30   C     C_R   0.171906 0.579793 0.043560 -0.032872
C31   C     C_R   0.329207 0.080401 0.953945 -0.031465
C32   C     C_R   0.671654 0.080073 0.044042 -0.035535
H21   H     H_    0.826499 0.562091 0.882279 0.163334
H22   H     H_    0.197343 0.543081 0.073513 0.153208
H23   H     H_    0.304228 0.043962 0.922595 0.153892
H24   H     H_    0.697053 0.043812 0.074342 0.153266
N29   N     N_R   0.903470 0.570760 0.936440 -0.051566
N30   N     N_R   0.096530 0.570760 0.063560 -0.047878
N31   N     N_R   0.403470 0.070760 0.936440 -0.047835
N32   N     N_R   0.596530 0.070760 0.063560 -0.048311
C33   C     C_R   0.810627 0.660840 0.984938 0.089877
C34   C     C_R   0.210922 0.645344 0.977264 0.090867
C35   C     C_R   0.291035 0.146578 0.019081 0.088675
C36   C     C_R   0.710530 0.145560 0.977903 0.089985
C37   C     C_R   0.891740 0.314978 0.301798 0.040406
C38   C     C_R   0.107924 0.314511 0.698139 0.039986
C39   C     C_R   0.389092 0.814860 0.302563 0.044814
C40   C     C_R   0.608313 0.815010 0.697280 0.045260
C41   C     C_R   0.846775 0.310738 0.932585 -0.052741
C42   C     C_R   0.154133 0.311661 0.065916 -0.049766
C43   C     C_R   0.347584 0.810543 0.931324 -0.051796
C44   C     C_R   0.658548 0.815258 0.058787 -0.045343
C45   C     C_R   0.811592 0.642268 0.325126 0.051642
C46   C     C_R   0.186234 0.643423 0.673769 0.057235
C47   C     C_R   0.313715 0.143790 0.326138 0.054839
C48   C     C_R   0.685808 0.144637 0.673766 0.055464
Ni1   Ni    Ni4+2 0.000000 0.630300 0.000000 0.250224
Ni2   Ni    Ni4+2 0.500000 0.130300 0.000000 0.251283
Ni3   Ni    Ni4+2 0.000000 0.369700 0.000000 0.277049
Ni4   Ni    Ni4+2 0.500000 0.869700 0.000000 0.277131
Ni5   Ni    Ni4+2 0.988090 0.497570 0.863760 0.264393
Ni6   Ni    Ni4+2 0.011910 0.497570 0.136240 0.271391
Ni7   Ni    Ni4+2 0.488090 0.997570 0.863760 0.269449
Ni8   Ni    Ni4+2 0.511910 0.997570 0.136240 0.271012
C49   C     C_R   0.700462 0.636929 0.527520 -0.023297
C50   C     C_R   0.291650 0.637778 0.471762 -0.038348
C51   C     C_R   0.202398 0.137207 0.528042 -0.026923
C52   C     C_R   0.796576 0.137982 0.471815 -0.027614
C53   C     C_R   0.732515 0.669391 0.425947 0.081157
C54   C     C_R   0.264535 0.669559 0.571979 0.078277
C55   C     C_R   0.234448 0.170270 0.426819 0.079181
C56   C     C_R   0.764908 0.171381 0.572981 0.077837
C57   C     C_R   0.191587 0.235364 0.426585 -0.120085
C58   C     C_R   0.808126 0.236785 0.573127 -0.116155
C59   C     C_R   0.690765 0.735503 0.425647 -0.117146
C60   C     C_R   0.310425 0.733081 0.570397 -0.117362
H25   H     H_    0.207659 0.259221 0.351393 0.138744
H26   H     H_    0.792240 0.260908 0.648302 0.139587
H27   H     H_    0.706958 0.759542 0.350503 0.139501
H28   H     H_    0.297219 0.755711 0.644815 0.138378
C61   C     C_R   0.136486 0.277953 0.522762 -0.088571
C62   C     C_R   0.863381 0.279220 0.476909 -0.087384
C63   C     C_R   0.636959 0.778931 0.521490 -0.088947
C64   C     C_R   0.364559 0.775804 0.474220 -0.094833
H29   H     H_    0.114005 0.333583 0.516845 0.169325
H30   H     H_    0.886227 0.335045 0.482718 0.166490
H31   H     H_    0.615659 0.835126 0.515124 0.167690
H32   H     H_    0.389763 0.830520 0.478881 0.164199
C65   C     C_R   0.123826 0.254852 0.619124 0.065834
C66   C     C_R   0.875702 0.255686 0.380685 0.064977
C67   C     C_R   0.623875 0.755545 0.618050 0.065130
C68   C     C_R   0.372892 0.754337 0.380016 0.074272
C69   C     C_R   0.643803 0.677657 0.623009 -0.020494
C70   C     C_R   0.348076 0.677874 0.375615 0.010363
C71   C     C_R   0.145078 0.177418 0.623759 -0.019794
C72   C     C_R   0.853896 0.178154 0.376087 -0.019988
C73   C     C_3   0.672022 0.637206 0.681793 -0.040282
C74   C     C_3   0.310824 0.643288 0.323414 -0.034837
C75   C     C_3   0.174857 0.138505 0.681691 -0.050812
C76   C     C_3   0.823454 0.139083 0.318476 -0.050536
C77   C     C_3   0.738434 0.595857 0.574466 0.366208
C78   C     C_3   0.245810 0.602432 0.431378 0.360459
C79   C     C_3   0.241247 0.097148 0.574476 0.370735
C80   C     C_3   0.757167 0.097612 0.425657 0.371810
H33   H     H_    0.701030 0.677242 0.707318 0.170007
H34   H     H_    0.281631 0.687718 0.303880 0.173736
H35   H     H_    0.203771 0.179745 0.705865 0.186678
H36   H     H_    0.794532 0.180217 0.294821 0.185937
C81   C     C_2   0.789226 0.181141 0.944106 -0.110389
C82   C     C_2   0.213491 0.182898 0.051060 -0.107417
C83   C     C_2   0.290254 0.680682 0.942128 -0.111318
C84   C     C_2   0.752873 0.709401 0.987548 -0.096812
H37   H     H_    0.823417 0.151249 0.967362 0.210020
H38   H     H_    0.179059 0.152702 0.027967 0.210017
H39   H     H_    0.325362 0.650378 0.963671 0.207821
H40   H     H_    0.756049 0.708941 0.915202 0.184524
C85   C     C_2   0.308934 0.753900 0.903115 -0.147054
C86   C     C_2   0.705617 0.759362 0.070080 -0.109474
C87   C     C_2   0.807840 0.254246 0.904914 -0.143119
C88   C     C_2   0.195289 0.256105 0.090432 -0.144290
H41   H     H_    0.280500 0.779033 0.868444 0.154240
H42   H     H_    0.707427 0.762646 0.138832 0.148159
H43   H     H_    0.779724 0.279310 0.869701 0.154549
H44   H     H_    0.223909 0.281657 0.125015 0.153706
I1    I     I_    0.570478 0.564319 0.809277 -0.082501
I2    I     I_    0.399147 0.565858 0.190120 -0.013144
I3    I     I_    0.075514 0.065436 0.811284 -0.082012
I4    I     I_    0.922107 0.066301 0.188070 -0.078835
N33   N     N_R   0.824878 0.622311 0.527833 0.214860
O1    O     O_R   0.844729 0.696327 0.508566 -0.362338
O2    O     O_R   0.881510 0.572850 0.509960 -0.305961
N34   N     N_R   0.159846 0.633620 0.486366 0.220276
O3    O     O_R   0.145622 0.708419 0.505089 -0.360970
O4    O     O_R   0.097305 0.587436 0.514692 -0.301135
N35   N     N_R   0.327671 0.124309 0.526850 0.220097
O5    O     O_R   0.346751 0.198490 0.508061 -0.351608
O6    O     O_R   0.385225 0.075250 0.507072 -0.298952
N36   N     N_R   0.670747 0.124363 0.473978 0.220153
O7    O     O_R   0.652044 0.198493 0.492965 -0.348963
O8    O     O_R   0.612753 0.074954 0.494394 -0.298931
N37   N     N_R   0.729576 0.510038 0.578752 0.238928
O9    O     O_R   0.749685 0.468504 0.630174 -0.324385
O10   O     O_R   0.700714 0.474584 0.532731 -0.380997
N38   N     N_R   0.249391 0.516270 0.424711 0.234565
O11   O     O_R   0.218577 0.478929 0.382397 -0.323474
O12   O     O_R   0.286521 0.476527 0.456229 -0.386776
N39   N     N_R   0.232964 0.011254 0.579322 0.238321
O13   O     O_R   0.254397 0.970414 0.629791 -0.320805
O14   O     O_R   0.203076 0.975059 0.535043 -0.384678
N40   N     N_R   0.765102 0.011754 0.420321 0.237883
O15   O     O_R   0.743114 0.970704 0.370073 -0.322534
O16   O     O_R   0.795398 0.975818 0.463728 -0.387138
I5    I     I_    0.885362 0.425320 0.751494 -0.324525
I6    I     I_    0.117573 0.428816 0.245526 -0.302617
I7    I     I_    0.384021 0.927891 0.753115 -0.305777
I8    I     I_    0.623562 0.927992 0.240635 -0.298615
N41   N     N_R   0.864642 0.231405 0.053126 0.199891
O17   O     O_R   0.928919 0.184445 0.005270 -0.379514
O18   O     O_R   0.791378 0.207945 0.139071 -0.399697
N42   N     N_R   0.136325 0.232026 0.944551 0.199541
O19   O     O_R   0.073093 0.183331 0.991881 -0.377367
O20   O     O_R   0.209905 0.210311 0.857861 -0.400639
N43   N     N_R   0.370984 0.729535 0.045008 0.199200
O21   O     O_R   0.441029 0.691166 0.999653 -0.392301
O22   O     O_R   0.300162 0.700543 0.129284 -0.413819
N44   N     N_R   0.599723 0.724559 0.997156 0.240260
O23   O     O_R   0.554262 0.683940 0.086551 -0.363615
O24   O     O_R   0.642869 0.687010 0.905085 -0.420103

loop_
_geom_bond_atom_site_label_1
_geom_bond_atom_site_label_2
_geom_bond_distance
_ccdc_geom_bond_type
N4    Ni2   1.862121 S    
C58   H26   1.081584 S    
N39   O14   1.302216 A    
C3    C35   1.374209 A    
C23   H15   1.073463 S    
C84   H40   1.081564 S    
C70   C74   1.508119 S    
C15   H11   1.069660 S    
C23   C47   1.389217 A    
C14   N14   1.319654 A    
C3    N3    1.319169 A    
N13   N21   1.373477 A    
C4    H4    1.072213 S    
C48   C56   1.458063 S    
C15   N15   1.325159 A    
C81   C87   1.338134 D    
N26   Ni5   1.813936 S    
C31   N31   1.344548 A    
C82   C88   1.339413 D    
N25   Ni6   1.807307 S    
N17   Ni3   1.862756 S    
N22   Ni1   1.866794 S    
C2    H2    1.072375 S    
N41   O17   1.297742 A    
N16   N24   1.366453 A    
C71   C75   1.502342 S    
C11   C43   1.385946 A    
N27   Ni8   1.807307 S    
C76   I4    2.156509 S    
N10   Ni6   1.871317 S    
C11   I7    2.122585 S    
C50   C70   1.380517 A    
N9    Ni5   1.864158 S    
C8    H8    1.067390 S    
N30   Ni6   1.829540 S    
N14   Ni5   1.887843 S    
C68   C70   1.409434 A    
C7    H7    1.068173 S    
C20   N20   1.318876 A    
C9    I5    2.122027 S    
N35   O6    1.301656 A    
C7    C39   1.371805 A    
N44   O24   1.297380 A    
N31   Ni7   1.836552 S    
N1    Ni1   1.861765 S    
N6    Ni3   1.866432 S    
C26   N26   1.338691 A    
N5    N25   1.392003 A    
C19   C43   1.378231 A    
C60   C64   1.397345 A    
C44   C86   1.426752 S    
C19   N43   1.418279 S    
C79   N39   1.472072 S    
C34   C83   1.451018 S    
N37   O10   1.302274 A    
C6    H6    1.071570 S    
N12   N20   1.366566 A    
C35   C82   1.448216 S    
C37   C66   1.465610 S    
N1    N29   1.391892 A    
C52   C72   1.380336 A    
C21   N21   1.339967 A    
N34   O4    1.301658 A    
N19   Ni4   1.862756 S    
N33   O2    1.301683 A    
C23   N23   1.341089 A    
C17   N41   1.419245 S    
C24   N24   1.341780 A    
N40   O15   1.301697 A    
N8    Ni4   1.866432 S    
C83   H39   1.077000 S    
C84   C86   1.333373 D    
C4    N4    1.319070 A    
C75   H35   1.106205 S    
N14   N22   1.366453 A    
C31   C35   1.391361 A    
C46   C54   1.454681 S    
C72   C76   1.502339 S    
C26   C38   1.384466 A    
C10   I6    2.121593 S    
C59   C63   1.399384 A    
C30   N30   1.345358 A    
C7    N7    1.328637 A    
C18   C42   1.376639 A    
C29   N29   1.332292 A    
C8    N8    1.332875 A    
C74   C78   1.521747 S    
C27   C39   1.386315 A    
C62   H30   1.080783 S    
C75   I3    2.156315 S    
C40   C67   1.468781 S    
C56   C58   1.407353 A    
N29   Ni5   1.836552 S    
C20   N44   1.429084 S    
C55   C57   1.407824 A    
C9    N9    1.347506 A    
C20   C44   1.368765 A    
C51   C71   1.380600 A    
C8    C40   1.377101 A    
N4    N32   1.399052 A    
N15   N23   1.373477 A    
C32   H24   1.075139 S    
C12   I8    2.120517 S    
C49   C77   1.508318 S    
C12   N12   1.341978 A    
C1    N1    1.312865 A    
C24   C48   1.389179 A    
C80   N36   1.474295 S    
C25   N25   1.337824 A    
N3    N31   1.391892 A    
C21   H13   1.074258 S    
N44   O23   1.298995 A    
N8    N28   1.399162 A    
C87   H43   1.082623 S    
C22   N22   1.343446 A    
C41   C87   1.452182 S    
C11   N11   1.347006 A    
C13   H9    1.069428 S    
C52   C56   1.401171 A    
C5    C37   1.376324 A    
C28   H20   1.079661 S    
C14   C46   1.372605 A    
N38   O12   1.302486 A    
C32   C36   1.389579 A    
C15   C47   1.377720 A    
C75   C79   1.524599 S    
N35   O5    1.302451 A    
C57   H25   1.081474 S    
N7    N27   1.392003 A    
C30   H22   1.076330 S    
C63   H31   1.080724 S    
C59   H27   1.081130 S    
N43   O21   1.298007 A    
C74   H34   1.108233 S    
C16   H12   1.069190 S    
C64   H32   1.080993 S    
C29   C33   1.377340 A    
C85   H41   1.081471 S    
N3    Ni2   1.861765 S    
C77   N33   1.474294 S    
C17   N17   1.325501 A    
C39   C68   1.463997 S    
C80   N40   1.472081 S    
C28   C40   1.383208 A    
C28   N28   1.338454 A    
N9    N17   1.373591 A    
N23   Ni2   1.866761 S    
N24   Ni2   1.866794 S    
N42   O19   1.297898 A    
C50   C54   1.401071 A    
C10   C42   1.386318 A    
C49   C53   1.401160 A    
C1    H1    1.079932 S    
C9    C41   1.385103 A    
N5    Ni3   1.866468 S    
C73   I1    2.158787 S    
C10   N10   1.347316 A    
C51   C55   1.400728 A    
N13   Ni6   1.894803 S    
N18   Ni3   1.863613 S    
C22   H14   1.074192 S    
C13   C45   1.380831 A    
C16   N16   1.324419 A    
C27   N27   1.339950 A    
N15   Ni8   1.894803 S    
C50   C78   1.508798 S    
N36   O8    1.301669 A    
C2    N2    1.320145 A    
C54   C60   1.405505 A    
C81   H37   1.077168 S    
C60   H28   1.082072 S    
C52   C80   1.508568 S    
N21   Ni1   1.866761 S    
N34   O3    1.302476 A    
C33   C84   1.403926 S    
C78   N34   1.474838 S    
C21   C45   1.390139 A    
C18   N42   1.419092 S    
C73   H33   1.108635 S    
N2    N30   1.399052 A    
C1    C33   1.362562 A    
C61   H29   1.080729 S    
N12   Ni8   1.871317 S    
N43   O22   1.300493 A    
C14   H10   1.067015 S    
C77   N37   1.471889 S    
N33   O1    1.302455 A    
C22   C46   1.389430 A    
C47   C55   1.458921 S    
C76   C80   1.524511 S    
N11   N19   1.373591 A    
C19   N19   1.326927 A    
C79   N35   1.474305 S    
C69   C73   1.501890 S    
C64   C68   1.409085 A    
C6    C38   1.376204 A    
C18   N18   1.325425 A    
C3    H3    1.072782 S    
C5    H5    1.071660 S    
C16   C48   1.375985 A    
C13   N13   1.326989 A    
N38   O11   1.301677 A    
C6    N6    1.331828 A    
N40   O16   1.302243 A    
C53   C59   1.408666 A    
C57   C61   1.398315 A    
C45   C53   1.461616 S    
C32   N32   1.344349 A    
N42   O20   1.300430 A    
C17   C41   1.376668 A    
C5    N5    1.331861 A    
C31   H23   1.076291 S    
C67   C69   1.406222 A    
C12   C44   1.373129 A    
C26   H18   1.079639 S    
C30   C34   1.391700 A    
N28   Ni7   1.813936 S    
C25   H17   1.079794 S    
N7    Ni4   1.866468 S    
C74   I2    2.162238 S    
C25   C37   1.383380 A    
C86   H42   1.087022 S    
C49   C69   1.380735 A    
N11   Ni7   1.864158 S    
C27   H19   1.080113 S    
N10   N18   1.366566 A    
N37   O9    1.301750 A    
C83   C85   1.339133 D    
C63   C67   1.409745 A    
C82   H38   1.076130 S    
C78   N38   1.473497 S    
N39   O13   1.301718 A    
N32   Ni8   1.829540 S    
N16   Ni7   1.887843 S    
C24   H16   1.073845 S    
C88   H44   1.081395 S    
C61   C65   1.409370 A    
N20   Ni4   1.863613 S    
C2    C34   1.375501 A    
C29   H21   1.075253 S    
C73   C77   1.525600 S    
C51   C79   1.508059 S    
C38   C65   1.466773 S    
N6    N26   1.399162 A    
C36   C81   1.447889 S    
N2    Ni1   1.862121 S    
C66   C72   1.405899 A    
C76   H36   1.106762 S    
C43   C85   1.454995 S    
N36   O7    1.302451 A    
N41   O18   1.300589 A    
C58   C62   1.398020 A    
C65   C71   1.406456 A    
C42   C88   1.452717 S    
C4    C36   1.375102 A    
C62   C66   1.409448 A    
