data_mof_unit_57894.cif
_audit_creation_date              2012-12-10T18:46:21-0500
_audit_creation_method            fapswitch 2.2
_symmetry_space_group_name_H-M    P1
_symmetry_Int_Tables_number       1
_space_group_crystal_system       triclinic
_cell_length_a                    9.865264
_cell_length_b                    10.712492
_cell_length_c                    13.024933
_cell_angle_alpha                 90.751811
_cell_angle_beta                  72.010655
_cell_angle_gamma                 90.216693
_cell_volume                      1309.09110841

loop_
_atom_site_label
_atom_site_type_symbol
_atom_type_description
_atom_site_fract_x
_atom_site_fract_y
_atom_site_fract_z
_atom_type_partial_charge
C1    C     C_R   0.499792 0.739817 0.501016 0.862845
C2    C     C_R   0.448800 0.610330 0.975851 -0.003159
C3    C     C_R   0.488917 0.601412 0.862994 0.076369
C4    C     C_R   0.554729 0.579885 0.024663 0.094209
C5    C     C_R   0.699834 0.571945 0.960521 0.128568
C6    C     C_R   0.738540 0.605104 0.852567 -0.201382
C7    C     C_R   0.632736 0.622279 0.804907 -0.158159
C8    C     C_R   0.519035 0.543437 0.131656 -0.282788
C9    C     C_R   0.766854 0.497536 0.112694 0.314572
C10   C     C_R   0.383768 0.575306 0.812659 -0.171283
C11   C     C_R   0.591324 0.934211 0.550026 -0.212443
C12   C     C_R   0.424018 0.521122 0.701897 0.890196
C13   C     C_R   0.590616 0.062659 0.554056 0.002365
C14   C     C_R   0.496012 0.127140 0.511217 -0.072334
C15   C     C_R   0.398641 0.062967 0.471672 -0.181190
C16   C     C_R   0.399836 0.935375 0.468481 -0.171700
C17   C     C_R   0.497793 0.871816 0.505786 -0.022794
C18   C     C_R   0.949542 0.410170 0.444855 -0.033461
C19   C     C_R   0.094474 0.412540 0.441583 0.051632
C20   C     C_R   0.050987 0.591519 0.552947 -0.093759
C21   C     C_R   0.909087 0.593816 0.549521 -0.061635
C22   C     C_R   0.498310 0.260023 0.504354 0.889801
C23   C     C_R   0.577908 0.497561 0.295466 0.927691
C24   C     C_R   0.803271 0.528174 0.004038 -0.165194
C25   C     C_R   0.623718 0.510061 0.178152 -0.145169
C26   C     C_R   0.242122 0.607259 0.868583 -0.251003
C27   C     C_R   0.207700 0.657123 0.973491 0.319256
C28   C     C_R   0.307616 0.651605 0.030761 -0.068698
H1    H     H_    0.323369 0.110952 0.441090 0.177815
H2    H     H_    0.326148 0.886674 0.435143 0.172417
H3    H     H_    0.912074 0.339428 0.399972 0.160227
H4    H     H_    0.088410 0.665160 0.595014 0.136663
H5    H     H_    0.843067 0.672937 0.583883 0.111273
H6    H     H_    0.849482 0.611683 0.804101 0.143996
H7    H     H_    0.912552 0.516678 0.953123 0.174421
H8    H     H_    0.408442 0.536161 0.178942 0.190341
H9    H     H_    0.161028 0.602171 0.828476 0.173564
H10   H     H_    0.662552 0.653557 0.723217 0.156655
H11   H     H_    0.663389 0.882873 0.582327 0.144554
N1    N     N_R   0.142790 0.500030 0.500030 -0.101434
N2    N     N_R   0.857180 0.499940 0.500010 -0.081980
O1    O     O_R   0.385370 0.683250 0.500010 -0.631474
O2    O     O_R   0.614700 0.683220 0.500010 -0.630549
O3    O     O_R   0.328400 0.499990 0.653620 -0.611968
O4    O     O_R   0.557730 0.499960 0.653620 -0.616646
O5    O     O_R   0.385300 0.316780 0.499990 -0.619670
O6    O     O_R   0.614630 0.316750 0.499990 -0.612649
O7    O     O_R   0.442270 0.500040 0.346380 -0.620449
O8    O     O_R   0.671600 0.500010 0.346380 -0.561348
Zn1   Zn    Zn3+2 0.346870 0.500020 0.500000 0.965018
Zn2   Zn    Zn3+2 0.653130 0.499980 0.500000 0.990084
Br1   Br    Br    0.916283 0.432560 0.162880 -0.494070
C29   C     C_1   0.684498 0.124162 0.604962 0.194668
N3    N     N_1   0.759616 0.173228 0.645711 -0.184473
C30   C     C_1   0.192535 0.329222 0.367906 0.227117
N4    N     N_1   0.270878 0.263233 0.306861 -0.198626
C31   C     C_1   0.270470 0.707976 0.137456 0.258512
N5    N     N_1   0.240588 0.753185 0.222748 -0.174621
Br2   Br    Br    0.029529 0.743227 0.032170 -0.498720

loop_
_geom_bond_atom_site_label_1
_geom_bond_atom_site_label_2
_ccdc_geom_bond_type
C2    C4    A    
C30   N4    T    
C26   H9    S    
C6    C7    A    
C23   O7    A    
O6    Zn2   S    
C2    C28   A    
O5    Zn1   S    
C1    C17   S    
C4    C8    A    
C10   C26   A    
O7    Zn1   S    
C22   O6    A    
C26   C27   A    
C9    C25   A    
C12   O3    A    
C3    C10   A    
C27   Br2   S    
C29   N3    T    
C11   H11   S    
C8    C25   A    
C11   C13   A    
O2    Zn2   S    
C31   N5    T    
C9    Br1   S    
C10   C12   S    
O1    Zn1   S    
N1    Zn1   S    
C22   O5    A    
C7    H10   S    
N2    Zn2   S    
C15   H1    S    
C3    C7    A    
C13   C29   S    
C23   C25   S    
C8    H8    S    
C5    C6    A    
C20   N1    A    
C21   N2    A    
C23   O8    A    
C24   H7    S    
C21   H5    S    
C19   N1    A    
O4    Zn2   S    
C16   H2    S    
C15   C16   A    
C1    O1    A    
C4    C5    A    
C20   C21   A    
C28   C31   S    
O3    Zn1   S    
C14   C22   S    
C18   C19   A    
C20   H4    S    
C18   N2    A    
C19   C30   S    
C27   C28   A    
C12   O4    A    
C14   C15   A    
C5    C24   A    
C2    C3    A    
C18   H3    S    
C13   C14   A    
C1    O2    A    
C9    C24   A    
C11   C17   A    
C6    H6    S    
C16   C17   A    
O8    Zn2   S    
