data_mof_unit_30422.cif
_audit_creation_date              2013-03-05T16:10:40-0500
_audit_creation_method            fapswitch 2.2
_symmetry_space_group_name_H-M    P1
_symmetry_Int_Tables_number       1
_space_group_crystal_system       triclinic
_cell_length_a                    8.213696
_cell_length_b                    15.202667
_cell_length_c                    18.793902
_cell_angle_alpha                 102.914427
_cell_angle_beta                  90.899681
_cell_angle_gamma                 99.225525
_cell_volume                      2254.60452772

loop_
_atom_site_label
_atom_site_type_symbol
_atom_site_description
_atom_site_fract_x
_atom_site_fract_y
_atom_site_fract_z
_atom_type_partial_charge
P1    P     P_3+3 0.039430 0.410940 0.333230 0.465576
O1    O     O_2   0.871960 0.437280 0.322960 -0.354946
O2    O     O_3   0.121410 0.444460 0.412450 -0.403291
O3    O     O_3   0.661450 0.607570 0.372550 -0.379019
O4    O     O_2   0.776912 0.537471 0.244850 -0.391319
O5    O     O_3   0.987688 0.291823 0.303435 -0.594684
O6    O     O_3   0.708726 0.701957 0.259675 -0.534964
H1    H     H_    0.741632 0.796886 0.358133 0.159093
C1    C     C_3   0.616265 0.845611 0.276796 -0.959616
H2    H     H_    0.731331 0.874621 0.254105 0.293052
H3    H     H_    0.519527 0.818840 0.231822 0.247681
P2    P     P_3+3 0.676770 0.715000 0.563590 0.507223
P3    P     P_3+3 0.130822 0.773361 0.413616 0.437661
O7    O     O_2   0.852310 0.726980 0.542430 -0.353731
O8    O     O_3   0.084010 0.657370 0.410280 -0.392103
O9    O     O_2   0.000268 0.819630 0.459533 -0.383738
O10   O     O_3   0.732112 0.750491 0.657914 -0.520905
O11   O     O_3   0.093494 0.789489 0.325736 -0.512613
C2    C     C_3   0.140342 0.716931 0.274143 0.496747
H4    H     H_    0.057886 0.651590 0.274426 0.144483
H5    H     H_    0.270083 0.709992 0.285161 0.002906
C3    C     C_3   0.125517 0.735540 0.198311 -0.963838
H6    H     H_    0.164401 0.679355 0.157106 0.218294
H7    H     H_    0.995528 0.739971 0.184598 0.286685
C4    C     C_3   0.192745 0.747733 0.629747 0.457918
H8    H     H_    0.314142 0.750715 0.605979 -0.022015
H9    H     H_    0.102352 0.708618 0.586090 0.173520
C5    C     C_3   0.155055 0.844540 0.652612 -0.977792
H10   H     H_    0.248532 0.888273 0.693996 0.233089
H11   H     H_    0.154777 0.875338 0.604333 0.230249
H12   H     H_    0.033172 0.843064 0.677159 0.302991
Ba1   Ba    Ba6+2 0.853520 0.540910 0.466490 1.572741
C6    C     C_3   0.980639 0.244253 0.359270 0.286578
H13   H     H_    0.850571 0.231296 0.374172 0.104331
H14   H     H_    0.058910 0.280753 0.408871 0.134338
C7    C     C_3   0.036934 0.153143 0.326926 -0.361796
H15   H     H_    0.998633 0.130093 0.267809 0.204454
H16   H     H_    0.173228 0.161518 0.332083 0.187609
C8    C     C_3   0.597304 0.763812 0.701084 0.233974
H17   H     H_    0.623894 0.745632 0.753625 0.061635
H18   H     H_    0.485572 0.716375 0.677132 0.094335
C9    C     C_3   0.576188 0.864336 0.718691 -0.048746
H19   H     H_    0.481592 0.875082 0.760061 0.098509
H20   H     H_    0.532747 0.882755 0.668766 0.134937
P4    P     P_3+3 0.150290 0.589140 0.666780 0.497594
O12   O     O_2   0.317750 0.562750 0.677090 -0.371309
O13   O     O_3   0.068300 0.555620 0.587560 -0.385154
O14   O     O_3   0.528270 0.392500 0.627460 -0.312150
O15   O     O_3   0.193288 0.709538 0.691398 -0.591784
P5    P     P_3+3 0.068437 0.226191 0.588977 0.491093
O16   O     O_3   0.609290 0.386840 0.459690 -0.373280
O17   O     O_3   0.105700 0.342700 0.589730 -0.353303
O18   O     O_2   0.196011 0.181490 0.540090 -0.354542
O19   O     O_3   0.126110 0.216410 0.676382 -0.463811
Ba2   Ba    Ba6+2 0.336320 0.459170 0.533520 1.591592
P6    P     P_3+3 0.645317 0.594208 0.278195 0.445724
C10   C     C_3   0.647977 0.768789 0.312040 0.481080
H21   H     H_    0.530413 0.742365 0.334304 0.018032
H22   H     H_    0.573675 0.900517 0.318010 0.246608
O20   O     O_3   0.580430 0.613240 0.540320 -0.355331
C11   C     C_3   0.457902 0.305042 0.310145 0.389305
H23   H     H_    0.354835 0.334330 0.338930 0.092573
H24   H     H_    0.566147 0.360150 0.313623 0.132252
C12   C     C_3   0.401109 0.267008 0.230241 -0.935847
H25   H     H_    0.279402 0.221738 0.225694 0.247306
H26   H     H_    0.389345 0.323840 0.203337 0.243044
H27   H     H_    0.491647 0.226551 0.201818 0.287646
P7    P     P_3+3 0.520712 0.270403 0.434687 0.438480
O21   O     O_2   0.337390 0.273050 0.457610 -0.379267
O22   O     O_3   0.502597 0.234279 0.339326 -0.574366
H28   H     H_    0.205784 0.800993 0.196346 0.257824
C13   C     C_3   0.999440 0.237641 0.722942 0.404834
H29   H     H_    0.956933 0.301674 0.716901 0.034092
H30   H     H_    0.895025 0.179387 0.711189 0.028079
C14   C     C_3   0.063175 0.251548 0.801747 -0.861012
H31   H     H_    0.164441 0.311488 0.815751 0.272557
H32   H     H_    0.961651 0.264015 0.839026 0.202841
H33   H     H_    0.110369 0.189645 0.809494 0.254216
P8    P     P_3+3 0.543551 0.394442 0.721186 0.503709
C15   C     C_3   0.573257 0.226570 0.711049 0.399635
H34   H     H_    0.665447 0.238009 0.757326 0.024312
O23   O     O_2   0.419096 0.455330 0.755574 -0.369958
O24   O     O_3   0.457537 0.285069 0.730765 -0.465239
H35   H     H_    0.636181 0.237219 0.660954 0.040436
H36   H     H_    0.577539 0.080773 0.683397 0.214443
C16   C     C_3   0.485748 0.127616 0.695768 -0.876413
H37   H     H_    0.396253 0.113470 0.648024 0.275753
H38   H     H_    0.418849 0.114344 0.744202 0.255332
C17   C     C_R   0.002088 0.439857 0.042804 -0.021533
C18   C     C_R   0.900168 0.393896 0.087839 -0.069543
C19   C     C_R   0.740477 0.346797 0.059739 0.516405
C20   C     C_R   0.681604 0.352115 0.990917 -0.245840
C21   C     C_R   0.781721 0.397597 0.946277 0.038952
C22   C     C_R   0.943356 0.440649 0.971447 0.018951
C23   C     C_R   0.721777 0.399372 0.876517 -0.208175
C24   C     C_R   0.821565 0.442454 0.829774 -0.048093
C25   C     C_R   0.985380 0.486774 0.854456 0.014275
C26   C     C_R   0.044879 0.485609 0.925760 0.006613
C27   C     C_R   0.759875 0.446370 0.760336 0.036456
C28   C     C_R   0.861373 0.496876 0.719079 -0.109550
C29   C     C_R   0.027255 0.534653 0.737258 0.200461
C30   C     C_R   0.088327 0.533810 0.808889 -0.060445
C31   C     C_R   0.162622 0.484807 0.068856 0.024352
C32   C     C_R   0.219396 0.488419 0.141547 -0.002155
C33   C     C_R   0.112879 0.448550 0.189209 -0.037426
C34   C     C_R   0.957132 0.398766 0.160244 -0.118017
H39   H     H_    0.557758 0.317636 0.971332 0.163821
H40   H     H_    0.595833 0.367287 0.859476 0.165326
H41   H     H_    0.877456 0.365831 0.194836 0.180164
C35   C     C_R   0.245086 0.581622 0.838138 -0.121987
C36   C     C_R   0.306451 0.576583 0.907199 0.118286
C37   C     C_R   0.205747 0.529443 0.951585 -0.001712
C38   C     C_R   0.265334 0.527982 0.022569 0.009029
C39   C     C_R   0.468207 0.618235 0.932648 -0.177030
C40   C     C_R   0.528810 0.614350 0.001637 -0.179788
C41   C     C_R   0.427589 0.570725 0.047416 0.118810
C42   C     C_R   0.382283 0.532769 0.166484 -0.020972
C43   C     C_R   0.485897 0.570889 0.117972 -0.222282
C44   C     C_R   0.435413 0.539399 0.239734 0.202319
C45   C     C_R   0.325543 0.506173 0.287597 -0.545894
C46   C     C_R   0.165797 0.460338 0.264265 0.253585
H42   H     H_    0.322096 0.622694 0.807500 0.149213
H43   H     H_    0.548380 0.653601 0.898985 0.122142
H44   H     H_    0.654293 0.647053 0.019758 0.135034
H45   H     H_    0.611751 0.603072 0.134829 0.184164
H46   H     H_    0.367137 0.513574 0.343860 0.183655
C47   C     C_R   0.855322 0.174065 0.551981 0.134709
C48   C     C_R   0.785684 0.081412 0.547897 0.005448
C49   C     C_R   0.649927 0.892409 0.531734 -0.053370
C50   C     C_R   0.799241 0.931639 0.572198 -0.026173
C51   C     C_R   0.867145 0.023662 0.579284 -0.172176
C52   C     C_R   0.583154 0.797456 0.521082 0.187682
H47   H     H_    0.866035 0.891664 0.598642 0.182937
H48   H     H_    0.984454 0.048742 0.609672 0.164867
C53   C     C_R   0.431680 0.764001 0.481277 -0.504696
C54   C     C_R   0.615632 0.194122 0.482174 0.237628
C55   C     C_R   0.547017 0.101169 0.475874 -0.009611
C56   C     C_R   0.631195 0.044736 0.509241 0.057469
C57   C     C_R   0.397740 0.062543 0.435846 -0.080017
C58   C     C_R   0.329412 0.971778 0.430121 -0.161567
C59   C     C_R   0.409969 0.914444 0.461999 -0.034072
C60   C     C_R   0.563868 0.950363 0.500983 0.029038
C61   C     C_R   0.341586 0.821787 0.454657 0.169359
C62   C     C_R   0.767093 0.229261 0.520970 -0.470573
H49   H     H_    0.213973 0.947006 0.398726 0.215732
H50   H     H_    0.330867 0.101741 0.408354 0.179883
H51   H     H_    0.378843 0.692461 0.474200 0.177359
H52   H     H_    0.820849 0.299823 0.523741 0.173925
I1    I     I_    0.931224 0.044412 0.374332 -0.452773
O25   O     O_3   0.726358 0.921446 0.745113 -0.703553
H53   H     H_    0.747477 0.914633 0.795616 0.332472
O26   O     O_3   0.637802 0.294661 0.097341 -0.765464
H54   H     H_    0.706741 0.261936 0.122533 0.304686
I2    I     I_    0.744341 0.561232 0.656285 -0.133843

loop_
_geom_bond_atom_site_label_1
_geom_bond_atom_site_label_2
_geom_bond_distance
_ccdc_geom_bond_type
C11   O22   1.406011 S    
O14   Ba2   2.802654 S    
C57   H50   1.075849 S    
C21   C22   1.406412 A    
P2    Ba1   3.405708 S    
O4    P6    1.543894 D    
C23   C24   1.407180 A    
C62   H52   1.082059 S    
C51   H48   1.080521 S    
C39   C40   1.398476 A    
C18   C19   1.421309 A    
O8    Ba1   2.767467 S    
C8    H18   1.093008 S    
P4    O12   1.514506 D    
C4    C5    1.521204 S    
C55   C57   1.398869 A    
P5    O19   1.747068 S    
P3    O11   1.752467 S    
O14   P8    1.757292 S    
P8    C27   1.889769 S    
C5    H10   1.105839 S    
C2    H5    1.108382 S    
O11   C2    1.405249 S    
C42   C44   1.414494 A    
C19   O26   1.376087 S    
C45   H46   1.081954 S    
C7    I1    2.121900 S    
C22   C26   1.414883 A    
C40   C41   1.404304 A    
C24   C27   1.409602 A    
C6    C7    1.529605 S    
O1    Ba1   2.823325 S    
P1    O1    1.514120 D    
O10   C8    1.397135 S    
C17   C22   1.421298 A    
C11   H24   1.109742 S    
C48   C56   1.418437 A    
C35   C36   1.407410 A    
C37   C38   1.419852 A    
C15   C16   1.521814 S    
C6    H14   1.107147 S    
O2    Ba2   2.804129 S    
C36   C37   1.411548 A    
P7    O21   1.576881 D    
O12   Ba2   2.823853 S    
P5    O17   1.745286 S    
C43   H45   1.080091 S    
C1    H2    1.110271 S    
Ba1   Ba2   4.580384 S    
O16   Ba2   2.892685 S    
C25   C30   1.436064 A    
O17   Ba2   2.768189 S    
C15   H35   1.111894 S    
C47   C62   1.403314 A    
C38   C41   1.408396 A    
C53   C61   1.401043 A    
C21   C23   1.400657 A    
Ba2   O20   2.806259 S    
O3    P6    1.739658 S    
C11   H23   1.111379 S    
C9    H20   1.106817 S    
O6    P6    1.750047 S    
C15   O24   1.402298 S    
C32   C33   1.425640 A    
C25   C26   1.423999 A    
C8    C9    1.528332 S    
C4    O15   1.407522 S    
P4    O13   1.565000 S    
P5    O18   1.543844 D    
C26   C37   1.406584 A    
C16   H38   1.110626 S    
P1    O5    1.750998 S    
C29   C30   1.432732 A    
P7    C54   1.865440 S    
C2    C3    1.520467 S    
C58   C59   1.400847 A    
C18   C34   1.414196 A    
C13   H30   1.109831 S    
C56   C60   1.425386 A    
C8    H17   1.110742 S    
C16   H37   1.110884 S    
C15   H34   1.108844 S    
C49   C60   1.422804 A    
C4    H8    1.097437 S    
H36   C16   1.110545 S    
P1    Ba1   3.373998 S    
C1    H22   1.110057 S    
C12   H26   1.109951 S    
P2    O10   1.763179 S    
C11   C12   1.520010 S    
C14   H31   1.111024 S    
C12   H27   1.108570 S    
Ba1   O16   2.806831 S    
H1    C10   1.110386 S    
C1    H3    1.110359 S    
C20   H39   1.084449 S    
C27   C28   1.402484 A    
P4    O15   1.760149 S    
C57   C58   1.383485 A    
C24   C25   1.424638 A    
C6    H13   1.106878 S    
C33   C46   1.433030 A    
Ba2   O21   2.871508 S    
C20   C21   1.398864 A    
C14   H32   1.109869 S    
O3    Ba1   2.803164 S    
P4    C29   1.930264 S    
C39   H43   1.083785 S    
P2    O7    1.495452 D    
C53   H51   1.082167 S    
P3    O8    1.730228 S    
Ba1   O13   2.803487 S    
C3    H7    1.110451 S    
C30   C35   1.409762 A    
C50   H47   1.072690 S    
C9    H19   1.112563 S    
Ba1   O20   2.893520 S    
C47   C48   1.417422 A    
C48   C51   1.404971 A    
C3    H28   1.110411 S    
C19   C20   1.397496 A    
C45   C46   1.397015 A    
O13   Ba2   2.909881 S    
C32   C42   1.419177 A    
C55   C56   1.422818 A    
C28   I2    2.013962 S    
C7    H15   1.111679 S    
C40   H44   1.083715 S    
P2    C52   1.881031 S    
C31   C38   1.414235 A    
O25   H53   0.993087 S    
C5    H12   1.107910 S    
O7    Ba1   2.871196 S    
C13   H29   1.113350 S    
C58   H49   1.075926 S    
P8    O23   1.541503 D    
C44   C45   1.400401 A    
C4    H9    1.095111 S    
C33   C34   1.410378 A    
O5    C6    1.398292 S    
C12   H25   1.109373 S    
C49   C52   1.427659 A    
C2    H4    1.110055 S    
C59   C61   1.405625 A    
C50   C51   1.396500 A    
C49   C50   1.404128 A    
C5    H11   1.110269 S    
C54   C62   1.396056 A    
C42   C43   1.412009 A    
C35   H42   1.080303 S    
P8    O24   1.748565 S    
C13   C14   1.520689 S    
C10   H21   1.110110 S    
C52   C53   1.401449 A    
C7    H16   1.106442 S    
C28   C29   1.396336 A    
P6    C44   1.849398 S    
C41   C43   1.402108 A    
C36   C39   1.403518 A    
C1    C10   1.519360 S    
O16   P7    1.757302 S    
P3    C61   1.851863 S    
O2    Ba1   2.908979 S    
C9    O25   1.402314 S    
C14   H33   1.110650 S    
P1    C46   1.883784 S    
C23   H40   1.081021 S    
P2    O20   1.582689 S    
O19   C13   1.400847 S    
O26   H54   0.989703 S    
P4    Ba2   3.374549 S    
P7    O22   1.749636 S    
P3    O9    1.545626 D    
C31   C32   1.423051 A    
C3    H6    1.109441 S    
C54   C55   1.412910 A    
P5    C47   1.856411 S    
P1    O2    1.564973 S    
C17   C18   1.415794 A    
C59   C60   1.415494 A    
O6    C10   1.407423 S    
C17   C31   1.409474 A    
C34   H41   1.074909 S    
