data_mof_unit_17358.cif
_audit_creation_date              2012-10-26T19:07:27-0400
_audit_creation_method            fapswitch 2.2
_symmetry_space_group_name_H-M    P1
_symmetry_Int_Tables_number       1
_space_group_crystal_system       triclinic
_cell_length_a                    15.07759
_cell_length_b                    13.875875
_cell_length_c                    10.621632
_cell_angle_alpha                 89.429948
_cell_angle_beta                  87.652349
_cell_angle_gamma                 90.318192
_cell_volume                      2220.18756412

loop_
_atom_site_label
_atom_site_type_symbol
_atom_type_description
_atom_site_fract_x
_atom_site_fract_y
_atom_site_fract_z
_atom_type_partial_charge
C1    C     C_R   0.329345 0.499750 0.499465 0.606491
C2    C     C_R   0.961435 0.500559 0.263737 0.080554
C3    C     C_R   0.439119 0.793068 0.575523 0.141173
C4    C     C_R   0.556334 0.206925 0.418039 0.142092
C5    C     C_R   0.560699 0.795351 0.425092 0.131208
C6    C     C_R   0.442680 0.205102 0.580785 0.127767
C7    C     C_R   0.559898 0.898094 0.421057 -0.004427
C8    C     C_R   0.440797 0.102307 0.581170 -0.013499
C9    C     C_R   0.438893 0.895941 0.578388 -0.009872
C10   C     C_R   0.558039 0.104217 0.417948 -0.008667
C11   C     C_R   0.499326 0.948502 0.499628 0.033650
C12   C     C_R   0.670802 0.499890 0.500899 0.605073
C13   C     C_R   0.499464 0.051781 0.499726 0.034798
C14   C     C_R   0.618025 0.951875 0.339607 -0.112257
C15   C     C_R   0.381182 0.048520 0.660360 -0.118890
C16   C     C_R   0.380197 0.947841 0.658915 -0.115893
C17   C     C_R   0.617135 0.052414 0.338124 -0.116217
C18   C     C_R   0.500997 0.500368 0.259399 0.618033
C19   C     C_R   0.500730 0.499667 0.740456 0.616155
C20   C     C_3   0.500750 0.591816 0.039254 -0.125066
C21   C     C_3   0.503981 0.408531 0.960350 -0.056664
C22   C     C_3   0.574253 0.547614 0.952383 -0.139503
C23   C     C_R   0.953516 0.481405 0.492941 0.016407
C24   C     C_3   0.430361 0.452606 0.046883 -0.084003
C25   C     C_3   0.428533 0.543575 0.961871 -0.099484
C26   C     C_3   0.576079 0.456791 0.037730 -0.079606
C27   C     C_3   0.501964 0.499323 0.877325 0.049961
C28   C     C_3   0.502419 0.500879 0.122263 0.058134
C29   C     C_R   0.816869 0.514748 0.384772 0.042563
C30   C     C_R   0.182871 0.483091 0.611393 0.040793
C31   C     C_R   0.767755 0.497194 0.498995 -0.010511
C32   C     C_R   0.232780 0.498106 0.497750 0.000401
C33   C     C_R   0.810450 0.471019 0.609861 -0.008651
C34   C     C_R   0.047482 0.480803 0.493226 0.015356
C35   C     C_R   0.191207 0.504110 0.381465 -0.004402
C36   C     C_R   0.903722 0.464336 0.606992 -0.026975
C37   C     C_R   0.097802 0.497896 0.379778 -0.025658
C38   C     C_2   0.771850 0.558674 0.276300 0.607082
C39   C     C_2   0.224126 0.501386 0.734125 0.598208
C40   C     C_2   0.758367 0.457024 0.731106 0.199054
C41   C     C_2   0.245304 0.518576 0.262230 0.208769
C42   C     C_2   0.080322 0.372114 0.816677 0.603779
C43   C     C_2   0.923456 0.484820 0.138686 0.627767
C44   C     C_2   0.373013 0.739438 0.655387 0.286994
C45   C     C_R   0.909866 0.499141 0.379032 -0.009061
C46   C     C_2   0.614432 0.260351 0.326325 0.289376
C47   C     C_2   0.630829 0.744541 0.352696 0.275094
C48   C     C_2   0.380594 0.256682 0.666613 0.307299
C49   C     C_R   0.090833 0.463958 0.607325 -0.005860
C50   C     C_R   0.948009 0.433598 0.714043 -0.103818
C51   C     C_R   0.053624 0.505674 0.266372 -0.105938
C52   C     C_R   0.040263 0.428150 0.713403 0.088886
Cu1   Cu    Cu3+1 0.500000 0.597420 0.500000 1.036024
Cu2   Cu    Cu3+1 0.500000 0.402580 0.500000 1.050574
H1    H     H_    0.368698 0.580521 0.928832 0.146377
H2    H     H_    0.334155 0.083552 0.724246 0.153883
H3    H     H_    0.333097 0.911337 0.722732 0.155641
H4    H     H_    0.663987 0.088902 0.273894 0.155650
H5    H     H_    0.773312 0.661917 0.141108 0.338104
H6    H     H_    0.212151 0.564093 0.904756 0.335108
H7    H     H_    0.779138 0.492867 0.815445 0.106836
H8    H     H_    0.233470 0.474223 0.181071 0.092523
H9    H     H_    0.173580 0.276991 0.867210 0.355896
H10   H     H_    0.838660 0.408995 0.035270 0.340033
H11   H     H_    0.392604 0.701413 0.739035 0.107913
H12   H     H_    0.636682 0.420148 0.068898 0.210966
H13   H     H_    0.674429 0.295227 0.355649 0.138655
H14   H     H_    0.615097 0.698024 0.275689 0.132035
H15   H     H_    0.319861 0.286270 0.631939 0.154946
H16   H     H_    0.499458 0.666993 0.074073 0.135659
H17   H     H_    0.506955 0.333101 0.927099 0.210856
H18   H     H_    0.633170 0.586485 0.910883 0.131740
H19   H     H_    0.371943 0.412548 0.087524 0.140042
H20   H     H_    0.910923 0.408040 0.797281 0.146810
H21   H     H_    0.090434 0.512225 0.177143 0.154274
H22   H     H_    0.664517 0.917000 0.274822 0.156690
N1    N     N_R   0.500000 0.743810 0.500000 -0.281324
N2    N     N_R   0.500000 0.256190 0.500000 -0.278135
O1    O     O_R   0.370260 0.582280 0.500030 -0.435762
O2    O     O_R   0.809256 0.639533 0.214426 -0.633709
O3    O     O_2   0.295100 0.464930 0.758150 -0.528089
O4    O     O_R   0.179957 0.559489 0.823133 -0.647649
O5    O     O_2   0.694436 0.402711 0.738853 -0.493503
O6    O     O_2   0.301709 0.581941 0.252857 -0.485676
O7    O     O_2   0.048517 0.375983 0.924247 -0.484115
O8    O     O_R   0.152335 0.311565 0.789597 -0.695840
O9    O     O_2   0.949733 0.533074 0.047466 -0.464322
O10   O     O_R   0.859415 0.412832 0.124687 -0.675458
O11   O     O_2   0.294655 0.741255 0.630680 -0.472335
O12   O     O_R   0.629740 0.417720 0.499970 -0.494133
O13   O     O_2   0.597895 0.260575 0.214788 -0.519294
O14   O     O_2   0.708298 0.756768 0.378061 -0.476090
O15   O     O_2   0.393745 0.259873 0.779034 -0.506650
O16   O     O_R   0.629740 0.582280 0.499970 -0.488529
O17   O     O_R   0.370260 0.417720 0.500030 -0.542670
O18   O     O_R   0.499980 0.582260 0.316850 -0.509753
O19   O     O_R   0.500020 0.417740 0.683150 -0.436384
O20   O     O_R   0.500020 0.582260 0.683150 -0.553356
O21   O     O_R   0.499980 0.417740 0.316850 -0.485744
O22   O     O_2   0.702937 0.523878 0.240389 -0.566709

loop_
_geom_bond_atom_site_label_1
_geom_bond_atom_site_label_2
_ccdc_geom_bond_type
C21   C26   S    
C8    C13   A    
C23   C45   A    
C34   C37   A    
C18   O18   A    
C47   O14   D    
C14   C17   A    
C48   H15   S    
C12   O16   A    
C19   O19   A    
C4    C46   S    
Cu1   Cu2   S    
C7    C11   A    
C5    C47   S    
C6    C48   S    
C21   H17   S    
C43   O10   S    
C12   O12   A    
Cu1   O1    S    
C9    C16   A    
C51   H21   S    
Cu2   O12   S    
C50   H20   S    
C37   C51   A    
C24   H19   S    
C6    N2    A    
C20   C25   S    
C10   C17   A    
C15   C16   A    
C33   C36   A    
H6    O4    S    
C7    C14   A    
C29   C38   S    
C50   C52   A    
C31   C33   A    
Cu2   O19   S    
C42   O8    S    
C19   C27   S    
C17   H4    S    
C49   C52   A    
C21   C27   S    
Cu1   O18   S    
C40   O5    D    
C20   H16   S    
C44   H11   S    
C41   H8    S    
C22   H18   S    
C19   O20   A    
C2    C45   A    
C3    C44   S    
C33   C40   S    
C48   O15   D    
C26   H12   S    
C32   C35   A    
C24   C28   S    
C18   C28   S    
C24   C25   S    
C39   O3    D    
C38   O22   D    
C5    C7    A    
C6    C8    A    
C46   O13   D    
C20   C28   S    
C41   O6    D    
C1    C32   S    
C40   H7    S    
C29   C45   A    
C14   H22   S    
Cu1   N1    S    
C4    N2    A    
C3    C9    A    
C2    C43   S    
C1    O17   A    
C23   C34   A    
C42   O7    D    
C9    C11   A    
Cu2   O17   S    
C30   C49   A    
C20   C22   S    
C8    C15   A    
C22   C27   S    
C12   C31   S    
C1    O1    A    
Cu2   O21   S    
C18   O21   A    
C4    C10   A    
C3    N1    A    
C47   H14   S    
C36   C50   A    
C34   C49   A    
C35   C37   A    
Cu1   O16   S    
C25   H1    S    
C39   O4    S    
C10   C13   A    
H5    O2    S    
Cu1   O20   S    
C25   C27   S    
C26   C28   S    
C43   O9    D    
C15   H2    S    
C46   H13   S    
H9    O8    S    
C30   C32   A    
C11   C13   A    
C38   O2    S    
C30   C39   S    
C16   H3    S    
C35   C41   S    
C2    C51   A    
C29   C31   A    
C23   C36   A    
C22   C26   S    
C21   C24   S    
C5    N1    A    
H10   O10   S    
C44   O11   D    
C42   C52   S    
Cu2   N2    S    
