data_mof_unit_33946.cif
_audit_creation_date              2012-12-11T15:21:14-0500
_audit_creation_method            fapswitch 2.2
_symmetry_space_group_name_H-M    P1
_symmetry_Int_Tables_number       1
_space_group_crystal_system       triclinic
_cell_length_a                    18.443874
_cell_length_b                    18.399184
_cell_length_c                    50.930162
_cell_angle_alpha                 89.956134
_cell_angle_beta                  89.613702
_cell_angle_gamma                 120.174602
_cell_volume                      14940.8298709

loop_
_atom_site_label
_atom_site_type_symbol
_atom_type_description
_atom_site_fract_x
_atom_site_fract_y
_atom_site_fract_z
_atom_type_partial_charge
C1    C     C_R   0.408652 0.583970 0.287666 0.546552
C2    C     C_R   0.409479 0.584189 0.212583 0.574568
C3    C     C_R   0.150372 0.583449 0.371400 0.236860
C4    C     C_R   0.071039 0.540546 0.136730 0.240220
C5    C     C_R   0.640418 0.506385 0.671144 -0.021203
C6    C     C_R   0.607394 0.517673 0.822848 -0.017421
C7    C     C_R   0.491759 0.402568 0.675609 -0.171494
C8    C     C_R   0.531383 0.367488 0.832629 -0.177715
C9    C     C_R   0.477993 0.420170 0.650029 -0.117371
C10   C     C_R   0.530445 0.383806 0.859114 -0.141321
C11   C     C_R   0.545369 0.475878 0.634045 0.237443
C12   C     C_R   0.566190 0.466413 0.868105 0.238656
C13   C     C_R   0.576550 0.611435 0.485618 -0.035665
C14   C     C_R   0.630293 0.585135 0.017993 -0.033978
C15   C     C_R   0.554335 0.540538 0.469224 -0.008106
C16   C     C_R   0.566994 0.517781 0.033064 -0.011749
C17   C     C_R   0.531634 0.460931 0.480402 0.033700
C18   C     C_R   0.508637 0.442038 0.020625 0.036886
C19   C     C_R   0.589474 0.687975 0.473692 -0.001695
C20   C     C_R   0.678023 0.665426 0.030245 -0.010144
C21   C     C_R   0.533519 0.408461 0.436559 -0.102314
C22   C     C_R   0.458442 0.376550 0.063343 -0.098539
C23   C     C_R   0.459443 0.370299 0.518943 -0.141900
C24   C     C_R   0.425535 0.391575 0.980099 -0.149128
C25   C     C_R   0.138140 0.588816 0.454634 -0.046334
C26   C     C_R   0.002950 0.521910 0.057197 -0.036575
C27   C     C_R   0.452625 0.359496 0.546059 -0.102391
C28   C     C_R   0.422181 0.391976 0.952808 -0.111478
C29   C     C_R   0.532274 0.398361 0.463870 -0.016786
C30   C     C_R   0.463463 0.368214 0.036157 -0.015701
C31   C     C_R   0.590623 0.174768 0.712452 0.536035
C32   C     C_R   0.589956 0.174055 0.787149 0.528479
C33   C     C_R   0.825826 0.416493 0.712454 0.533137
C34   C     C_R   0.824780 0.415739 0.787637 0.535934
C35   C     C_R   0.585040 0.409423 0.712039 0.539054
C36   C     C_R   0.584103 0.408623 0.787682 0.534329
C37   C     C_R   0.160106 0.534544 0.442039 0.037678
C38   C     C_R   0.999811 0.452562 0.070346 0.029900
C39   C     C_R   0.185096 0.487731 0.457242 -0.124286
C40   C     C_R   0.983804 0.381339 0.056110 -0.118825
C41   C     C_R   0.128223 0.647194 0.439622 0.014737
C42   C     C_R   0.022595 0.594518 0.071428 0.015402
C43   C     C_R   0.160938 0.578687 0.316344 0.024245
C44   C     C_R   0.138052 0.565514 0.186990 0.039918
C45   C     C_R   0.882481 0.437636 0.689210 0.010132
C46   C     C_R   0.869707 0.429817 0.812923 0.008132
C47   C     C_R   0.113690 0.510440 0.523808 0.020366
C48   C     C_R   0.940495 0.434118 0.989804 0.020085
C49   C     C_R   0.083309 0.626934 0.522077 0.012475
C50   C     C_R   0.999193 0.587896 0.987480 0.009878
C51   C     C_R   0.090329 0.564444 0.536536 0.022245
C52   C     C_R   0.967874 0.508459 0.974931 0.019312
C53   C     C_R   0.177836 0.592665 0.288093 0.530646
C54   C     C_R   0.174601 0.590705 0.212881 0.537732
C55   C     C_R   0.105722 0.439983 0.538321 -0.017772
C56   C     C_R   0.897205 0.355009 0.976792 -0.020252
C57   C     C_R   0.103053 0.441804 0.565759 -0.093244
C58   C     C_R   0.909777 0.352701 0.949836 -0.100626
C59   C     C_R   0.079749 0.494235 0.578523 0.023026
C60   C     C_R   0.944653 0.426559 0.934914 0.019136
C61   C     C_R   0.068328 0.552116 0.563672 -0.030349
C62   C     C_R   0.966299 0.503048 0.947107 -0.034316
C63   C     C_R   0.032481 0.595619 0.575721 0.039893
C64   C     C_R   0.989189 0.574291 0.931465 0.031829
C65   C     C_R   0.004913 0.577615 0.602019 0.428488
C66   C     C_R   0.978217 0.565076 0.903993 0.427855
C67   C     C_R   0.057930 0.482665 0.605344 0.421947
C68   C     C_R   0.952031 0.424287 0.907656 0.412370
C69   C     C_R   0.922511 0.406508 0.646813 -0.055624
C70   C     C_R   0.864718 0.390537 0.858453 -0.052031
C71   C     C_R   0.877168 0.377730 0.670512 -0.034605
C72   C     C_R   0.842008 0.366039 0.832422 -0.042881
C73   C     C_R   0.940061 0.523511 0.684490 -0.159909
C74   C     C_R   0.933855 0.511589 0.819266 -0.151956
C75   C     C_R   0.414628 0.823304 0.288012 0.528354
C76   C     C_R   0.415712 0.824560 0.212114 0.533418
C77   C     C_R   0.987303 0.550391 0.661415 -0.059528
C78   C     C_R   0.967332 0.530700 0.844606 -0.064362
C79   C     C_R   0.976602 0.492513 0.641917 0.221257
C80   C     C_R   0.930469 0.471009 0.864937 0.208977
C81   C     C_R   0.138345 0.525803 0.496961 0.008401
C82   C     C_R   0.962577 0.441963 0.016474 0.013700
C83   C     C_R   0.127584 0.585333 0.482330 0.012938
C84   C     C_R   0.988009 0.518777 0.029768 0.019496
C85   C     C_R   0.108310 0.642131 0.495109 0.016788
C86   C     C_R   0.000560 0.592088 0.015808 0.022646
C87   C     C_R   0.178877 0.487565 0.484403 -0.163743
C88   C     C_R   0.967353 0.376992 0.029571 -0.154503
C89   C     C_R   0.121001 0.710264 0.452599 -0.100238
C90   C     C_R   0.025890 0.662936 0.058579 -0.104300
C91   C     C_R   0.042199 0.665067 0.534364 -0.154734
C92   C     C_R   0.032083 0.659290 0.970819 -0.149576
C93   C     C_R   0.018756 0.651115 0.560669 -0.112127
C94   C     C_R   0.022656 0.652478 0.943638 -0.131491
C95   C     C_R   0.117420 0.712405 0.480126 -0.014362
C96   C     C_R   0.014569 0.663996 0.031357 -0.011525
C97   C     C_R   0.160027 0.530955 0.414552 0.429421
C98   C     C_R   0.017361 0.457708 0.097264 0.418994
C99   C     C_R   0.426692 0.973550 0.406641 0.414170
C100  C     C_R   0.451441 0.002035 0.095442 0.412497
C101  C     C_R   0.369217 0.825533 0.413867 0.420817
C102  C     C_R   0.498813 0.902414 0.091375 0.399205
C103  C     C_R   0.473448 0.866570 0.359639 0.019381
C104  C     C_R   0.531807 0.949635 0.151422 0.046702
C105  C     C_R   0.476631 0.853092 0.332608 -0.150846
C106  C     C_R   0.513563 0.916563 0.177009 -0.136197
C107  C     C_R   0.365060 0.884381 0.324512 -0.026889
C108  C     C_R   0.364414 0.865880 0.170811 -0.049468
C109  C     C_R   0.360534 0.895064 0.351688 -0.047305
C110  C     C_R   0.383345 0.895531 0.144815 -0.063192
C111  C     C_R   0.411956 0.884000 0.369374 0.237642
C112  C     C_R   0.464923 0.933931 0.134729 0.228608
C113  C     C_R   0.388265 0.916634 0.451032 -0.041388
C114  C     C_R   0.468254 0.956963 0.052086 -0.034075
C115  C     C_R   0.418644 0.985487 0.433564 0.030226
C116  C     C_R   0.444548 0.004226 0.068009 0.028543
C117  C     C_R   0.443341 0.065462 0.443464 -0.133081
C118  C     C_R   0.413513 0.051760 0.056209 -0.136970
C119  C     C_R   0.132990 0.645433 0.411983 0.445245
C120  C     C_R   0.039610 0.597791 0.098438 0.413550
C121  C     C_R   0.363561 0.836087 0.441117 0.024527
C122  C     C_R   0.497409 0.907186 0.063847 0.029202
C123  C     C_R   0.421273 0.858417 0.314864 0.003253
C124  C     C_R   0.430570 0.871396 0.186738 -0.010318
C125  C     C_R   0.552790 0.123680 0.688511 0.007308
C126  C     C_R   0.557493 0.131299 0.812304 0.010516
C127  C     C_R   0.404885 0.022073 0.515618 0.035376
C128  C     C_R   0.414386 0.999209 0.985057 0.029288
C129  C     C_R   0.377024 0.878323 0.523689 -0.046585
C130  C     C_R   0.500067 0.931612 0.980804 -0.042233
C131  C     C_R   0.398257 0.959089 0.533184 -0.037097
C132  C     C_R   0.458620 0.970675 0.969188 -0.040823
C133  C     C_R   0.410867 0.095856 0.526332 0.320849
C134  C     C_R   0.361611 0.023602 0.972463 0.328409
C135  C     C_R   0.426332 0.113576 0.552882 -0.067125
C136  C     C_R   0.363582 0.032430 0.945313 -0.068958
C137  C     C_R   0.432428 0.057085 0.569875 -0.024594
C138  C     C_R   0.416341 0.015711 0.929751 -0.027766
C139  C     C_R   0.414908 0.978024 0.560356 -0.108945
C140  C     C_R   0.462244 0.982333 0.941531 -0.109828
C141  C     C_R   0.084836 0.576814 0.355651 -0.069904
C142  C     C_R   0.017802 0.501603 0.158363 -0.057815
C143  C     C_R   0.415722 0.918821 0.577823 0.040281
C144  C     C_R   0.512716 0.961902 0.925771 0.045907
C145  C     C_R   0.439097 0.942041 0.604302 0.443450
C146  C     C_R   0.522183 0.982487 0.898783 0.443751
C147  C     C_R   0.454817 0.077906 0.596274 0.419265
C148  C     C_R   0.424654 0.032326 0.902648 0.421045
C149  C     C_R   0.565599 0.061050 0.647824 -0.068121
C150  C     C_R   0.536926 0.142663 0.858728 -0.074257
C151  C     C_R   0.598168 0.098957 0.672105 -0.153822
C152  C     C_R   0.563153 0.179867 0.834147 -0.156616
C153  C     C_R   0.471971 0.104727 0.680773 -0.132168
C154  C     C_R   0.523052 0.044242 0.815070 -0.162148
C155  C     C_R   0.439435 0.066530 0.656667 -0.050806
C156  C     C_R   0.495533 0.006438 0.839807 -0.058110
C157  C     C_R   0.486870 0.046566 0.639677 0.233789
C158  C     C_R   0.503026 0.055778 0.861830 0.227001
C159  C     C_R   0.407359 0.009792 0.488174 0.030531
C160  C     C_R   0.424879 0.002173 0.012733 0.030682
C161  C     C_R   0.385235 0.929003 0.478548 0.007794
C162  C     C_R   0.462511 0.959246 0.024325 0.027311
C163  C     C_R   0.090864 0.576121 0.328197 -0.153277
C164  C     C_R   0.051362 0.514657 0.183617 -0.158321
C165  C     C_R   0.363711 0.861399 0.496271 0.000989
C166  C     C_R   0.494638 0.918687 0.008387 0.021174
C167  C     C_R   0.438145 0.077387 0.470169 -0.115792
C168  C     C_R   0.402916 0.049973 0.029165 -0.118547
C169  C     C_R   0.335045 0.768301 0.458674 -0.122985
C170  C     C_R   0.521759 0.861080 0.047868 -0.121611
C171  C     C_R   0.374333 0.818810 0.541824 -0.114374
C172  C     C_R   0.547683 0.908973 0.964504 -0.110168
C173  C     C_R   0.394152 0.838726 0.568222 0.391789
C174  C     C_R   0.554762 0.924555 0.937612 0.401427
C175  C     C_R   0.334839 0.780477 0.485687 -0.153320
C176  C     C_R   0.520980 0.867214 0.020670 -0.152198
C177  C     C_R   0.558084 0.627484 0.402880 0.447159
C178  C     C_R   0.594043 0.612634 0.099387 0.445714
C179  C     C_R   0.535899 0.488509 0.397921 0.406356
C180  C     C_R   0.491387 0.465667 0.102125 0.413145
C181  C     C_R   0.417425 0.500435 0.355513 0.045609
C182  C     C_R   0.423197 0.552196 0.140024 0.057085
C183  C     C_R   0.388003 0.507644 0.330515 0.348455
C184  C     C_R   0.391938 0.555729 0.164910 0.359055
C185  C     C_R   0.225548 0.584213 0.332120 -0.110529
C186  C     C_R   0.190817 0.602713 0.165247 -0.087429
C187  C     C_R   0.527075 0.620034 0.318308 -0.215370
C188  C     C_R   0.521643 0.582719 0.185089 -0.209927
C189  C     C_R   0.557674 0.611919 0.342379 -0.090630
C190  C     C_R   0.551175 0.573250 0.160679 -0.080268
C191  C     C_R   0.503894 0.554291 0.361302 0.183532
C192  C     C_R   0.502364 0.557414 0.138074 0.190025
C193  C     C_R   0.554678 0.548758 0.441576 -0.100097
C194  C     C_R   0.560377 0.525824 0.060422 -0.102176
C195  C     C_R   0.570810 0.624961 0.430107 0.036402
C196  C     C_R   0.610395 0.603797 0.072715 0.026181
C197  C     C_R   0.594585 0.695302 0.446129 0.388645
C198  C     C_R   0.670901 0.672017 0.057664 0.386375
C199  C     C_R   0.540784 0.481176 0.425286 0.014596
C200  C     C_R   0.502817 0.455517 0.075384 0.015180
C201  C     C_R   0.442123 0.569055 0.312237 0.011315
C202  C     C_R   0.441212 0.572253 0.187367 0.026962
C203  C     C_R   0.572832 0.442548 0.686464 -0.040830
C204  C     C_R   0.572640 0.433143 0.814346 -0.027377
C205  C     C_R   0.586157 0.601774 0.513018 0.004736
C206  C     C_R   0.639742 0.567917 0.991223 0.007233
C207  C     C_R   0.220942 0.587779 0.359280 -0.050430
C208  C     C_R   0.157524 0.590371 0.140259 -0.066204
C209  C     C_R   0.513071 0.449533 0.507689 0.001329
C210  C     C_R   0.501131 0.443456 0.993101 0.019227
C211  C     C_R   0.546646 0.520574 0.524173 0.029823
C212  C     C_R   0.570637 0.502722 0.978323 0.031227
C213  C     C_R   0.638157 0.669224 0.529354 -0.140883
C214  C     C_R   0.716192 0.608322 0.977523 -0.144546
C215  C     C_R   0.634617 0.661428 0.556808 0.004426
C216  C     C_R   0.721667 0.596602 0.950406 -0.003199
C217  C     C_R   0.581621 0.580969 0.568517 0.041368
C218  C     C_R   0.646564 0.543092 0.936202 0.028842
C219  C     C_R   0.541592 0.510163 0.551888 -0.046177
C220  C     C_R   0.570988 0.496167 0.950682 -0.048681
C221  C     C_R   0.496174 0.428560 0.562778 0.023775
C222  C     C_R   0.495208 0.441910 0.937857 0.024198
C223  C     C_R   0.495870 0.417674 0.590094 0.424812
C224  C     C_R   0.493823 0.438923 0.910404 0.425248
C225  C     C_R   0.569265 0.567225 0.596016 0.485579
C226  C     C_R   0.643388 0.531272 0.908524 0.457618
C227  C     C_R   0.626079 0.518670 0.644796 0.426691
C228  C     C_R   0.602075 0.533192 0.849826 0.448352
Cr1   Cr    Cr6+3 0.456550 0.732290 0.250000 1.013858
Cr2   Cr    Cr6+3 0.275740 0.543450 0.250000 1.097044
Cr3   Cr    Cr6+3 0.267710 0.724260 0.250000 0.983355
Cr4   Cr    Cr6+3 0.543450 0.275740 0.750000 1.027813
Cr5   Cr    Cr6+3 0.724260 0.267710 0.750000 0.986731
Cr6   Cr    Cr6+3 0.732290 0.456550 0.750000 0.985104
H1    H     H_    0.282141 0.590785 0.323321 0.155466
H2    H     H_    0.257658 0.643871 0.167740 0.151245
H3    H     H_    0.029821 0.573346 0.364640 0.143069
H4    H     H_    0.950767 0.463001 0.155642 0.130113
H5    H     H_    0.124785 0.761995 0.441302 0.158166
H6    H     H_    0.038637 0.717446 0.070165 0.162092
H7    H     H_    0.023110 0.702651 0.523586 0.126599
H8    H     H_    0.068885 0.721766 0.977772 0.133016
H9    H     H_    0.947684 0.570894 0.698579 0.132655
H10   H     H_    0.958347 0.560806 0.804491 0.131342
H11   H     H_    0.987608 0.682511 0.568996 0.165557
H12   H     H_    0.045800 0.709404 0.932044 0.157809
H13   H     H_    0.030253 0.616884 0.658354 0.155571
H14   H     H_    0.020092 0.592654 0.848236 0.172534
H15   H     H_    0.316041 0.911799 0.359449 0.137694
H16   H     H_    0.334533 0.886630 0.131390 0.132570
H17   H     H_    0.468774 0.119923 0.430618 0.158497
H18   H     H_    0.396344 0.090071 0.067901 0.161250
H19   H     H_    0.273160 0.595188 0.370918 0.167128
H20   H     H_    0.198678 0.620749 0.123613 0.113354
H21   H     H_    0.660122 0.112037 0.677446 0.118170
H22   H     H_    0.591263 0.247336 0.832323 0.098962
H23   H     H_    0.603238 0.046485 0.634838 0.121971
H24   H     H_    0.544543 0.181792 0.875550 0.124654
H25   H     H_    0.433504 0.172170 0.560116 0.185264
H26   H     H_    0.323985 0.053541 0.936518 0.188166
H27   H     H_    0.464279 0.141464 0.476415 0.177892
H28   H     H_    0.381515 0.090419 0.021498 0.193951
H29   H     H_    0.520590 0.834539 0.325625 0.136980
H30   H     H_    0.564951 0.924456 0.189193 0.135968
H31   H     H_    0.315006 0.705558 0.451613 0.160198
H32   H     H_    0.542118 0.820323 0.056346 0.163969
H33   H     H_    0.361109 0.757126 0.535900 0.137120
H34   H     H_    0.583705 0.882516 0.972245 0.132150
H35   H     H_    0.434688 0.121984 0.692952 0.133560
H36   H     H_    0.518330 0.006118 0.798265 0.117382
H37   H     H_    0.210416 0.451849 0.448230 0.143352
H38   H     H_    0.985155 0.328971 0.065356 0.163906
H39   H     H_    0.378597 0.055723 0.650663 0.136552
H40   H     H_    0.469433 0.939262 0.841909 0.152581
H41   H     H_    0.311943 0.725169 0.497872 0.118208
H42   H     H_    0.538431 0.828556 0.009572 0.105992
H43   H     H_    0.569840 0.667352 0.304540 0.136205
H44   H     H_    0.560712 0.596509 0.202256 0.123136
H45   H     H_    0.623271 0.653256 0.346842 0.153896
H46   H     H_    0.612239 0.578512 0.159280 0.154031
H47   H     H_    0.683029 0.729117 0.520722 0.105497
H48   H     H_    0.772646 0.647924 0.988268 0.104386
H49   H     H_    0.529861 0.359370 0.423919 0.157712
H50   H     H_    0.421173 0.320837 0.075228 0.162023
H51   H     H_    0.419036 0.317020 0.506964 0.160505
H52   H     H_    0.367818 0.353924 0.990957 0.122845
H53   H     H_    0.438465 0.355552 0.686737 0.154984
H54   H     H_    0.503048 0.302505 0.826603 0.159009
H55   H     H_    0.412586 0.296851 0.553901 0.175892
H56   H     H_    0.362644 0.351411 0.943454 0.173403
H57   H     H_    0.414905 0.387778 0.642335 0.164219
H58   H     H_    0.502871 0.331532 0.872816 0.157399
H59   H     H_    0.915061 0.361574 0.631820 0.133454
H60   H     H_    0.831686 0.345933 0.874035 0.138151
H61   H     H_    0.106838 0.393600 0.576864 0.159009
H62   H     H_    0.884839 0.292430 0.940161 0.154745
H63   H     H_    0.204369 0.455381 0.495382 0.117675
H64   H     H_    0.960651 0.322695 0.019236 0.120922
H65   H     H_    0.041749 0.574615 0.316268 0.119047
H66   H     H_    0.010043 0.487086 0.200426 0.107607
N1    N     N_R   0.145939 0.585675 0.399738 -0.364236
N2    N     N_R   0.038278 0.530340 0.110740 -0.384562
N3    N     N_R   0.016669 0.520543 0.616446 -0.379777
N4    N     N_R   0.957540 0.489026 0.892189 -0.372254
N5    N     N_R   0.402945 0.894431 0.397148 -0.387839
N6    N     N_R   0.476274 0.949862 0.106812 -0.393277
N7    N     N_R   0.459373 0.021204 0.613016 -0.401764
N8    N     N_R   0.480273 0.019597 0.887815 -0.395796
N9    N     N_R   0.535414 0.557482 0.387514 -0.393513
N10   N     N_R   0.532142 0.544744 0.113167 -0.401344
N11   N     N_R   0.533884 0.486783 0.606413 -0.362001
N12   N     N_R   0.567548 0.481433 0.896072 -0.358227
O1    O     O_R   0.475290 0.813700 0.278840 -0.512799
O2    O     O_R   0.475290 0.813700 0.221160 -0.502810
O3    O     O_2   0.126659 0.697564 0.398844 -0.524126
O4    O     O_2   0.056925 0.661039 0.111008 -0.540713
O5    O     O_2   0.968162 0.610831 0.611822 -0.514868
O6    O     O_2   0.985364 0.623930 0.890887 -0.545690
O7    O     O_2   0.455605 0.033715 0.391612 -0.525583
O8    O     O_2   0.433905 0.045310 0.109326 -0.520096
O9    O     O_2   0.471896 0.147325 0.604314 -0.489627
O10   O     O_2   0.383718 0.059808 0.892236 -0.511189
O11   O     O_2   0.345301 0.755390 0.405023 -0.524601
O12   O     O_2   0.518867 0.855116 0.101676 -0.533820
O13   O     O_2   0.441491 0.892137 0.619604 -0.427121
O14   O     O_2   0.569586 0.969893 0.885187 -0.445597
O15   O     O_2   0.563809 0.690661 0.392995 -0.488040
O16   O     O_2   0.632523 0.680980 0.110112 -0.423192
O17   O     O_2   0.589117 0.626207 0.610858 -0.497341
O18   O     O_2   0.707691 0.563836 0.895414 -0.499827
O19   O     O_2   0.529837 0.432889 0.383392 -0.521834
O20   O     O_2   0.442545 0.404974 0.115406 -0.503919
O21   O     O_2   0.463432 0.346674 0.599307 -0.502625
O22   O     O_2   0.426940 0.397861 0.899127 -0.504936
O23   O     O_R   0.448450 0.657720 0.276690 -0.518060
O24   O     O_R   0.448450 0.657720 0.223310 -0.499566
O25   O     O_R   0.524710 0.338410 0.721160 -0.504689
O26   O     O_R   0.524710 0.338410 0.778840 -0.503874
O27   O     O_R   0.551550 0.209270 0.723310 -0.490382
O28   O     O_R   0.551550 0.209270 0.776690 -0.484061
O29   O     O_R   0.661590 0.186300 0.721160 -0.529728
O30   O     O_R   0.661590 0.186300 0.778840 -0.525049
O31   O     O_R   0.790730 0.342280 0.723310 -0.495829
O32   O     O_R   0.790730 0.342280 0.776690 -0.507975
O33   O     O_R   0.813700 0.475290 0.721160 -0.539198
O34   O     O_R   0.813700 0.475290 0.778840 -0.505138
O35   O     O_R   0.657720 0.448450 0.723310 -0.504633
O36   O     O_R   0.657720 0.448450 0.776690 -0.495630
O37   O     O_3   0.666667 0.333333 0.750000 -0.221362
O38   O     O_R   0.338410 0.524710 0.278840 -0.433243
O39   O     O_R   0.338410 0.524710 0.221160 -0.455993
O40   O     O_R   0.209270 0.551550 0.276690 -0.481594
O41   O     O_R   0.209270 0.551550 0.223310 -0.453345
O42   O     O_R   0.186300 0.661590 0.278840 -0.515790
O43   O     O_R   0.186300 0.661590 0.221160 -0.541531
O44   O     O_R   0.342280 0.790730 0.276690 -0.499100
O45   O     O_R   0.342280 0.790730 0.223310 -0.510444
O46   O     O_3   0.333333 0.666667 0.250000 -0.240951
O47   O     O_2   0.171221 0.478130 0.403747 -0.565273
O48   O     O_2   0.015965 0.398445 0.108646 -0.514181
O49   O     O_2   0.073577 0.437074 0.618710 -0.525180
O50   O     O_2   0.951994 0.363936 0.897587 -0.530845
C229  C     C_3   0.143076 0.797807 0.491956 -0.258339
C230  C     C_3   0.079643 0.826820 0.486342 -0.311472
C231  C     C_3   0.097802 0.902974 0.502991 -0.438663
H67   H     H_    0.090924 0.886290 0.524187 0.156715
H68   H     H_    0.162516 0.955480 0.499079 0.182615
H69   H     H_    0.052762 0.924148 0.498060 0.148028
H70   H     H_    0.083638 0.844634 0.465311 0.165837
H71   H     H_    0.014403 0.775618 0.490247 0.164417
H72   H     H_    0.156634 0.800053 0.513204 0.160055
H73   H     H_    0.204052 0.844774 0.483005 0.161963
C232  C     C_3   0.015088 0.742951 0.021707 -0.242472
C233  C     C_3   0.933680 0.724363 0.008153 -0.304320
C234  C     C_3   0.945613 0.801816 0.993279 -0.452783
H74   H     H_    0.965472 0.855501 0.006927 0.172269
H75   H     H_    0.993760 0.819493 0.977577 0.164848
H76   H     H_    0.885989 0.788471 0.984039 0.128327
H77   H     H_    0.912217 0.671170 0.994406 0.167758
H78   H     H_    0.883487 0.706044 0.023232 0.171032
H79   H     H_    0.021340 0.784627 0.038409 0.145655
H80   H     H_    0.072713 0.784709 0.010461 0.150729
C235  C     C_3   0.308960 0.901417 0.306895 -0.241200
C236  C     C_3   0.360314 0.973449 0.287444 -0.289762
C237  C     C_3   0.303223 0.987521 0.269173 -0.442183
H81   H     H_    0.264097 0.930097 0.257436 0.148835
H82   H     H_    0.261788 0.003481 0.280687 0.160794
H83   H     H_    0.341965 0.040308 0.255506 0.153731
H84   H     H_    0.400291 0.032245 0.298509 0.175867
H85   H     H_    0.401986 0.959650 0.275242 0.169613
H86   H     H_    0.263239 0.843457 0.296573 0.187709
H87   H     H_    0.269939 0.919556 0.318878 0.133219
C238  C     C_3   0.274452 0.825689 0.180981 -0.248630
C239  C     C_3   0.208878 0.824931 0.162282 -0.320329
C240  C     C_3   0.122239 0.783359 0.175245 -0.410281
H88   H     H_    0.101513 0.717086 0.180518 0.178178
H89   H     H_    0.123483 0.818093 0.193224 0.147526
H90   H     H_    0.076261 0.783753 0.161368 0.181788
H91   H     H_    0.227102 0.890384 0.156679 0.180991
H92   H     H_    0.204275 0.788468 0.144345 0.188148
H93   H     H_    0.253565 0.759631 0.185567 0.189871
H94   H     H_    0.274289 0.858875 0.199200 0.168188
F1    F     F_    0.395646 0.148577 0.511874 -0.701287
F2    F     F_    0.303493 0.033862 0.985797 -0.666417
C241  C     C_3   0.536084 0.861279 0.377378 -0.220362
C242  C     C_3   0.623740 0.938208 0.373664 -0.325055
C243  C     C_3   0.686969 0.933902 0.391820 -0.400112
H95   H     H_    0.668242 0.932499 0.412679 0.197395
H96   H     H_    0.691029 0.876821 0.387594 0.222064
H97   H     H_    0.749835 0.990176 0.388662 0.136546
H98   H     H_    0.645156 0.941775 0.353003 0.162944
H99   H     H_    0.621594 0.996302 0.378057 0.188352
H100  H     H_    0.518157 0.857003 0.398367 0.189668
H101  H     H_    0.537559 0.803152 0.372654 0.204757
C244  C     C_3   0.622434 0.999675 0.142442 -0.224693
C245  C     C_3   0.669203 0.083508 0.157102 -0.324022
C246  C     C_3   0.759816 0.135558 0.147483 -0.430837
H102  H     H_    0.793736 0.100719 0.150729 0.169365
H103  H     H_    0.761706 0.150243 0.126241 0.167228
H104  H     H_    0.792099 0.195565 0.158502 0.160839
H105  H     H_    0.636977 0.120114 0.153914 0.187610
H106  H     H_    0.669378 0.071972 0.178518 0.161456
H107  H     H_    0.653282 0.961931 0.145956 0.169187
H108  H     H_    0.627328 0.013676 0.121105 0.182815
F3    F     F_    0.393018 0.779013 0.584201 -0.587275
F4    F     F_    0.603809 0.903313 0.923351 -0.582093
F5    F     F_    0.624795 0.772226 0.434810 -0.649326
F6    F     F_    0.721914 0.746908 0.069464 -0.605523
C247  C     C_3   0.728240 0.562251 0.681636 -0.210328
C248  C     C_3   0.730112 0.625387 0.701723 -0.296291
C249  C     C_3   0.815704 0.674149 0.714742 -0.444714
H109  H     H_    0.829164 0.630763 0.726075 0.179448
H110  H     H_    0.865667 0.707568 0.699706 0.159366
H111  H     H_    0.816071 0.721253 0.728434 0.134242
H112  H     H_    0.716379 0.670562 0.691549 0.176122
H113  H     H_    0.681476 0.593188 0.717176 0.172075
H114  H     H_    0.753056 0.523413 0.689422 0.191151
H115  H     H_    0.773436 0.599392 0.665765 0.212335
C250  C     C_3   0.648720 0.591198 0.803792 -0.229906
C251  C     C_3   0.584601 0.592058 0.784938 -0.301338
C252  C     C_3   0.625239 0.669895 0.767311 -0.450113
H116  H     H_    0.648810 0.727733 0.779304 0.170265
H117  H     H_    0.678267 0.672652 0.756031 0.144849
H118  H     H_    0.578256 0.667410 0.753271 0.155999
H119  H     H_    0.557237 0.535348 0.772311 0.164332
H120  H     H_    0.532933 0.591802 0.796393 0.191291
H121  H     H_    0.679740 0.651788 0.814549 0.212089
H122  H     H_    0.699528 0.589175 0.792640 0.157895
F7    F     F_    0.691765 0.570662 0.629013 -0.628003
F8    F     F_    0.631704 0.613011 0.858461 -0.606955
C253  C     C_3   0.691260 0.740476 0.572156 -0.222757
C254  C     C_3   0.646799 0.790461 0.577794 -0.266899
C255  C     C_3   0.701429 0.868136 0.594260 -0.433251
H123  H     H_    0.715305 0.849452 0.613488 0.178620
H124  H     H_    0.761231 0.910226 0.583778 0.141144
H125  H     H_    0.667805 0.903154 0.597847 0.163139
H126  H     H_    0.632259 0.810740 0.558935 0.149376
H127  H     H_    0.586683 0.750531 0.588411 0.235765
H128  H     H_    0.714240 0.726119 0.590392 0.221219
H129  H     H_    0.749274 0.781012 0.560562 0.118129
C256  C     C_3   0.808545 0.644046 0.938024 -0.223434
C257  C     C_3   0.824398 0.726340 0.925214 -0.266257
C258  C     C_3   0.911114 0.773006 0.912382 -0.415610
H130  H     H_    0.960513 0.788436 0.927247 0.145256
H131  H     H_    0.916411 0.733873 0.896734 0.214714
H132  H     H_    0.921168 0.832461 0.903440 0.160848
H133  H     H_    0.776439 0.713928 0.910122 0.241603
H134  H     H_    0.820033 0.767375 0.940396 0.150323
H135  H     H_    0.857026 0.660082 0.953213 0.122590
H136  H     H_    0.819207 0.603842 0.924157 0.206516
C259  C     C_3   0.826505 0.283719 0.674893 -0.245064
C260  C     C_3   0.876012 0.255087 0.691959 -0.276031
C261  C     C_3   0.828535 0.160141 0.696282 -0.448009
H137  H     H_    0.770946 0.140804 0.708110 0.180553
H138  H     H_    0.811559 0.126740 0.677178 0.147114
H139  H     H_    0.868835 0.141707 0.707154 0.144155
H140  H     H_    0.936772 0.273109 0.682088 0.173930
H141  H     H_    0.889983 0.286673 0.711352 0.180810
H142  H     H_    0.764260 0.265202 0.683392 0.186649
H143  H     H_    0.813187 0.250337 0.655776 0.124016
C262  C     C_3   0.789044 0.273372 0.825685 -0.241939
C263  C     C_3   0.780744 0.211031 0.847398 -0.319429
C264  C     C_3   0.747658 0.122588 0.836635 -0.411113
H144  H     H_    0.687161 0.100426 0.826608 0.182842
H145  H     H_    0.793394 0.121911 0.822482 0.151853
H146  H     H_    0.737989 0.078686 0.853023 0.198403
H147  H     H_    0.843013 0.231514 0.856252 0.205092
H148  H     H_    0.736876 0.208407 0.862950 0.164423
H149  H     H_    0.726117 0.261123 0.820404 0.172213
H150  H     H_    0.818674 0.261281 0.808448 0.185544
C265  C     C_3   0.594970 0.761940 0.489130 -0.228760
C266  C     C_3   0.535633 0.792670 0.479750 -0.271187
C267  C     C_3   0.556561 0.874675 0.493503 -0.453394
H151  H     H_    0.539390 0.862949 0.514654 0.158194
H152  H     H_    0.624479 0.921404 0.491555 0.153768
H153  H     H_    0.521930 0.902390 0.484206 0.163280
H154  H     H_    0.539904 0.804811 0.458377 0.238176
H155  H     H_    0.469758 0.743973 0.484322 0.155163
H156  H     H_    0.576445 0.745362 0.509895 0.137191
H157  H     H_    0.661021 0.814479 0.488151 0.162571
C268  C     C_3   0.726614 0.747866 0.014967 -0.228711
C269  C     C_3   0.684153 0.801227 0.017129 -0.283177
C270  C     C_3   0.732971 0.883501 0.001771 -0.449732
H158  H     H_    0.798375 0.919991 0.009005 0.167861
H159  H     H_    0.733963 0.870619 0.980504 0.172896
H160  H     H_    0.702628 0.922037 0.004437 0.145319
H161  H     H_    0.619775 0.764740 0.009091 0.151049
H162  H     H_    0.679248 0.816722 0.037872 0.229600
H163  H     H_    0.791686 0.783566 0.022549 0.181326
H164  H     H_    0.730570 0.739084 0.993753 0.137548
F9    F     F_    0.306331 0.458096 0.324009 -0.658812
F10   F     F_    0.314024 0.545487 0.167171 -0.658376
C271  C     C_3   0.359987 0.439907 0.376948 -0.234184
C272  C     C_3   0.265526 0.388031 0.371534 -0.247410
C273  C     C_3   0.218172 0.332556 0.395106 -0.440470
H165  H     H_    0.238305 0.285778 0.398702 0.145665
H166  H     H_    0.230075 0.371238 0.412992 0.178529
H167  H     H_    0.149789 0.298397 0.391157 0.172860
H168  H     H_    0.240579 0.430598 0.367397 0.249669
H169  H     H_    0.253942 0.345812 0.354541 0.225714
H170  H     H_    0.380574 0.393987 0.381138 0.184330
H171  H     H_    0.368488 0.477132 0.395042 0.145145
C274  C     C_3   0.373573 0.548618 0.115931 -0.215465
C275  C     C_3   0.384231 0.635422 0.110270 -0.289558
C276  C     C_3   0.338706 0.634807 0.085289 -0.447042
H172  H     H_    0.365748 0.619527 0.068050 0.158893
H173  H     H_    0.270807 0.587718 0.086955 0.160522
H174  H     H_    0.345985 0.697897 0.082155 0.168213
H175  H     H_    0.359180 0.655283 0.126971 0.197209
H176  H     H_    0.452034 0.682307 0.107860 0.219634
H177  H     H_    0.393798 0.528202 0.098279 0.146666
H178  H     H_    0.306143 0.501630 0.119103 0.203492
C277  C     C_3   0.544957 0.327358 0.473846 -0.259344
C278  C     C_3   0.626054 0.360416 0.489661 -0.284989
C279  C     C_3   0.637804 0.288334 0.499192 -0.443839
H179  H     H_    0.585143 0.245853 0.512401 0.182056
H180  H     H_    0.640659 0.251786 0.482264 0.149987
H181  H     H_    0.697308 0.314052 0.510260 0.151110
H182  H     H_    0.680581 0.403394 0.477115 0.171392
H183  H     H_    0.624919 0.396094 0.507057 0.185805
H184  H     H_    0.490750 0.280253 0.485215 0.197570
H185  H     H_    0.549546 0.291232 0.457041 0.127691
C280  C     C_3   0.437577 0.281219 0.025524 -0.240684
C281  C     C_3   0.514990 0.275244 0.016761 -0.286888
C282  C     C_3   0.512915 0.254410 0.987652 -0.441239
H186  H     H_    0.453350 0.196553 0.982844 0.183123
H187  H     H_    0.519316 0.307027 0.975323 0.171261
H188  H     H_    0.565827 0.244049 0.982912 0.134349
H189  H     H_    0.574641 0.334556 0.020680 0.176919
H190  H     H_    0.517660 0.225546 0.028379 0.151074
H191  H     H_    0.404282 0.233025 0.041096 0.121801
H192  H     H_    0.390780 0.262093 0.009738 0.161418
C283  C     C_3   0.084265 0.355963 0.525871 -0.268970
C284  C     C_3   0.003505 0.281548 0.537416 -0.301188
C285  C     C_3   0.977864 0.200594 0.522315 -0.450068
H193  H     H_    0.964299 0.207472 0.501533 0.155241
H194  H     H_    0.028715 0.184995 0.522958 0.159415
H195  H     H_    0.920425 0.148022 0.531369 0.144030
H196  H     H_    0.012621 0.270432 0.558246 0.163925
H197  H     H_    0.951599 0.295671 0.536496 0.172312
H198  H     H_    0.071573 0.355527 0.504660 0.162789
H199  H     H_    0.137518 0.344617 0.528608 0.143293
C286  C     C_3   0.830733 0.274319 0.990137 -0.266130
C287  C     C_3   0.744345 0.239192 0.977189 -0.302149
C288  C     C_3   0.677156 0.161228 0.991660 -0.443945
H200  H     H_    0.694120 0.111214 0.991840 0.164666
H201  H     H_    0.669766 0.177087 0.012175 0.155876
H202  H     H_    0.616162 0.136650 0.981534 0.147979
H203  H     H_    0.725763 0.288085 0.977284 0.166046
H204  H     H_    0.746866 0.221562 0.956492 0.165422
H205  H     H_    0.850667 0.226508 0.989256 0.144272
H206  H     H_    0.822009 0.285583 0.011003 0.158835

loop_
_geom_bond_atom_site_label_1
_geom_bond_atom_site_label_2
_ccdc_geom_bond_type
C194  C196  A    
C63   C65   A    
Cr5   O31   S    
C33   C45   S    
C283  C284  S    
C185  C207  A    
C2    C202  S    
C39   C87   A    
C170  C176  A    
C250  H122  S    
C188  H44   S    
C261  H139  S    
C171  C173  A    
C109  H15   S    
C190  H46   S    
C20   C268  S    
C18   C210  A    
C84   C86   A    
C148  O10   D    
C4    C142  A    
C54   O43   A    
C57   C59   A    
C205  C211  A    
C58   C60   A    
C263  H147  S    
C128  C132  A    
C269  H162  S    
C282  H188  S    
C11   N11   S    
C244  H108  S    
C105  C123  A    
C60   C62   A    
C279  H181  S    
C266  H155  S    
C61   C63   A    
C260  H140  S    
C7    C203  A    
C81   C83   A    
C5    C247  S    
C208  H20   S    
C91   H7    S    
C39   H37   S    
C122  C170  A    
C56   C286  S    
C19   C265  S    
C275  H175  S    
C136  H26   S    
C50   C52   A    
C159  C161  A    
C171  H33   S    
C56   C58   A    
C156  H40   S    
C82   C88   A    
C80   N4    S    
C74   H10   S    
C206  C214  A    
C187  H43   S    
Cr6   O35   S    
C256  H135  S    
C242  H99   S    
C259  H143  S    
C182  C192  A    
C108  C124  A    
C71   C259  S    
C137  C147  A    
C4    C208  A    
C184  F10   S    
C27   C221  A    
C103  C241  S    
C286  C287  S    
C87   H63   S    
C127  C133  A    
C8    C204  A    
Cr5   O29   S    
C25   C41   A    
C152  H22   S    
C178  O16   D    
C26   C38   A    
C252  H118  S    
C34   O32   A    
C212  C220  A    
C193  C199  A    
C21   C29   A    
C110  H16   S    
C67   N3    Am   
C77   H13   S    
C102  O12   D    
Cr3   O45   S    
C255  H125  S    
C55   C57   A    
C57   H61   S    
C189  H45   S    
C105  H29   S    
C274  H177  S    
C92   C94   A    
C35   O25   A    
C99   O7    D    
C20   C198  A    
C93   H11   S    
C126  C154  A    
C2    O39   A    
C185  H1    S    
C82   C84   A    
C278  H182  S    
C14   C206  A    
C143  C173  A    
C254  H127  S    
C235  C236  S    
C283  H199  S    
C175  H41   S    
C277  H185  S    
C135  C137  A    
C187  C201  A    
C177  C195  A    
C249  H109  S    
C272  H169  S    
C271  H171  S    
C235  H86   S    
C1    O38   A    
C234  H74   S    
C54   O41   A    
C238  C239  S    
C186  C208  A    
C192  N10   S    
C281  C282  S    
C40   C88   A    
C156  C158  A    
C21   H49   S    
C64   C94   A    
C172  H34   S    
C22   H50   S    
C241  C242  S    
C245  C246  S    
C99   C115  A    
C268  H163  S    
C188  C202  A    
C116  C118  A    
Cr2   O39   S    
C99   N5    Am   
C233  H77   S    
C47   C81   A    
C83   C85   A    
C32   O28   A    
C127  C131  A    
C12   C228  A    
C287  H203  S    
C113  C161  A    
C8    H54   S    
C206  C212  A    
C48   C52   A    
Cr6   O33   S    
C28   C222  A    
C157  N7    S    
C144  C174  A    
C133  C135  A    
C73   C77   A    
C278  C279  S    
Cr3   O44   S    
C154  H36   S    
C241  H100  S    
C218  C226  A    
C161  C165  A    
C160  C162  A    
C180  O20   D    
C41   C89   A    
C34   O34   A    
C191  N9    S    
C45   C71   A    
C182  C274  S    
C3    C141  A    
Cr4   O26   S    
C38   C98   A    
C273  H167  S    
C249  H110  S    
C288  H200  S    
C280  H192  S    
C68   O50   D    
C177  N9    Am   
C120  O4    D    
C216  C218  A    
C128  C134  A    
C149  C151  A    
C30   C280  S    
C214  C216  A    
C243  H97   S    
C253  H128  S    
C43   C185  A    
C230  C231  S    
C188  C190  A    
C177  O15   D    
C32   C126  S    
C76   O45   A    
C189  C191  A    
C233  C234  S    
Cr1   O23   S    
C59   C67   A    
C126  C152  A    
C257  H133  S    
C194  C200  A    
C101  O11   D    
C159  C167  A    
C78   H14   S    
C145  O13   D    
C34   C46   S    
C281  H190  S    
C6    C250  S    
C160  C168  A    
C268  C269  S    
C21   C199  A    
C98   N2    Am   
C75   O44   A    
C246  H103  S    
C172  C174  A    
C186  H2    S    
C40   H38   S    
C226  N12   Am   
C24   H52   S    
C59   C61   A    
C2    O24   A    
C76   C124  S    
C238  H94   S    
C260  C261  S    
C239  C240  S    
C231  H69   S    
C104  C112  A    
C4    N2    S    
C49   C51   A    
C281  H189  S    
C178  C196  A    
C5    C227  A    
C42   C90   A    
C35   O35   A    
C230  H70   S    
C223  O21   D    
C180  C200  A    
C164  H66   S    
C228  F8    S    
C9    C11   A    
C218  C220  A    
C264  H144  S    
C149  H23   S    
C264  H146  S    
C262  C263  S    
C215  C253  S    
C103  C105  A    
C284  H197  S    
Cr3   O42   S    
C222  C224  A    
C265  H156  S    
C75   O1    A    
C10   C12   A    
C8    C10   A    
C183  F9    S    
C210  C212  A    
C44   C186  A    
C69   C79   A    
C88   H64   S    
Cr4   O28   S    
C106  C124  A    
C273  H165  S    
C66   O6    D    
C31   O27   A    
C26   C42   A    
C25   C83   A    
C234  H76   S    
C111  N5    S    
C259  C260  S    
C26   C84   A    
Cr5   O30   S    
C22   C30   A    
C251  H119  S    
C46   C72   A    
C24   C28   A    
C225  O17   D    
C254  C255  S    
C179  N9    Am   
C259  H142  S    
C5    C203  A    
C114  C116  A    
C270  H158  S    
C90   C96   A    
C261  H138  S    
C211  C219  A    
C169  H31   S    
C13   C15   A    
C272  C273  S    
C213  C215  A    
C52   C62   A    
C236  H84   S    
C85   C95   A    
C42   C120  A    
C168  H28   S    
Cr5   O37   S    
C282  H187  S    
C244  H107  S    
C14   C16   A    
C279  H180  S    
C285  H195  S    
C110  C112  A    
C16   C194  A    
C247  H114  S    
C253  C254  S    
C44   C54   S    
C76   O2    A    
C11   C227  A    
C276  H174  S    
C275  H176  S    
C31   C125  S    
C67   O49   D    
C286  H206  S    
C252  H117  S    
C237  H82   S    
C267  H151  S    
C248  H112  S    
C217  C225  A    
C195  C197  A    
Cr6   O36   S    
C248  H113  S    
C155  C157  A    
C17   C29   A    
C100  C116  A    
C107  C123  A    
C1    C201  S    
C104  C106  A    
C213  H47   S    
C65   N3    Am   
C137  C139  A    
C66   N4    Am   
C250  C251  S    
C12   N12   S    
C280  C281  S    
C22   C200  A    
C49   C91   A    
C147  O9    D    
C17   C209  A    
C239  H91   S    
C142  C164  A    
C1    O23   A    
C240  H90   S    
Cr1   O1    S    
C114  C162  A    
Cr6   O37   S    
C266  C267  S    
C103  C111  A    
C167  H27   S    
C151  H21   S    
C283  H198  S    
C255  H124  S    
C162  C166  A    
C43   C53   S    
C174  F4    S    
C119  O3    D    
C130  C172  A    
C115  C117  A    
C6    C228  A    
C258  H132  S    
C229  C230  S    
C225  N11   Am   
Cr1   O46   S    
C153  C155  A    
C134  F2    S    
C232  H80   S    
C154  C156  A    
C145  N7    Am   
C77   C79   A    
C68   N4    Am   
C146  N8    Am   
Cr5   O32   S    
C278  H183  S    
C277  C278  S    
C107  C109  A    
C178  N10   Am   
C98   O48   D    
C120  N2    Am   
C65   O5    D    
C269  H161  S    
C102  N6    Am   
C274  H178  S    
C19   C197  A    
C13   C19   A    
C70   C80   A    
C14   C20   A    
C271  H170  S    
C235  H87   S    
C196  C198  A    
C181  C183  A    
C262  H149  S    
C24   C210  A    
C257  C258  S    
C47   C51   A    
C247  C248  S    
C277  H184  S    
C101  C121  A    
C258  H130  S    
C250  H121  S    
C183  C201  A    
C266  H154  S    
C89   C95   A    
C130  C132  A    
C285  H193  S    
C6    C204  A    
C91   C93   A    
C130  C166  A    
C274  C275  S    
C169  C175  A    
Cr2   O40   S    
C233  H78   S    
C27   H55   S    
C94   H12   S    
C81   C87   A    
C86   C96   A    
C144  C146  A    
C264  H145  S    
C180  N10   Am   
C256  H136  S    
C242  H98   S    
C13   C205  A    
C165  C175  A    
C284  C285  S    
C29   C277  S    
C79   N3    S    
C288  H202  S    
C9    H57   S    
C237  H81   S    
C270  H160  S    
C15   C17   A    
C269  C270  S    
C190  C192  A    
C150  C158  A    
C135  H25   S    
C55   C283  S    
C140  C144  A    
C273  H166  S    
C10   H58   S    
C240  H88   S    
C133  F1    S    
C132  C140  A    
C63   C93   A    
C129  C165  A    
C216  C256  S    
C125  C153  A    
Cr3   O46   S    
C231  H68   S    
C62   C64   A    
C37   C39   A    
C38   C40   A    
C181  C191  A    
C179  C199  A    
C117  C167  A    
C118  C168  A    
C48   C82   A    
C95   C229  S    
C78   C80   A    
C229  H73   S    
C15   C193  A    
C257  H134  S    
C101  N5    Am   
C60   C68   A    
C263  C264  S    
C74   C78   A    
C267  H153  S    
C242  C243  S    
C118  H18   S    
C44   C164  A    
C231  H67   S    
C254  H126  S    
C102  C122  A    
C149  C157  A    
Cr2   O41   S    
C64   C66   A    
C43   C163  A    
C121  C169  A    
C33   O33   A    
C170  H32   S    
C89   H5    S    
C272  H168  S    
C51   C61   A    
C155  H39   S    
C32   O30   A    
C236  C237  S    
C220  C222  A    
C246  H102  S    
C117  H17   S    
C148  N8    Am   
C97   O47   D    
C279  H179  S    
C75   C123  S    
C262  H150  S    
C238  H93   S    
C72   C262  S    
C215  C217  A    
C263  H148  S    
C104  C244  S    
C147  N7    Am   
C163  H65   S    
Cr2   O38   S    
C45   C73   A    
C271  C272  S    
C230  H71   S    
C69   C71   A    
C248  C249  S    
C109  C111  A    
C25   C37   A    
C92   H8    S    
C226  O18   D    
C143  C145  A    
C108  C110  A    
C193  C195  A    
C146  O14   D    
C265  C266  S    
C205  C213  A    
C142  H4    S    
C18   C30   A    
C23   C27   A    
C53   O42   A    
C125  C151  A    
C241  H101  S    
C48   C56   A    
C37   C97   A    
C237  H83   S    
C100  N6    Am   
C243  H96   S    
C214  H48   S    
C107  C235  S    
C223  N11   Am   
C139  C143  A    
Cr4   O25   S    
C224  N12   Am   
C176  H42   S    
C106  H30   S    
C179  O19   D    
C249  H111  S    
C260  H141  S    
C234  H75   S    
C184  C202  A    
C288  H201  S    
C49   C85   A    
C131  C139  A    
C136  C138  A    
C138  C148  A    
Cr2   O46   S    
C134  C136  A    
C253  H129  S    
C23   C209  A    
C261  H137  S    
C41   C119  A    
C158  N8    S    
C173  F3    S    
C256  C257  S    
C31   O29   A    
Cr1   O24   S    
C236  H85   S    
C219  C221  A    
C58   H62   S    
C227  F7    S    
C224  O22   D    
C244  C245  S    
C73   H9    S    
C243  H95   S    
C229  H72   S    
C282  H186  S    
C113  C121  A    
C7    H53   S    
C245  H105  S    
C119  N1    Am   
C285  H194  S    
C100  O8    D    
C287  H204  S    
C23   H51   S    
C251  H120  S    
C50   C92   A    
C141  C163  A    
C245  H106  S    
C276  H173  S    
C108  C238  S    
C150  C152  A    
C97   N1    Am   
C127  C159  A    
Cr4   O37   S    
C46   C74   A    
C246  H104  S    
C287  C288  S    
C128  C160  A    
C47   C55   A    
C181  C271  S    
C7    C9    A    
C112  N6    S    
C141  H3    S    
C182  C184  A    
Cr6   O34   S    
C129  C171  A    
C153  H35   S    
C36   O26   A    
C247  H115  S    
C286  H205  S    
C138  C140  A    
C217  C219  A    
C268  H164  S    
C166  C176  A    
C90   H6    S    
C36   O36   A    
C267  H152  S    
C207  H19   S    
C270  H159  S    
C28   H56   S    
C221  C223  A    
C239  H92   S    
C232  C233  S    
C150  H24   S    
C53   O40   A    
C240  H89   S    
C35   C203  S    
C252  H116  S    
C113  C115  A    
C232  H79   S    
C3    C207  A    
C209  C211  A    
C280  H191  S    
C69   H59   S    
C284  H196  S    
C70   H60   S    
C33   O31   A    
C255  H123  S    
C265  H157  S    
C187  C189  A    
C50   C86   A    
C114  C122  A    
C96   C232  S    
C275  C276  S    
C16   C18   A    
C197  F5    S    
C258  H131  S    
C198  F6    S    
C70   C72   A    
C36   C204  S    
Cr4   O27   S    
C251  C252  S    
C276  H172  S    
Cr3   O43   S    
C3    N1    S    
Cr1   O2    S    
C129  C131  A    
