data_mof_unit_43506.cif
_audit_creation_date              2012-12-10T17:01:34-0500
_audit_creation_method            fapswitch 2.2
_symmetry_space_group_name_H-M    P1
_symmetry_Int_Tables_number       1
_space_group_crystal_system       triclinic
_cell_length_a                    9.904908
_cell_length_b                    11.072295
_cell_length_c                    12.960804
_cell_angle_alpha                 90.478153
_cell_angle_beta                  75.640934
_cell_angle_gamma                 112.471747
_cell_volume                      1266.50255322

loop_
_atom_site_label
_atom_site_type_symbol
_atom_type_description
_atom_site_fract_x
_atom_site_fract_y
_atom_site_fract_z
_atom_type_partial_charge
C1    C     C_R   0.437467 0.252975 0.507553 0.808198
C2    C     C_R   0.562533 0.747025 0.492445 0.808214
C3    C     C_2   0.083194 0.512923 0.494134 -0.039301
C4    C     C_2   0.916809 0.487158 0.505944 -0.039556
C5    C     C_R   0.471787 0.489053 0.702640 0.843575
C6    C     C_R   0.528208 0.510931 0.297360 0.843514
C7    C     C_R   0.544906 0.526905 0.182913 -0.119391
C8    C     C_R   0.455083 0.473051 0.817088 -0.119415
C9    C     C_R   0.315376 0.369891 0.996762 -0.206269
C10   C     C_R   0.684628 0.630050 0.003237 -0.206309
C11   C     C_R   0.325321 0.376500 0.887311 -0.032972
C12   C     C_R   0.674657 0.623457 0.112692 -0.032974
C13   C     C_R   0.574063 0.556227 0.856241 -0.226705
C14   C     C_R   0.425947 0.443706 0.143757 -0.226637
C15   C     C_R   0.565328 0.546489 0.964618 0.146410
C16   C     C_R   0.434686 0.453441 0.035379 0.146347
C17   C     C_2   0.397717 0.111057 0.510273 -0.190572
C18   C     C_2   0.602282 0.888943 0.489720 -0.190696
C19   C     C_2   0.507901 0.067630 0.508385 -0.112796
C20   C     C_2   0.492090 0.932366 0.491623 -0.112762
Cu1   Cu    Cu3+1 0.647370 0.522180 0.481340 1.023827
Cu2   Cu    Cu3+1 0.352630 0.477820 0.518660 1.023892
H1    H     H_    0.326489 0.370387 0.197991 0.166754
H2    H     H_    0.673524 0.629545 0.802010 0.166728
H3    H     H_    0.216941 0.296226 0.051465 0.177294
H4    H     H_    0.783059 0.703725 0.948541 0.177197
H5    H     H_    0.384320 0.863110 0.483048 0.209060
H6    H     H_    0.615665 0.136882 0.516974 0.209065
H7    H     H_    0.830861 0.408412 0.563634 0.175215
H8    H     H_    0.169147 0.591774 0.436538 0.175211
N1    N     N_2   0.131210 0.444490 0.546730 -0.243952
N2    N     N_2   0.868790 0.555510 0.453270 -0.244028
O1    O     O_R   0.578710 0.332530 0.490040 -0.589734
O2    O     O_R   0.421290 0.667470 0.509960 -0.589759
O3    O     O_R   0.329810 0.295070 0.521560 -0.551082
O4    O     O_R   0.670190 0.704930 0.478440 -0.551105
O5    O     O_R   0.604230 0.515670 0.637800 -0.586091
O6    O     O_R   0.395770 0.484330 0.362200 -0.585969
O7    O     O_R   0.355330 0.478200 0.669330 -0.564670
O8    O     O_R   0.644670 0.521800 0.330670 -0.564765
C21   C     C_2   0.794564 0.725600 0.151202 0.880306
O9    O     O_2   0.927255 0.762002 0.100063 -0.567119
O10   O     O_R   0.755142 0.785271 0.242813 -0.755908
H9    H     H_    0.845839 0.858357 0.257738 0.365653
C22   C     C_2   0.205352 0.274382 0.848817 0.880186
O11   O     O_2   0.072707 0.237828 0.900086 -0.567177
O12   O     O_R   0.244667 0.214881 0.757078 -0.755944
H10   H     H_    0.153937 0.141812 0.742166 0.365539
C23   C     C_2   0.761310 0.975800 0.486883 0.409057
H11   H     H_    0.825773 0.940064 0.525997 0.118748
O13   O     O_2   0.824800 0.083398 0.435548 -0.533866
C24   C     C_2   0.238696 0.024207 0.513084 0.408876
H12   H     H_    0.174255 0.059950 0.473952 0.118822
O14   O     O_2   0.175186 0.916608 0.564417 -0.534076
C25   C     C_2   0.974245 0.655715 0.371813 1.027939
O15   O     O_2   0.977935 0.767123 0.375747 -0.597862
O16   O     O_R   0.069043 0.625629 0.285442 -0.775321
H13   H     H_    0.137456 0.704952 0.232353 0.342346
C26   C     C_2   0.025711 0.344061 0.628002 1.027814
O17   O     O_2   0.021859 0.232612 0.623716 -0.598007
O18   O     O_R   0.931022 0.373956 0.714576 -0.775259
H14   H     H_    0.862539 0.294476 0.767494 0.342265

loop_
_geom_bond_atom_site_label_1
_geom_bond_atom_site_label_2
_ccdc_geom_bond_type
C14   H1    S    
C3    H8    S    
O10   H9    S    
C6    O6    A    
C25   O16   S    
C12   C21   S    
Cu2   O3    S    
C20   H5    S    
C5    O5    A    
C2    C18   S    
C9    C11   A    
C21   O9    D    
N2    C25   S    
C1    C17   S    
C19   C20   S    
C25   O15   D    
C10   H4    S    
C13   C15   A    
C18   C23   S    
C9    H3    S    
C26   O17   D    
Cu1   O4    S    
C22   O11   D    
C3    N1    D    
C19   H6    S    
C21   O10   S    
C2    O2    A    
O16   H13   S    
C4    N2    D    
Cu1   O8    S    
C10   C12   A    
C8    C11   A    
Cu2   O7    S    
C17   C24   S    
C17   C19   D    
C9    C16   A    
C24   O14   D    
C6    C7    S    
C18   C20   D    
C10   C15   A    
C22   O12   S    
O18   H14   S    
Cu2   O2    S    
Cu1   N2    S    
C14   C16   A    
C7    C12   A    
C11   C22   S    
C5    C8    S    
Cu1   O1    S    
Cu2   N1    S    
C1    O1    A    
C15   C16   A    
Cu2   O6    S    
C8    C13   A    
C2    O4    A    
C6    O8    A    
Cu1   O5    S    
C24   H12   S    
C1    O3    A    
C23   H11   S    
C26   O18   S    
N1    C26   S    
C5    O7    A    
C23   O13   D    
Cu1   Cu2   S    
C7    C14   A    
C3    C4    S    
C13   H2    S    
C4    H7    S    
O12   H10   S    
