data_mof_unit_53884.cif
_audit_creation_date              2012-12-11T17:14:06-0500
_audit_creation_method            fapswitch 2.2
_symmetry_space_group_name_H-M    P1
_symmetry_Int_Tables_number       1
_space_group_crystal_system       triclinic
_cell_length_a                    18.381596
_cell_length_b                    7.203434
_cell_length_c                    13.31153
_cell_angle_alpha                 90.002923
_cell_angle_beta                  70.579438
_cell_angle_gamma                 90.004736
_cell_volume                      1662.30258059

loop_
_atom_site_label
_atom_site_type_symbol
_atom_type_description
_atom_site_fract_x
_atom_site_fract_y
_atom_site_fract_z
_atom_type_partial_charge
O1    O     O_R   0.453880 0.506200 0.150010 -0.534373
O2    O     O_R   0.546120 0.006200 0.849990 -0.534368
O3    O     O_R   0.604080 0.177770 0.007280 -0.539538
O4    O     O_R   0.395920 0.677770 0.992720 -0.539511
C1    C     C_R   0.635950 0.344558 0.001162 0.704400
C2    C     C_R   0.364049 0.844550 0.998837 0.704429
O5    O     O_R   0.458010 0.176640 0.159130 -0.544048
O6    O     O_R   0.541990 0.676640 0.840870 -0.544027
O7    O     O_R   0.399010 0.004010 0.002930 -0.537580
O8    O     O_R   0.600990 0.504010 0.997070 -0.537566
C3    C     C_R   0.442523 0.345644 0.200552 0.678023
C4    C     C_R   0.557464 0.845634 0.799444 0.677958
O9    O     O_3   0.480810 0.338440 0.948570 -0.375079
O10   O     O_3   0.519190 0.838440 0.051430 -0.375078
V1    V     V_3+5 0.503560 0.064490 0.009540 1.451997
V2    V     V_3+5 0.496440 0.564490 0.990460 1.452071
C5    C     C_R   0.577140 0.963124 0.517901 -0.152360
C6    C     C_R   0.422836 0.463584 0.482032 -0.152353
H1    H     H_    0.489307 0.992519 0.670074 0.139647
H2    H     H_    0.510625 0.493111 0.329845 0.139764
H3    H     H_    0.539667 0.013141 0.475972 0.162734
H4    H     H_    0.460313 0.513749 0.523928 0.162785
C7    C     C_R   0.589723 0.860381 0.683653 -0.035784
C8    C     C_R   0.410264 0.360465 0.316337 -0.035793
C9    C     C_R   0.944087 0.848404 0.378185 -0.361788
C10   C     C_R   0.055913 0.348370 0.621836 -0.361719
C11   C     C_R   0.913318 0.864304 0.489128 0.347214
C12   C     C_R   0.086668 0.364262 0.510893 0.347166
C13   C     C_R   0.832543 0.890295 0.537538 0.354187
C14   C     C_R   0.167442 0.390259 0.462464 0.354187
C15   C     C_R   0.784168 0.874696 0.474135 -0.084330
C16   C     C_R   0.215825 0.374772 0.525861 -0.084358
C17   C     C_R   0.816398 0.876205 0.360643 -0.059370
C18   C     C_R   0.183605 0.376351 0.639353 -0.059351
C19   C     C_R   0.702834 0.870561 0.523247 0.062132
C20   C     C_R   0.297157 0.370708 0.476741 0.062152
C21   C     C_R   0.655609 0.924905 0.464308 -0.007087
C22   C     C_R   0.344379 0.425250 0.535650 -0.007111
C23   C     C_R   0.687196 0.942633 0.353547 0.390728
C24   C     C_R   0.312805 0.443034 0.646409 0.390850
C25   C     C_R   0.765143 0.895691 0.300203 0.026930
C26   C     C_R   0.234865 0.396033 0.699776 0.026894
C27   C     C_R   0.666831 0.816901 0.630638 -0.111333
C28   C     C_R   0.333162 0.316918 0.369373 -0.111385
C29   C     C_R   0.546666 0.944100 0.627927 -0.195622
C30   C     C_R   0.453295 0.444498 0.372016 -0.195739
C31   C     C_R   0.898095 0.862218 0.314220 -0.094871
C32   C     C_R   0.101913 0.362237 0.685787 -0.094830
H5    H     H_    0.698826 0.748975 0.675053 0.123208
H6    H     H_    0.301170 0.248867 0.324988 0.123189
H7    H     H_    0.005402 0.824738 0.340304 0.118381
H8    H     H_    0.994597 0.324695 0.659728 0.118332
C33   C     C_1   0.216294 0.858753 0.000447 -0.199359
C34   C     C_1   0.783704 0.358743 0.999562 -0.199375
C35   C     C_1   0.283401 0.852816 0.999845 -0.194635
C36   C     C_1   0.716597 0.352827 0.000161 -0.194691
O11   O     O_R   0.899030 0.205490 0.002790 -0.540607
O12   O     O_R   0.100970 0.705490 0.997210 -0.540620
O13   O     O_R   0.042000 0.536370 0.840840 -0.543836
O14   O     O_R   0.958000 0.036370 0.159160 -0.543832
C37   C     C_R   0.060621 0.368809 0.800134 0.743004
C38   C     C_R   0.939391 0.868805 0.199871 0.743026
O15   O     O_R   0.895930 0.535070 0.992690 -0.544061
O16   O     O_R   0.104070 0.035070 0.007310 -0.544055
O17   O     O_R   0.953870 0.707520 0.150040 -0.541739
O18   O     O_R   0.046130 0.207520 0.849960 -0.541749
C39   C     C_R   0.864146 0.366696 0.999401 0.711464
C40   C     C_R   0.135854 0.866704 0.000601 0.711488
O19   O     O_3   0.019200 0.374340 0.051340 -0.381517
O20   O     O_3   0.980800 0.874340 0.948660 -0.381518
V3    V     V_3+5 0.996440 0.648350 0.990470 1.354877
V4    V     V_3+5 0.003560 0.148350 0.009530 1.354919
O21   O     O_3   0.639068 0.994517 0.297536 -0.575940
C41   C     C_3   0.657085 0.177805 0.259539 0.087693
H9    H     H_    0.619176 0.212342 0.212447 0.142411
H10   H     H_    0.717575 0.189798 0.204971 0.133783
C42   C     C_3   0.642180 0.319270 0.350241 -0.391462
H11   H     H_    0.581382 0.310005 0.402863 0.203853
H12   H     H_    0.678932 0.291104 0.399923 0.196732
C43   C     C_3   0.660585 0.513596 0.306472 -0.797365
H13   H     H_    0.723826 0.533810 0.280799 0.239217
H14   H     H_    0.631110 0.611192 0.371113 0.248530
H15   H     H_    0.640385 0.539398 0.237802 0.230626
O22   O     O_3   0.360950 0.495000 0.702386 -0.575900
C44   C     C_3   0.342962 0.678325 0.740338 0.087584
H16   H     H_    0.380974 0.712997 0.787240 0.142328
H17   H     H_    0.282526 0.690289 0.795053 0.133862
C45   C     C_3   0.357689 0.819685 0.649639 -0.391771
H18   H     H_    0.418422 0.810427 0.596825 0.203827
H19   H     H_    0.320805 0.791417 0.600184 0.196743
C46   C     C_3   0.339362 0.014074 0.693350 -0.797214
H20   H     H_    0.276122 0.034346 0.719147 0.239232
H21   H     H_    0.368797 0.111535 0.628627 0.248505
H22   H     H_    0.359660 0.040008 0.761925 0.230660
O23   O     O_3   0.798311 0.971820 0.638029 -0.588977
C47   C     C_3   0.831364 0.931440 0.716880 0.119137
H23   H     H_    0.796250 0.004241 0.790657 0.119276
H24   H     H_    0.888859 0.996371 0.698217 0.139198
C48   C     C_3   0.828469 0.723429 0.743349 -0.365658
H25   H     H_    0.770583 0.686975 0.800023 0.171496
H26   H     H_    0.838610 0.635824 0.671833 0.201152
C49   C     C_3   0.889335 0.676391 0.792541 -0.673822
H27   H     H_    0.947663 0.715842 0.739343 0.239578
H28   H     H_    0.889033 0.524432 0.805452 0.195062
H29   H     H_    0.876414 0.753993 0.868338 0.243534
O24   O     O_3   0.201667 0.471706 0.361952 -0.588964
C50   C     C_3   0.168616 0.431167 0.283114 0.119171
H30   H     H_    0.203732 0.503898 0.209311 0.119233
H31   H     H_    0.111120 0.496071 0.301744 0.139293
C51   C     C_3   0.171514 0.223116 0.256717 -0.365529
H32   H     H_    0.229385 0.186675 0.199995 0.171508
H33   H     H_    0.161428 0.135591 0.328250 0.201082
C52   C     C_3   0.110600 0.175916 0.207632 -0.674169
H34   H     H_    0.052274 0.215088 0.260950 0.239630
H35   H     H_    0.110987 0.023967 0.194609 0.195006
H36   H     H_    0.123390 0.253675 0.131913 0.243647
O25   O     O_3   0.958367 0.819643 0.550861 -0.600747
C53   C     C_3   0.025974 0.927169 0.528210 0.013394
H37   H     H_    0.015077 0.029888 0.592208 0.173729
H38   H     H_    0.043997 0.996317 0.449648 0.179201
C54   C     C_3   0.091945 0.804048 0.532185 -0.330961
H39   H     H_    0.071368 0.712505 0.602700 0.217995
H40   H     H_    0.110106 0.722139 0.457942 0.214586
C55   C     C_3   0.161356 0.910704 0.540009 -0.783674
H41   H     H_    0.185411 0.002390 0.470191 0.218224
H42   H     H_    0.206886 0.810629 0.541490 0.231963
H43   H     H_    0.144980 0.992840 0.614657 0.239000
O26   O     O_3   0.041599 0.319618 0.449181 -0.600757
C56   C     C_3   0.974008 0.427190 0.471843 0.013372
H44   H     H_    0.984916 0.529915 0.407848 0.173736
H45   H     H_    0.956004 0.496338 0.550409 0.179188
C57   C     C_3   0.908013 0.304104 0.467884 -0.330918
H46   H     H_    0.928557 0.212577 0.397358 0.217943
H47   H     H_    0.889867 0.222177 0.542116 0.214608
C58   C     C_3   0.838596 0.410782 0.460124 -0.783619
H48   H     H_    0.814546 0.502363 0.529993 0.218218
H49   H     H_    0.793059 0.310734 0.458588 0.231986
H50   H     H_    0.854969 0.493020 0.385519 0.239002
C59   C     C_3   0.788801 0.859946 0.181468 -0.730970
H51   H     H_    0.738893 0.852253 0.152376 0.226571
H52   H     H_    0.826495 0.972193 0.136526 0.214467
H53   H     H_    0.817271 0.723148 0.162261 0.209216
C60   C     C_3   0.211220 0.360422 0.818516 -0.731055
H54   H     H_    0.261131 0.352852 0.847603 0.226588
H55   H     H_    0.173524 0.472688 0.863401 0.214558
H56   H     H_    0.182755 0.223622 0.837788 0.209153

loop_
_geom_bond_atom_site_label_1
_geom_bond_atom_site_label_2
_ccdc_geom_bond_type
C60   H56   S    
C22   C24   A    
C7    C29   A    
C11   C13   A    
O21   C41   S    
C24   O22   S    
C1    C36   S    
O23   C47   S    
C18   C26   A    
C2    C35   S    
O2    C4    A    
O26   C56   S    
C2    O7    A    
C58   H48   S    
C23   C25   A    
C42   H11   S    
O5    C3    A    
C4    C7    S    
C41   H10   S    
C16   C20   A    
C19   C21   A    
C5    C29   A    
C52   H34   S    
C44   H16   S    
C59   H53   S    
O12   V3    S    
C42   C43   S    
O24   C50   S    
O14   V4    S    
C60   H54   S    
C47   C48   S    
C60   H55   S    
C3    C8    S    
C7    C27   A    
C49   H29   S    
O14   C38   A    
O19   V3    S    
C33   C40   S    
C53   H37   S    
C54   C55   S    
O5    V1    S    
C51   H32   S    
C37   O18   A    
O18   V4    S    
C57   H46   S    
C41   C42   S    
O1    C3    A    
C50   H30   S    
C15   C17   A    
O20   V3    S    
C19   C27   A    
C9    C31   A    
C56   C57   S    
C10   C32   A    
C52   H36   S    
C24   C26   A    
O6    V2    S    
C14   O24   S    
C50   H31   S    
C57   H47   S    
O11   C39   A    
C43   H15   S    
C6    C30   A    
C34   C36   T    
C42   H12   S    
O15   C39   A    
O13   C37   A    
C25   C59   S    
C41   H9    S    
C44   H17   S    
O22   C44   S    
C43   H14   S    
C46   H20   S    
C13   O23   S    
C27   H5    S    
C34   C39   S    
O17   V3    S    
C5    H3    S    
C47   H24   S    
C53   C54   S    
C16   C18   A    
O4    V2    S    
O19   V4    S    
C9    H7    S    
C10   H8    S    
C46   H21   S    
C48   H25   S    
C45   C46   S    
O6    C4    A    
C47   H23   S    
O1    V2    S    
C5    C21   A    
C49   H28   S    
O2    V1    S    
C51   C52   S    
C54   H39   S    
C58   H50   S    
C55   H43   S    
C53   H38   S    
C23   O21   S    
O12   C40   A    
C48   H26   S    
C45   H19   S    
C17   C31   A    
C50   C51   S    
C15   C19   A    
C20   C28   A    
O4    C2    A    
C18   C32   A    
C33   C35   T    
O16   C40   A    
O3    V1    S    
C55   H42   S    
C56   H44   S    
C44   C45   S    
C28   H6    S    
C58   H49   S    
C38   O17   A    
C6    H4    S    
O15   V3    S    
C43   H13   S    
O3    C1    A    
C59   H51   S    
H1    C29   S    
C9    C11   A    
C10   C12   A    
C8    C30   A    
C31   C38   S    
C20   C22   A    
C6    C22   A    
C17   C25   A    
C1    O8    A    
C21   C23   A    
O8    V2    S    
O25   C53   S    
C46   H22   S    
C14   C16   A    
C59   H52   S    
C32   C37   S    
C57   C58   S    
C8    C28   A    
C12   C14   A    
O16   V4    S    
O11   V4    S    
O7    V1    S    
C49   H27   S    
C51   H33   S    
C54   H40   S    
C48   C49   S    
C45   H18   S    
C13   C15   A    
O9    V2    S    
C26   C60   S    
O10   V1    S    
O20   V4    S    
C11   O25   S    
C52   H35   S    
H2    C30   S    
C12   O26   S    
O13   V3    S    
C55   H41   S    
C56   H45   S    
