data_mof_unit_35578.cif
_audit_creation_date              2013-03-05T16:05:30-0500
_audit_creation_method            fapswitch 2.2
_symmetry_space_group_name_H-M    P1
_symmetry_Int_Tables_number       1
_space_group_crystal_system       triclinic
_cell_length_a                    10.964808
_cell_length_b                    9.576958
_cell_length_c                    10.625693
_cell_angle_alpha                 90.247788
_cell_angle_beta                  92.513045
_cell_angle_gamma                 90.73345
_cell_volume                      1114.62100069

loop_
_atom_site_label
_atom_site_type_symbol
_atom_site_description
_atom_site_fract_x
_atom_site_fract_y
_atom_site_fract_z
_atom_type_partial_charge
O1    O     O_R   0.319640 0.618740 0.499990 -0.550057
O2    O     O_R   0.680360 0.381260 0.500010 -0.550057
O3    O     O_R   0.680360 0.618740 0.500010 -0.552884
O4    O     O_R   0.319640 0.381260 0.499990 -0.552884
C1    C     C_R   0.871680 0.502703 0.488079 -0.358586
C2    C     C_R   0.128320 0.497297 0.511921 -0.358586
C3    C     C_R   0.262470 0.499015 0.505828 0.878674
C4    C     C_R   0.737530 0.500985 0.494172 0.878673
O5    O     O_R   0.499970 0.618770 0.316850 -0.597841
O6    O     O_R   0.500030 0.381230 0.683150 -0.597841
O7    O     O_R   0.500030 0.618770 0.683150 -0.587420
O8    O     O_R   0.499970 0.381230 0.316850 -0.587420
C5    C     C_R   0.499648 0.499931 0.259348 0.800721
C6    C     C_R   0.500352 0.500069 0.740651 0.800721
Cu1   Cu    Cu3+1 0.500000 0.640660 0.500000 1.033220
Cu2   Cu    Cu3+1 0.500000 0.359340 0.500000 1.033220
N1    N     N_R   0.500000 0.852070 0.500000 -0.209376
N2    N     N_R   0.500000 0.147930 0.500000 -0.209376
C7    C     C_3   0.517401 0.631411 0.042404 -0.119442
C8    C     C_3   0.482599 0.368589 0.957596 -0.119442
C9    C     C_3   0.608021 0.549594 0.963604 -0.153370
C10   C     C_3   0.391979 0.450406 0.036396 -0.153370
C11   C     C_3   0.409661 0.581292 0.954162 -0.147530
C12   C     C_3   0.590339 0.418708 0.045838 -0.147530
H1    H     H_    0.335795 0.647846 0.913608 0.187150
H2    H     H_    0.664204 0.352154 0.086392 0.187150
H3    H     H_    0.531609 0.739218 0.079569 0.164780
H4    H     H_    0.468390 0.260782 0.920431 0.164780
H5    H     H_    0.697119 0.588789 0.931742 0.177045
H6    H     H_    0.302881 0.411211 0.068257 0.177045
C13   C     C_3   0.500294 0.499695 0.877599 0.000647
C14   C     C_3   0.499706 0.500305 0.122401 0.000647
C15   C     C_R   0.429846 0.072754 0.412942 0.057952
C16   C     C_R   0.570154 0.927246 0.587058 0.057952
C17   C     C_R   0.570999 0.075989 0.586384 0.052479
C18   C     C_R   0.429001 0.924011 0.413616 0.052479
C19   C     C_R   0.060657 0.371545 0.491747 0.219879
C20   C     C_R   0.939343 0.628455 0.508253 0.219879
C21   C     C_R   0.933788 0.375423 0.474145 0.229034
C22   C     C_R   0.066212 0.624576 0.525855 0.229034
C23   C     C_1   0.358042 0.144399 0.317003 0.381986
N3    N     N_1   0.300502 0.200099 0.238817 -0.261628
C24   C     C_1   0.641958 0.855601 0.682997 0.381986
N4    N     N_1   0.699498 0.799901 0.761183 -0.261628
C25   C     C_1   0.648971 0.151473 0.677049 0.367044
N5    N     N_1   0.712017 0.210737 0.750035 -0.255642
C26   C     C_1   0.351029 0.848527 0.322951 0.367044
N6    N     N_1   0.287983 0.789263 0.249965 -0.255642
N7    N     N_R   0.118917 0.238074 0.491107 0.175333
O9    O     O_R   0.168601 0.189987 0.595358 -0.286768
O10   O     O_R   0.099767 0.153541 0.395921 -0.259752
N8    N     N_R   0.881082 0.761926 0.508893 0.175333
O11   O     O_R   0.831399 0.810013 0.404642 -0.286768
O12   O     O_R   0.900233 0.846459 0.604079 -0.259752
N9    N     N_R   0.869032 0.248941 0.438612 0.184298
O13   O     O_R   0.813123 0.238738 0.328301 -0.332248
O14   O     O_R   0.873266 0.140767 0.512209 -0.237696
N10   N     N_R   0.130968 0.751059 0.561388 0.184298
O15   O     O_R   0.186877 0.761261 0.671699 -0.332248
O16   O     O_R   0.126734 0.859233 0.487791 -0.237696

loop_
_geom_bond_atom_site_label_1
_geom_bond_atom_site_label_2
_geom_bond_distance
_ccdc_geom_bond_type
O4    Cu2   1.991389 S    
C1    C4    1.475071 S    
C7    C11   1.545822 S    
C24   N4    1.157278 T    
C12   C14   1.531459 S    
C23   N3    1.157278 T    
C9    H5    1.109343 S    
C2    C3    1.475071 S    
O1    Cu1   1.986045 S    
N1    C18   1.371058 A    
O2    Cu2   1.986044 S    
N2    C17   1.371056 A    
C5    C14   1.455209 S    
C26   N6    1.157841 T    
C6    C13   1.455209 S    
N9    O13   1.301423 A    
C15   C23   1.441999 S    
N7    O10   1.300921 A    
N9    O14   1.300768 A    
O5    Cu1   1.956439 S    
C2    C19   1.416939 A    
O3    Cu1   1.991389 S    
C19   C21   1.396441 A    
O6    Cu2   1.956438 S    
C25   N5    1.157841 T    
O8    C5    1.292886 A    
C20   C22   1.396441 A    
C9    C13   1.531621 S    
C12   H2    1.110364 S    
C19   N7    1.436412 S    
C10   C14   1.531621 S    
O4    C3    1.299801 A    
C7    C14   1.534334 S    
C20   N8    1.436412 S    
C7    C9    1.545824 S    
N8    O12   1.300921 A    
C16   C17   1.424471 A    
C11   H1    1.110365 S    
C10   H6    1.109343 S    
N2    C15   1.372380 A    
C2    C22   1.414243 A    
O3    C4    1.299801 A    
C22   N10   1.436844 S    
N1    C16   1.372379 A    
N10   O16   1.300768 A    
Cu1   Cu2   2.694190 S    
C17   C25   1.444831 S    
C8    C12   1.545822 S    
C15   C18   1.424471 A    
C7    H3    1.110477 S    
N8    O11   1.301480 A    
C18   C26   1.444831 S    
Cu2   N2    2.024666 S    
N7    O9    1.301480 A    
O6    C6    1.289309 A    
C9    C12   1.546108 S    
O7    C6    1.292886 A    
Cu1   N1    2.024665 S    
C1    C21   1.414243 A    
O5    C5    1.289309 A    
C10   C11   1.546108 S    
C8    H4    1.110477 S    
O1    C3    1.302732 A    
N10   O15   1.301423 A    
C1    C20   1.416939 A    
O7    Cu1   1.958242 S    
O2    C4    1.302732 A    
C16   C24   1.441998 S    
O8    Cu2   1.958243 S    
C8    C10   1.545824 S    
C21   N9    1.436844 S    
C8    C13   1.534334 S    
C11   C13   1.531459 S    
