data_mof_unit_22844.cif
_audit_creation_date              2012-12-11T15:50:34-0500
_audit_creation_method            fapswitch 2.2
_symmetry_space_group_name_H-M    P1
_symmetry_Int_Tables_number       1
_space_group_crystal_system       monoclinic
_cell_length_a                    6.928096
_cell_length_b                    14.554849
_cell_length_c                    16.088416
_cell_angle_alpha                 90.0
_cell_angle_beta                  90.0
_cell_angle_gamma                 89.999941
_cell_volume                      1622.31389697

loop_
_atom_site_label
_atom_site_type_symbol
_atom_type_description
_atom_site_fract_x
_atom_site_fract_y
_atom_site_fract_z
_atom_type_partial_charge
O1    O     O_R   0.638140 0.833910 0.163320 -0.540446
O2    O     O_R   0.361860 0.166090 0.836680 -0.540446
O3    O     O_R   0.361860 0.166090 0.663320 -0.540446
O4    O     O_R   0.638140 0.833910 0.336680 -0.540446
O5    O     O_R   0.138140 0.666090 0.336680 -0.540446
O6    O     O_R   0.861860 0.333910 0.663320 -0.540446
O7    O     O_R   0.861860 0.333910 0.836680 -0.540446
O8    O     O_R   0.138140 0.666090 0.163320 -0.540446
O9    O     O_R   0.308390 0.844930 0.336080 -0.543472
O10   O     O_R   0.691610 0.155070 0.663920 -0.543472
O11   O     O_R   0.691610 0.155070 0.836080 -0.543472
O12   O     O_R   0.308390 0.844930 0.163920 -0.543472
O13   O     O_R   0.808390 0.655070 0.163920 -0.543472
O14   O     O_R   0.191610 0.344930 0.836080 -0.543472
O15   O     O_R   0.191610 0.344930 0.663920 -0.543472
O16   O     O_R   0.808390 0.655070 0.336080 -0.543472
C1    C     C_R   0.477482 0.867205 0.365024 0.687113
C2    C     C_R   0.522518 0.132795 0.634976 0.687113
C3    C     C_R   0.522518 0.132795 0.865024 0.687113
C4    C     C_R   0.477482 0.867205 0.134976 0.687113
C5    C     C_R   0.977482 0.632795 0.134976 0.687113
C6    C     C_R   0.022518 0.367205 0.865024 0.687113
C7    C     C_R   0.022518 0.367205 0.634976 0.687113
C8    C     C_R   0.977482 0.632795 0.365024 0.687113
O17   O     O_3   0.471620 0.691320 0.250000 -0.369487
O18   O     O_3   0.528380 0.308680 0.750000 -0.369487
O19   O     O_3   0.971620 0.808680 0.250000 -0.369487
O20   O     O_3   0.028380 0.191320 0.750000 -0.369487
V1    V     V_3+5 0.196770 0.760880 0.250000 1.399831
V2    V     V_3+5 0.803230 0.239120 0.750000 1.399831
V3    V     V_3+5 0.696770 0.739120 0.250000 1.399830
V4    V     V_3+5 0.303230 0.260880 0.750000 1.399830
C9    C     C_R   0.820445 0.524943 0.467277 -0.156065
C10   C     C_R   0.179555 0.475057 0.532723 -0.156065
C11   C     C_R   0.179555 0.475057 0.967277 -0.156065
C12   C     C_R   0.820445 0.524943 0.032723 -0.156065
C13   C     C_R   0.320443 0.975059 0.032725 -0.156064
C14   C     C_R   0.679557 0.024941 0.967275 -0.156064
C15   C     C_R   0.679557 0.024941 0.532725 -0.156064
C16   C     C_R   0.320443 0.975059 0.467275 -0.156064
H1    H     H_    0.679602 0.543092 0.443140 0.116704
H2    H     H_    0.320398 0.456908 0.556859 0.116704
H3    H     H_    0.320398 0.456908 0.943141 0.116704
H4    H     H_    0.679602 0.543092 0.056859 0.116704
H5    H     H_    0.179599 0.956912 0.056862 0.116703
H6    H     H_    0.820401 0.043088 0.943138 0.116703
H7    H     H_    0.820401 0.043088 0.556862 0.116703
H8    H     H_    0.179599 0.956912 0.443138 0.116703
C17   C     C_R   0.831586 0.461381 0.532472 -0.150687
C18   C     C_R   0.168414 0.538619 0.467528 -0.150687
C19   C     C_R   0.168414 0.538619 0.032472 -0.150687
C20   C     C_R   0.831586 0.461381 0.967528 -0.150687
C21   C     C_R   0.331585 0.038621 0.967530 -0.150686
C22   C     C_R   0.668415 0.961379 0.032470 -0.150686
C23   C     C_R   0.668415 0.961379 0.467530 -0.150686
C24   C     C_R   0.331585 0.038621 0.532470 -0.150686
H9    H     H_    0.698759 0.432377 0.556369 0.118682
H10   H     H_    0.301241 0.567623 0.443631 0.118682
H11   H     H_    0.301241 0.567623 0.056369 0.118682
H12   H     H_    0.698759 0.432377 0.943631 0.118682
H13   H     H_    0.198756 0.067627 0.943634 0.118681
H14   H     H_    0.801244 0.932373 0.056366 0.118681
H15   H     H_    0.801244 0.932373 0.443634 0.118681
H16   H     H_    0.198756 0.067627 0.556366 0.118681
C25   C     C_R   0.011299 0.435545 0.566152 -0.047001
C26   C     C_R   0.988701 0.564455 0.433848 -0.047001
C27   C     C_R   0.988701 0.564455 0.066152 -0.047001
C28   C     C_R   0.011299 0.435545 0.933848 -0.047001
C29   C     C_R   0.511300 0.064455 0.933848 -0.047000
C30   C     C_R   0.488700 0.935545 0.066152 -0.047000
C31   C     C_R   0.488700 0.935545 0.433848 -0.047000
C32   C     C_R   0.511300 0.064455 0.566152 -0.047000

loop_
_geom_bond_atom_site_label_1
_geom_bond_atom_site_label_2
_ccdc_geom_bond_type
O17   V3    S    
O18   V4    S    
C16   C31   A    
O12   V1    S    
O19   V1    S    
C10   H2    S    
C21   C29   A    
C12   C27   A    
O15   V4    S    
O16   V3    S    
O11   C3    A    
C17   C25   A    
O8    V1    S    
C9    C17   A    
O1    V3    S    
C17   H9    S    
O3    C2    A    
O2    V4    S    
C20   H12   S    
C21   H13   S    
C15   C23   A    
O11   V2    S    
C16   C24   A    
C23   H15   S    
C15   C32   A    
C24   H16   S    
C11   H3    S    
C12   C20   A    
C8    C26   S    
C13   C21   A    
O15   C7    A    
C14   C29   A    
C14   C22   A    
O16   C8    A    
O7    V2    S    
C13   C30   A    
C5    C27   S    
O17   V1    S    
C4    C30   S    
C10   C25   A    
C9    C26   A    
O5    V1    S    
C2    C32   S    
C10   C18   A    
O19   V3    S    
C18   H10   S    
O20   V4    S    
C22   H14   S    
C24   C32   A    
O10   V2    S    
C22   C30   A    
O12   C4    A    
O8    C5    A    
O13   C5    A    
C19   C27   A    
C18   C26   A    
C6    C28   S    
O4    C1    A    
O9    C1    A    
O6    V2    S    
O18   V2    S    
C11   C19   A    
C12   H4    S    
C19   H11   S    
C13   H5    S    
C15   H7    S    
C16   H8    S    
O1    C4    A    
O2    C3    A    
O13   V3    S    
O14   V4    S    
C20   C28   A    
C1    C31   S    
O9    V1    S    
O7    C6    A    
C9    H1    S    
C7    C25   S    
O20   V2    S    
O14   C6    A    
O5    C8    A    
C11   C28   A    
O10   C2    A    
O6    C7    A    
O3    V4    S    
C14   H6    S    
O4    V3    S    
C3    C29   S    
C23   C31   A    
