data_mof_unit_9044.cif
_audit_creation_date              2012-12-10T16:48:08-0500
_audit_creation_method            fapswitch 2.2
_symmetry_space_group_name_H-M    P1
_symmetry_Int_Tables_number       1
_space_group_crystal_system       triclinic
_cell_length_a                    15.825188
_cell_length_b                    8.677577
_cell_length_c                    7.519565
_cell_angle_alpha                 102.943
_cell_angle_beta                  96.61586
_cell_angle_gamma                 92.505269
_cell_volume                      997.101307249

loop_
_atom_site_label
_atom_site_type_symbol
_atom_type_description
_atom_site_fract_x
_atom_site_fract_y
_atom_site_fract_z
_atom_type_partial_charge
C1    C     C_R   0.497406 0.199848 0.453276 0.849834
C2    C     C_R   0.502558 0.800148 0.546721 0.845936
C3    C     C_R   0.339895 0.499953 0.498186 0.783900
C4    C     C_R   0.660114 0.500090 0.501826 0.790190
C5    C     C_2   0.496191 0.031779 0.427228 -0.324838
C6    C     C_2   0.503724 0.968211 0.572765 -0.320920
C7    C     C_3   0.978452 0.381519 0.579110 -0.404137
C8    C     C_3   0.021619 0.624444 0.422914 -0.440320
C9    C     C_3   0.016674 0.364059 0.396412 0.628047
C10   C     C_3   0.982798 0.641208 0.605983 0.571290
C11   C     C_1   0.249923 0.501512 0.491492 -0.115343
C12   C     C_1   0.750144 0.499519 0.508741 -0.086347
C13   C     C_3   0.044155 0.524003 0.665800 0.376294
C14   C     C_3   0.956041 0.481650 0.336632 0.409494
C15   C     C_3   0.082393 0.504262 0.484515 -0.147002
C16   C     C_3   0.917922 0.500463 0.517607 -0.132217
C17   C     C_1   0.174022 0.502752 0.483866 0.108956
C18   C     C_1   0.826118 0.499662 0.516957 0.140172
Cu1   Cu    Cu3+1 0.509330 0.517380 0.684380 1.138292
Cu2   Cu    Cu3+1 0.490670 0.482620 0.315620 1.136896
H1    H     H_    0.960863 0.282728 0.642416 0.210541
H2    H     H_    0.040191 0.722298 0.359000 0.207273
H3    H     H_    0.489120 0.960038 0.287112 0.206846
H4    H     H_    0.510788 0.039951 0.712879 0.209160
N1    N     N_2   0.476600 0.456420 0.038510 0.231748
N2    N     N_2   0.523400 0.543580 0.961490 0.234702
O1    O     O_R   0.506070 0.286130 0.619780 -0.547137
O2    O     O_R   0.493930 0.713870 0.380220 -0.550843
O3    O     O_R   0.490300 0.256770 0.308360 -0.569947
O4    O     O_R   0.509700 0.743230 0.691640 -0.570574
O5    O     O_R   0.386960 0.514660 0.655680 -0.542182
O6    O     O_R   0.613040 0.485340 0.344320 -0.533187
O7    O     O_R   0.371190 0.485310 0.344260 -0.569109
O8    O     O_R   0.628810 0.514690 0.655740 -0.565913
F1    F     F_    0.034637 0.222979 0.284535 -0.620527
F2    F     F_    0.962437 0.781844 0.714931 -0.634357
O9    O     O_3   0.899510 0.453180 0.171887 -0.554304
C19   C     C_3   0.944266 0.473081 0.027805 -0.115547
H5    H     H_    0.996189 0.390691 0.010564 0.216009
H6    H     H_    0.969174 0.598388 0.048871 0.182614
H7    H     H_    0.898884 0.444763 0.899455 0.178121
O10   O     O_3   0.094147 0.536707 0.837399 -0.586483
C20   C     C_3   0.131299 0.692415 0.905813 -0.204302
H8    H     H_    0.083154 0.772985 0.961238 0.217058
H9    H     H_    0.162236 0.738557 0.800729 0.166117
H10   H     H_    0.181482 0.692003 0.021553 0.183154
F3    F     F_    0.422272 0.346990 0.922955 -0.546826
F4    F     F_    0.577707 0.653045 0.077048 -0.540282

loop_
_geom_bond_atom_site_label_1
_geom_bond_atom_site_label_2
_ccdc_geom_bond_type
C8    H2    S    
C9    C14   S    
C10   C13   S    
O9    C19   S    
C4    C12   S    
Cu1   O1    S    
N1    F3    S    
Cu1   Cu2   S    
C5    H3    S    
N2    F4    S    
C20   H8    S    
C6    H4    S    
C1    O3    A    
C9    C15   S    
Cu1   O5    S    
C10   C16   S    
C14   O9    S    
C3    O5    A    
C20   H9    S    
C4    O6    A    
C8    C14   S    
C1    C5    S    
Cu2   O7    S    
C16   C18   S    
C13   O10   S    
C19   H6    S    
C10   F2    S    
C8    C15   S    
C4    O8    A    
Cu2   O3    S    
C13   C15   S    
C5    C6    D    
C20   H10   S    
C14   C16   S    
C3    C11   S    
O10   C20   S    
C3    O7    A    
C9    F1    S    
C7    C9    S    
C7    C13   S    
C19   H5    S    
C19   H7    S    
C1    O1    A    
Cu2   O6    S    
C12   C18   T    
C15   C17   S    
Cu1   N2    S    
C11   C17   T    
C2    O4    A    
C2    O2    A    
Cu2   O2    S    
N1    N2    D    
C7    H1    S    
Cu1   O4    S    
Cu1   O8    S    
C8    C10   S    
C7    C16   S    
C2    C6    S    
Cu2   N1    S    
