data_mof_unit_10734.cif
_audit_creation_date              2012-12-10T17:44:38-0500
_audit_creation_method            fapswitch 2.2
_symmetry_space_group_name_H-M    P1
_symmetry_Int_Tables_number       1
_space_group_crystal_system       triclinic
_cell_length_a                    9.938136
_cell_length_b                    10.685613
_cell_length_c                    15.581936
_cell_angle_alpha                 91.594823
_cell_angle_beta                  67.281102
_cell_angle_gamma                 88.770995
_cell_volume                      1524.81427441

loop_
_atom_site_label
_atom_site_type_symbol
_atom_type_description
_atom_site_fract_x
_atom_site_fract_y
_atom_site_fract_z
_atom_type_partial_charge
C1    C     C_R   0.503371 0.739392 0.491046 0.894911
C2    C     C_R   0.729991 0.423385 0.033324 0.171535
C3    C     C_R   0.601031 0.495773 0.082369 0.099611
C4    C     C_R   0.407609 0.496921 0.676247 0.917365
C5    C     C_R   0.824177 0.390010 0.077567 -0.146343
C6    C     C_R   0.785762 0.421376 0.171939 -0.171643
C7    C     C_R   0.561809 0.520553 0.177511 -0.228734
C8    C     C_R   0.262847 0.900373 0.463894 0.188315
C9    C     C_R   0.126134 0.962855 0.499365 -0.170391
C10   C     C_R   0.102549 0.068494 0.558111 -0.207278
C11   C     C_R   0.220264 0.121102 0.571483 -0.136773
C12   C     C_R   0.429445 0.508478 0.907075 0.015261
C13   C     C_R   0.361711 0.064596 0.528759 0.068442
C14   C     C_R   0.376701 0.943135 0.490066 0.041842
C15   C     C_R   0.505300 0.873071 0.479903 -0.099059
C16   C     C_R   0.495658 0.260822 0.508694 0.888405
C17   C     C_R   0.628709 0.933573 0.480159 -0.204635
C18   C     C_R   0.623059 0.060813 0.495187 -0.191681
C19   C     C_R   0.490713 0.127300 0.517845 -0.092069
C20   C     C_R   0.788904 0.678175 0.612684 -0.152343
C21   C     C_R   0.826513 0.770746 0.662987 -0.195403
C22   C     C_R   0.967320 0.773272 0.659823 -0.142632
C23   C     C_R   0.308057 0.592502 0.955657 0.029464
C24   C     C_R   0.070768 0.682400 0.607040 -0.113633
C25   C     C_R   0.038223 0.590022 0.552716 0.176379
C26   C     C_R   0.893170 0.588883 0.554119 0.180032
C27   C     C_R   0.961725 0.414436 0.448679 -0.117220
C28   C     C_R   0.592151 0.496579 0.324138 0.888466
C29   C     C_R   0.104435 0.414074 0.449078 -0.086382
C30   C     C_R   0.348378 0.498777 0.778931 -0.184261
C31   C     C_R   0.651356 0.483217 0.222626 -0.056501
C32   C     C_R   0.196474 0.611575 0.922064 0.134003
C33   C     C_R   0.215908 0.561212 0.833943 0.101279
C34   C     C_R   0.535249 0.484931 0.946375 0.096880
C35   C     C_R   0.437916 0.451981 0.821774 0.065900
C36   C     C_R   0.509009 0.533957 0.037050 0.069333
C37   C     C_R   0.395154 0.623923 0.078684 -0.208936
C38   C     C_R   0.297296 0.652546 0.038784 -0.149963
C39   C     C_R   0.669868 0.420469 0.897151 -0.143889
C40   C     C_R   0.762665 0.385883 0.941033 -0.182812
H1    H     H_    0.856440 0.391039 0.206208 0.155830
H2    H     H_    0.676425 0.678352 0.623783 0.206839
H3    H     H_    0.744768 0.838820 0.706685 0.173547
H4    H     H_    0.455950 0.561102 0.219500 0.179226
H5    H     H_    0.995230 0.842642 0.701642 0.179632
H6    H     H_    0.171040 0.680608 0.616821 0.212501
H7    H     H_    0.184738 0.343712 0.407465 0.157203
H8    H     H_    0.861933 0.331465 0.901917 0.174868
H9    H     H_    0.381745 0.677375 0.141287 0.179866
H10   H     H_    0.709435 0.401659 0.823210 0.194999
H11   H     H_    0.212641 0.722297 0.075016 0.189695
H12   H     H_    0.925449 0.337461 0.039809 0.153980
H13   H     H_    0.729887 0.882697 0.469249 0.177145
H14   H     H_    0.038530 0.930520 0.480303 0.165591
H15   H     H_    0.995458 0.114351 0.588099 0.168317
H16   H     H_    0.200508 0.206606 0.614098 0.177023
H17   H     H_    0.722599 0.106848 0.488376 0.171596
H18   H     H_    0.935270 0.344505 0.406663 0.141037
I1    I     I_    0.299573 0.778126 0.347037 -0.419232
I2    I     I_    0.997735 0.715742 0.003593 -0.337721
I3    I     I_    0.033421 0.548890 0.796814 -0.396500
I4    I     I_    0.525230 0.265754 0.771881 -0.403357
N1    N     N_R   0.856800 0.501200 0.500850 -0.115558
N2    N     N_R   0.142390 0.501280 0.500880 -0.112186
O1    O     O_R   0.385310 0.683220 0.500000 -0.624946
O2    O     O_R   0.614640 0.683250 0.500010 -0.644227
O3    O     O_R   0.319840 0.499980 0.632240 -0.606937
O4    O     O_R   0.549160 0.500000 0.632250 -0.613316
O5    O     O_R   0.385360 0.316750 0.499990 -0.626734
O6    O     O_R   0.614690 0.316780 0.500000 -0.612586
O7    O     O_R   0.450840 0.500000 0.367750 -0.595102
O8    O     O_R   0.680160 0.500020 0.367760 -0.610429
Zn1   Zn    Zn3+2 0.346880 0.499980 0.499990 0.961148
Zn2   Zn    Zn3+2 0.653120 0.500020 0.500010 0.953943

loop_
_geom_bond_atom_site_label_1
_geom_bond_atom_site_label_2
_ccdc_geom_bond_type
C27   C29   A    
C12   C23   A    
C30   C35   A    
C29   H7    S    
C36   C37   A    
C3    C7    A    
C8    I1    S    
C5    C6    A    
O4    Zn2   S    
O2    Zn2   S    
O1    Zn1   S    
C40   H8    S    
C18   C19   A    
C21   H3    S    
C8    C9    A    
C6    H1    S    
O6    Zn2   S    
C1    O1    A    
N2    Zn1   S    
C5    H12   S    
O5    Zn1   S    
C1    C15   S    
C9    C10   A    
C6    C31   A    
C29   N2    A    
C13   C14   A    
C28   O8    A    
C1    O2    A    
C7    C31   A    
C13   C19   A    
C34   C39   A    
C16   O6    A    
C24   C25   A    
O8    Zn2   S    
C39   C40   A    
C4    O4    A    
C38   H11   S    
C25   C26   A    
C25   N2    A    
C26   N1    A    
C37   C38   A    
C37   H9    S    
C18   H17   S    
C39   H10   S    
C17   C18   A    
C7    H4    S    
C12   C35   A    
C10   H15   S    
C27   N1    A    
O3    Zn1   S    
C22   C24   A    
C2    C5    A    
C32   I2    S    
C12   C34   A    
C17   H13   S    
O7    Zn1   S    
C15   C17   A    
C8    C14   A    
C30   C33   A    
C28   C31   S    
C16   O5    A    
C27   H18   S    
C4    O3    A    
C20   H2    S    
N1    Zn2   S    
C23   C38   A    
C24   H6    S    
C23   C32   A    
C2    C3    A    
C32   C33   A    
C11   C13   A    
C20   C26   A    
C3    C36   A    
C16   C19   S    
C35   I4    S    
C34   C36   A    
C10   C11   A    
C28   O7    A    
C2    C40   A    
C22   H5    S    
C20   C21   A    
C33   I3    S    
C14   C15   A    
C9    H14   S    
C21   C22   A    
C4    C30   S    
C11   H16   S    
