data_mof_unit_48894.cif
_audit_creation_date              2013-03-05T15:50:31-0500
_audit_creation_method            fapswitch 2.2
_symmetry_space_group_name_H-M    P1
_symmetry_Int_Tables_number       1
_space_group_crystal_system       triclinic
_cell_length_a                    19.101682
_cell_length_b                    7.302171
_cell_length_c                    17.851446
_cell_angle_alpha                 91.014726
_cell_angle_beta                  108.434026
_cell_angle_gamma                 89.540309
_cell_volume                      2361.84322495

loop_
_atom_site_label
_atom_site_type_symbol
_atom_site_description
_atom_site_fract_x
_atom_site_fract_y
_atom_site_fract_z
_atom_type_partial_charge
O1    O     O_R   0.562310 0.505770 0.439670 -0.588511
O2    O     O_R   0.437690 0.005770 0.560330 -0.589611
O3    O     O_R   0.411650 0.169150 0.405330 -0.526498
O4    O     O_R   0.588350 0.669150 0.594670 -0.521341
C1    C     C_R   0.386509 0.346722 0.381128 0.981401
C2    C     C_R   0.612156 0.848295 0.620083 0.988319
O5    O     O_R   0.560140 0.175610 0.430010 -0.585046
O6    O     O_R   0.439860 0.675610 0.569990 -0.593322
O7    O     O_R   0.587240 0.012100 0.585200 -0.549062
O8    O     O_R   0.412760 0.512100 0.414800 -0.547645
C3    C     C_R   0.581288 0.343216 0.415766 1.027252
C4    C     C_R   0.418170 0.845679 0.583315 1.038759
O9    O     O_3   0.508720 0.341420 0.550890 -0.234009
O10   O     O_3   0.491280 0.841420 0.449110 -0.234138
V1    V     V_3+5 0.498380 0.063930 0.490560 1.360271
V2    V     V_3+5 0.501620 0.563930 0.509440 1.354958
C5    C     C_R   0.181982 0.769280 0.874794 -0.081512
C6    C     C_R   0.817390 0.555338 0.132591 -0.083982
C7    C     C_R   0.131668 0.915455 0.866625 -0.165303
C8    C     C_R   0.870469 0.418532 0.135668 -0.159767
C9    C     C_R   0.130590 0.053613 0.812251 -0.077172
C10   C     C_R   0.875136 0.268485 0.185397 -0.076200
C11   C     C_R   0.176883 0.043549 0.764723 0.130329
C12   C     C_R   0.828164 0.254773 0.231843 0.140454
C13   C     C_R   0.225854 0.894703 0.771978 0.053953
C14   C     C_R   0.773891 0.389778 0.227156 0.059653
C15   C     C_R   0.230052 0.758868 0.828839 -0.021313
C16   C     C_R   0.767588 0.540686 0.176421 -0.023908
C17   C     C_R   0.174292 0.179631 0.709482 -0.255509
C18   C     C_R   0.834757 0.107103 0.282734 -0.257107
C19   C     C_R   0.218980 0.169455 0.660191 0.319598
C20   C     C_R   0.787813 0.089141 0.329045 0.334205
C21   C     C_R   0.269450 0.021620 0.668003 -0.016818
C22   C     C_R   0.732363 0.223443 0.324463 0.004369
C23   C     C_R   0.271722 0.883280 0.723369 0.051900
C24   C     C_R   0.725930 0.373778 0.273241 0.041536
C25   C     C_R   0.320483 0.733471 0.730792 0.137530
C26   C     C_R   0.672019 0.510054 0.268724 0.120844
C27   C     C_R   0.324633 0.600625 0.787141 -0.231612
C28   C     C_R   0.665629 0.657883 0.218177 -0.181762
C29   C     C_R   0.282080 0.615317 0.837781 0.293847
C30   C     C_R   0.711976 0.673667 0.171525 0.290510
C31   C     C_R   0.319147 0.009959 0.623821 -0.100303
C32   C     C_R   0.684640 0.215728 0.371084 -0.106910
C33   C     C_R   0.367134 0.858956 0.630829 -0.153953
C34   C     C_R   0.630605 0.351041 0.366024 -0.188270
C35   C     C_R   0.366561 0.720564 0.683749 -0.066370
C36   C     C_R   0.624999 0.497801 0.314856 -0.013456
H1    H     H_    0.092562 0.167694 0.805730 0.149785
H2    H     H_    0.916201 0.162883 0.188713 0.142248
C37   C     C_3   0.748256 0.811015 0.850325 0.293917
C38   C     C_3   0.246920 0.291436 0.154538 0.283324
C39   C     C_3   0.672652 0.779678 0.774529 0.337541
C40   C     C_3   0.324669 0.274499 0.227567 0.334060
C41   C     C_3   0.819832 0.795786 0.745905 0.233442
C42   C     C_3   0.175537 0.302774 0.258884 0.208034
C43   C     C_3   0.776953 0.098342 0.787536 -0.436485
C44   C     C_3   0.219840 0.595919 0.220594 -0.413239
C45   C     C_3   0.809130 0.907087 0.818157 -0.442131
C46   C     C_3   0.187661 0.404929 0.186187 -0.394533
C47   C     C_3   0.680453 0.876162 0.696442 -0.479306
C48   C     C_3   0.316741 0.372118 0.306599 -0.476083
C49   C     C_3   0.747273 0.790792 0.675299 -0.427204
C50   C     C_3   0.249865 0.290142 0.327780 -0.426540
C51   C     C_3   0.700544 0.086796 0.718809 0.534242
C52   C     C_3   0.296850 0.583073 0.286729 0.516266
O11   O     O_R   0.087220 0.271820 0.085230 -0.582471
O12   O     O_R   0.912780 0.771820 0.914770 -0.571053
O13   O     O_R   0.939860 0.595540 0.069990 -0.579384
O14   O     O_R   0.060140 0.095540 0.930010 -0.586158
C53   C     C_R   0.919414 0.427685 0.085210 1.007875
C54   C     C_R   0.081258 0.925902 0.915620 1.001967
O15   O     O_R   0.088340 0.601930 0.094680 -0.545828
O16   O     O_R   0.911660 0.101930 0.905320 -0.558969
O17   O     O_R   0.062310 0.765410 0.939660 -0.594902
O18   O     O_R   0.937690 0.265410 0.060340 -0.583202
C55   C     C_R   0.114970 0.430674 0.117628 1.061214
C56   C     C_R   0.883786 0.930646 0.884170 1.091841
O19   O     O_3   0.991270 0.429630 0.949130 -0.279486
O20   O     O_3   0.008730 0.929630 0.050870 -0.265854
V3    V     V_3+5 0.001620 0.707150 0.009440 1.322362
V4    V     V_3+5 0.998380 0.207150 0.990560 1.309033
H3    H     H_    0.183423 0.663483 0.916938 0.190105
H4    H     H_    0.814554 0.671404 0.094918 0.194428
N1    N     N_R   0.741437 0.933036 0.916059 0.244058
O21   O     O_R   0.797456 0.946046 0.980503 -0.398155
O22   O     O_R   0.680657 0.009828 0.918136 -0.205745
N2    N     N_R   0.255866 0.388289 0.084812 0.254656
O23   O     O_R   0.267062 0.292856 0.027408 -0.239651
O24   O     O_R   0.232794 0.554751 0.067417 -0.374013
N3    N     N_R   0.605561 0.835202 0.794506 0.265632
O25   O     O_R   0.545955 0.879376 0.738413 -0.400913
O26   O     O_R   0.594813 0.757780 0.855217 -0.211751
N4    N     N_R   0.388539 0.346230 0.206081 0.260627
O27   O     O_R   0.450521 0.374974 0.262032 -0.408465
O28   O     O_R   0.394766 0.304787 0.137311 -0.203998
N5    N     N_R   0.661444 0.585484 0.754320 0.275794
O29   O     O_R   0.594236 0.523635 0.727728 -0.251309
O30   O     O_R   0.715322 0.482850 0.748972 -0.399922
N6    N     N_R   0.342281 0.082622 0.246304 0.275545
O31   O     O_R   0.407117 0.017590 0.250740 -0.231187
O32   O     O_R   0.293943 0.977066 0.260248 -0.396014
H5    H     H_    0.833925 0.652875 0.763855 0.174344
H6    H     H_    0.157337 0.161225 0.243016 0.171787
H7    H     H_    0.735974 0.649531 0.651105 0.242272
H8    H     H_    0.259891 0.148210 0.349158 0.244504
H9    H     H_    0.817865 0.175462 0.768538 0.267844
H10   H     H_    0.179359 0.666756 0.243665 0.249103
H11   H     H_    0.774233 0.183583 0.838321 0.256039
H12   H     H_    0.220212 0.694989 0.175251 0.283067
N7    N     N_R   0.640704 0.172521 0.744780 0.269168
O33   O     O_R   0.652812 0.241053 0.815394 -0.249990
O34   O     O_R   0.573973 0.188669 0.696442 -0.265529
N8    N     N_R   0.354706 0.665205 0.257981 0.269926
O35   O     O_R   0.343091 0.696185 0.183398 -0.242843
O36   O     O_R   0.420785 0.697191 0.305532 -0.270690
N9    N     N_R   0.708863 0.188930 0.650177 0.238321
O37   O     O_R   0.768206 0.173228 0.629452 -0.381615
O38   O     O_R   0.661001 0.312357 0.614470 -0.319820
N10   N     N_R   0.290875 0.688931 0.357205 0.236355
O39   O     O_R   0.233812 0.672205 0.381576 -0.369675
O40   O     O_R   0.338985 0.813374 0.392355 -0.323140
N11   N     N_R   0.880797 0.859438 0.718830 0.249141
O41   O     O_R   0.899290 0.761470 0.666407 -0.310167
O42   O     O_R   0.918738 0.006231 0.747276 -0.406209
N12   N     N_R   0.117745 0.383295 0.288221 0.254331
O43   O     O_R   0.104291 0.307462 0.347661 -0.283809
O44   O     O_R   0.071911 0.507369 0.249429 -0.419272
H13   H     H_    0.754483 0.859532 0.623553 0.232710
H14   H     H_    0.245198 0.358179 0.381789 0.244890
H15   H     H_    0.135912 0.292829 0.703288 0.186728
H16   H     H_    0.876420 0.003187 0.285950 0.182091
N13   N     N_R   0.210275 0.306951 0.601191 0.240614
O45   O     O_R   0.201625 0.258657 0.528307 -0.333176
O46   O     O_R   0.195906 0.475456 0.616415 -0.373726
N14   N     N_R   0.798394 0.934859 0.380561 0.240597
O47   O     O_R   0.742573 0.835942 0.382072 -0.432602
O48   O     O_R   0.864775 0.875169 0.416227 -0.305899
H17   H     H_    0.321298 0.117841 0.583956 0.165646
H18   H     H_    0.690223 0.109077 0.413701 0.186832
H19   H     H_    0.403928 0.604967 0.690324 0.160758
H20   H     H_    0.583663 0.603136 0.310806 0.172987
H21   H     H_    0.364209 0.489555 0.794858 0.189546
H22   H     H_    0.623269 0.760644 0.213759 0.194249
N15   N     N_R   0.299142 0.496363 0.903622 0.254473
O49   O     O_R   0.307341 0.321897 0.892538 -0.332018
O50   O     O_R   0.329362 0.567700 0.973622 -0.217508
N16   N     N_R   0.698670 0.819604 0.116200 0.248302
O51   O     O_R   0.681856 0.779537 0.041427 -0.233534
O52   O     O_R   0.684869 0.983833 0.137394 -0.359232
N17   N     N_R   0.770795 0.630706 0.888723 0.255984
O53   O     O_R   0.821976 0.526658 0.876888 -0.390271
O54   O     O_R   0.732092 0.563336 0.929993 -0.268392
N18   N     N_R   0.222231 0.100502 0.124584 0.247891
O55   O     O_R   0.167797 0.015727 0.137593 -0.403063
O56   O     O_R   0.263294 0.001164 0.093528 -0.241642

loop_
_geom_bond_atom_site_label_1
_geom_bond_atom_site_label_2
_geom_bond_distance
_ccdc_geom_bond_type
C26   C28   1.398964 A    
N12   O43   1.301596 A    
C41   C45   1.578884 S    
N2    O24   1.298613 A    
N7    O33   1.299255 A    
O1    C3    1.339943 A    
C19   N13   1.438403 S    
C30   N16   1.431721 S    
C37   N1    1.498539 S    
C2    O7    1.369244 A    
C9    H1    1.084163 S    
N5    O29   1.301430 A    
N11   O41   1.301402 A    
C27   C29   1.396175 A    
N1    O21   1.302590 A    
O5    C3    1.345232 A    
O12   V3    2.039741 S    
C11   C17   1.401922 A    
C2    C47   1.572021 S    
C23   C25   1.411570 A    
N16   O52   1.301043 A    
N9    O38   1.301168 A    
C53   O18   1.340093 A    
O20   V3    1.761298 S    
C49   H13   1.105529 S    
C43   C45   1.558133 S    
O2    C4    1.339669 A    
C44   C46   1.563578 S    
C41   H5    1.103158 S    
C6    C8    1.406932 A    
C47   C49   1.563254 S    
O13   C53   1.347328 A    
O15   C55   1.366223 A    
C51   N7    1.492217 S    
C48   C50   1.568080 S    
C38   C46   1.630990 S    
N11   O42   1.300969 A    
N5    O30   1.295055 A    
C39   C47   1.621590 S    
C44   C52   1.571588 S    
C43   H11   1.105125 S    
N10   O40   1.300967 A    
C41   C49   1.550912 S    
C39   N3    1.486440 S    
C6    H4    1.081640 S    
N17   O53   1.300275 A    
C42   C50   1.560301 S    
C8    C53   1.491848 S    
C31   H17   1.080551 S    
C42   N12   1.477473 S    
C25   C35   1.397181 A    
N18   O56   1.303992 A    
C10   H2    1.084420 S    
C33   C35   1.397979 A    
C37   N17   1.491650 S    
O6    V2    1.996227 S    
C52   N10   1.499422 S    
C40   N6    1.458097 S    
C7    C54   1.492346 S    
O16   V4    2.008650 S    
C54   O17   1.345904 A    
C45   C56   1.544633 S    
O15   V3    2.019071 S    
N15   O50   1.300635 A    
C38   C40   1.642804 S    
N15   O49   1.301606 A    
C41   N11   1.475939 S    
N1    O22   1.296067 A    
O12   C56   1.330793 A    
C25   C27   1.393588 A    
C34   C36   1.401874 A    
C46   C55   1.546102 S    
C48   C52   1.602451 S    
C5    C15   1.412437 A    
C38   N2    1.498775 S    
C6    C16   1.415596 A    
N16   O51   1.298857 A    
C42   H6    1.096623 S    
N14   O48   1.301360 A    
O18   V4    1.990781 S    
N3    O25   1.299080 A    
C20   N14   1.439197 S    
O17   V3    2.004143 S    
O5    V1    2.019471 S    
C40   C48   1.618418 S    
C39   N5    1.457650 S    
C42   C46   1.587881 S    
C37   C39   1.651447 S    
C20   C22   1.421867 A    
O4    V2    2.008676 S    
O11   C55   1.324103 A    
N3    O26   1.304093 A    
C15   C29   1.414498 A    
O6    C4    1.346886 A    
C19   C21   1.420490 A    
C36   H20   1.084631 S    
N7    O34   1.299577 A    
O1    V2    1.990497 S    
N4    O28   1.300564 A    
O2    V1    2.003827 S    
C31   C33   1.409910 A    
N18   O55   1.298614 A    
C13   C23   1.415858 A    
C14   C24   1.418281 A    
C43   H9    1.106478 S    
C27   H21   1.084681 S    
C9    C11   1.406574 A    
N13   O45   1.301229 A    
C10   C12   1.406199 A    
O4    C2    1.407800 A    
C37   C45   1.619769 S    
C8    C10   1.406894 A    
C5    C7    1.408793 A    
C24   C26   1.411065 A    
O3    V1    2.019091 S    
N10   O39   1.302401 A    
C50   H8    1.105019 S    
N6    O32   1.293131 A    
C22   C32   1.417427 A    
N12   O44   1.301150 A    
C52   N8    1.491519 S    
C7    C9    1.407865 A    
C44   H12   1.096839 S    
C26   C36   1.401624 A    
C12   C14   1.408999 A    
C43   C51   1.583813 S    
C28   C30   1.400702 A    
O3    C1    1.406142 A    
O19   V4    1.783313 S    
N8    O36   1.299386 A    
N8    O35   1.302363 A    
C4    C33   1.482472 S    
C13   C15   1.415450 A    
C35   H19   1.084718 S    
C14   C16   1.418931 A    
C28   H22   1.084434 S    
O7    V1    2.019249 S    
C1    O8    1.365458 A    
C17   C19   1.407176 A    
O8    V2    2.013129 S    
N9    O37   1.302519 A    
C18   C20   1.406892 A    
C17   H15   1.084059 S    
C18   H16   1.084163 S    
C16   C30   1.416596 A    
N6    O31   1.302102 A    
C21   C23   1.416590 A    
C22   C24   1.420789 A    
C1    C48   1.569722 S    
C44   H10   1.105681 S    
N17   O54   1.301718 A    
N4    O27   1.300805 A    
O14   V4    1.996031 S    
C12   C18   1.401467 A    
C40   N4    1.491050 S    
O13   V3    2.019253 S    
C49   H7    1.107244 S    
C50   H14   1.105008 S    
C47   C51   1.601001 S    
C11   C13   1.408980 A    
C29   N15   1.425314 S    
N2    O23   1.300911 A    
O11   V4    2.032175 S    
C32   H18   1.079361 S    
O16   C56   1.362804 A    
O9    V2    1.783671 S    
N13   O46   1.301200 A    
C51   N9    1.496649 S    
O10   V1    1.761644 S    
N14   O47   1.300246 A    
C3    C34   1.486901 S    
O14   C54   1.345137 A    
C5    H3    1.082009 S    
C21   C31   1.414330 A    
C38   N18   1.508932 S    
C32   C34   1.406293 A    
