data_mof_unit_44430.cif
_audit_creation_date              2012-12-10T17:09:55-0500
_audit_creation_method            fapswitch 2.2
_symmetry_space_group_name_H-M    P1
_symmetry_Int_Tables_number       1
_space_group_crystal_system       triclinic
_cell_length_a                    10.836944
_cell_length_b                    13.100038
_cell_length_c                    11.726441
_cell_angle_alpha                 99.424364
_cell_angle_beta                  93.568346
_cell_angle_gamma                 91.63742
_cell_volume                      1637.81245357

loop_
_atom_site_label
_atom_site_type_symbol
_atom_type_description
_atom_site_fract_x
_atom_site_fract_y
_atom_site_fract_z
_atom_type_partial_charge
C1    C     C_R   0.504987 0.299382 0.479710 0.890291
C2    C     C_R   0.068583 0.514527 0.610603 0.055438
C3    C     C_R   0.129117 0.522179 0.508104 -0.099615
C4    C     C_R   0.057789 0.526163 0.405190 -0.230499
C5    C     C_R   0.929960 0.515676 0.401820 -0.222987
C6    C     C_R   0.872297 0.490701 0.497848 -0.101107
C7    C     C_R   0.498831 0.813138 0.532819 -0.309099
C8    C     C_R   0.516349 0.186236 0.471069 -0.268953
C9    C     C_R   0.531796 0.017533 0.353244 -0.216388
C10   C     C_R   0.524930 0.124171 0.361533 0.428352
C11   C     C_R   0.520424 0.138470 0.572032 0.290908
C12   C     C_R   0.263038 0.510092 0.502414 0.779357
C13   C     C_R   0.505074 0.030141 0.560029 -0.145186
C14   C     C_R   0.522028 0.970036 0.450923 -0.129699
C15   C     C_R   0.531463 0.862834 0.440857 0.418260
C16   C     C_R   0.460859 0.871561 0.635444 0.327200
C17   C     C_R   0.473845 0.980207 0.653604 0.422817
C18   C     C_R   0.414978 0.378272 0.021485 0.317430
C19   C     C_R   0.411592 0.397212 0.144221 0.582002
C20   C     C_R   0.539777 0.549260 0.156769 -0.046665
C21   C     C_R   0.535243 0.538793 0.034603 -0.102376
C22   C     C_R   0.466971 0.455786 0.965949 -0.140725
C23   C     C_R   0.500685 0.700362 0.520895 0.883482
C24   C     C_R   0.455119 0.451736 0.843115 0.475527
C25   C     C_R   0.599396 0.594135 0.858412 0.438929
C26   C     C_R   0.602334 0.607018 0.979835 -0.287370
C27   C     C_R   0.737613 0.494406 0.498850 0.817049
C28   C     C_R   0.125086 0.539323 0.724235 -0.120965
C29   C     C_R   0.069141 0.507218 0.817274 -0.208297
C30   C     C_R   0.960652 0.445530 0.796993 -0.168666
C31   C     C_R   0.900661 0.426449 0.686135 0.543493
C32   C     C_R   0.945075 0.477603 0.598240 -0.015475
Cu1   Cu    Cu3+1 0.509250 0.507730 0.615930 1.065835
Cu2   Cu    Cu3+1 0.490750 0.492270 0.384070 0.991128
H1    H     H_    0.100659 0.538802 0.327556 0.155008
H2    H     H_    0.660127 0.668793 0.031251 0.170835
H3    H     H_    0.594778 0.611561 0.209602 0.188061
H4    H     H_    0.211099 0.584317 0.743018 0.169732
H5    H     H_    0.114270 0.524434 0.903601 0.153129
H6    H     H_    0.924565 0.410860 0.866396 0.155498
H7    H     H_    0.876570 0.525891 0.323551 0.162209
H8    H     H_    0.540476 0.971797 0.268530 0.201729
N1    N     N_R   0.523180 0.519350 0.790130 -0.230399
N2    N     N_R   0.476820 0.480650 0.209890 -0.248864
O1    O     O_R   0.506570 0.354460 0.582000 -0.501925
O2    O     O_R   0.490940 0.341410 0.386200 -0.498982
O3    O     O_R   0.327470 0.506530 0.597920 -0.568440
O4    O     O_R   0.311840 0.493480 0.402120 -0.589696
O5    O     O_R   0.509060 0.658590 0.613800 -0.518699
O6    O     O_R   0.493430 0.645540 0.418000 -0.561702
O7    O     O_R   0.688160 0.506520 0.597880 -0.519086
O8    O     O_R   0.672530 0.493470 0.402080 -0.618157
O9    O     O_3   0.434733 0.037572 0.754421 -0.550048
C33   C     C_3   0.504794 0.015985 0.853187 -0.122524
H9    H     H_    0.455767 0.956166 0.892251 0.186630
H10   H     H_    0.513056 0.087165 0.919387 0.213598
H11   H     H_    0.600805 0.992603 0.835291 0.145154
O10   O     O_3   0.524446 0.166621 0.261035 -0.519922
C34   C     C_3   0.647810 0.180594 0.233009 -0.264167
H12   H     H_    0.692318 0.105024 0.211109 0.133099
H13   H     H_    0.703290 0.231624 0.304452 0.135192
H14   H     H_    0.647372 0.219080 0.155449 0.201563
Br1   Br    Br    0.582340 0.213092 0.722774 -0.399199
Br2   Br    Br    0.327555 0.361264 0.754238 -0.470678
Br3   Br    Br    0.708590 0.685091 0.795945 -0.520259
O11   O     O_3   0.406101 0.277350 0.961078 -0.522981
C35   C     C_3   0.286594 0.231453 0.959007 -0.157345
H15   H     H_    0.212014 0.288484 0.962274 0.120856
H16   H     H_    0.282775 0.183373 0.028312 0.181766
H17   H     H_    0.269138 0.177245 0.876016 0.222305
O12   O     O_3   0.354337 0.324468 0.198472 -0.514103
C36   C     C_3   0.227631 0.345808 0.208882 -0.262748
H18   H     H_    0.203030 0.337184 0.297232 0.202349
H19   H     H_    0.167956 0.286995 0.150748 0.122496
H20   H     H_    0.201854 0.424058 0.191974 0.111417
O13   O     O_3   0.807552 0.350111 0.662086 -0.543323
C37   C     C_3   0.853346 0.263889 0.590230 -0.315370
H21   H     H_    0.868446 0.281095 0.502332 0.131110
H22   H     H_    0.784382 0.198508 0.578447 0.201430
H23   H     H_    0.940074 0.237014 0.629857 0.170776
O14   O     O_3   0.569927 0.806586 0.339605 -0.562686
C38   C     C_3   0.700298 0.804394 0.349545 -0.331115
H24   H     H_    0.732288 0.760678 0.418935 0.166685
H25   H     H_    0.744159 0.883811 0.365674 0.159135
H26   H     H_    0.732350 0.764084 0.266609 0.171350
O15   O     O_3   0.411760 0.822705 0.719419 -0.545850
C39   C     C_3   0.282411 0.811247 0.696104 -0.273548
H27   H     H_    0.239476 0.887362 0.695137 0.175076
H28   H     H_    0.242350 0.776397 0.766248 0.178454
H29   H     H_    0.258083 0.758241 0.612901 0.131747

loop_
_geom_bond_atom_site_label_1
_geom_bond_atom_site_label_2
_ccdc_geom_bond_type
C6    C32   A    
C21   C26   A    
C1    C8    S    
Cu1   O1    S    
C19   O12   S    
C12   O4    A    
C25   N1    A    
O14   C38   S    
C15   O14   S    
C37   H21   S    
C27   O8    A    
C9    H8    S    
C28   C29   A    
C10   O10   S    
C11   Br1   S    
C36   H20   S    
C30   C31   A    
C1    O2    A    
C23   O5    A    
Cu1   O5    S    
C2    C32   A    
C18   C19   A    
C3    C12   S    
C31   C32   A    
C16   C17   A    
Cu2   O2    S    
C9    C10   A    
C7    C15   A    
O11   C35   S    
C4    H1    S    
C34   H12   S    
C24   Br2   S    
C13   C14   A    
C16   O15   S    
C12   O3    A    
C20   N2    A    
C27   O7    A    
C37   H22   S    
C33   H10   S    
Cu2   O6    S    
C34   H13   S    
C35   H15   S    
Cu1   N1    S    
C25   Br3   S    
O13   C37   S    
C36   H19   S    
O15   C39   S    
C4    C5    A    
C23   O6    A    
C25   C26   A    
O9    C33   S    
C35   H16   S    
C9    C14   A    
C29   C30   A    
C6    C27   S    
C28   H4    S    
C29   H5    S    
Cu1   Cu2   S    
C30   H6    S    
C26   H2    S    
C7    C16   A    
C38   H25   S    
C39   H28   S    
Cu1   O3    S    
C22   C24   A    
Cu1   O7    S    
C3    C4    A    
C17   O9    S    
C19   N2    A    
C37   H23   S    
Cu2   N2    S    
C5    H7    S    
C33   H9    S    
C34   H14   S    
C18   C22   A    
C36   H18   S    
C18   O11   S    
C38   H26   S    
Cu2   O8    S    
C13   C17   A    
C35   H17   S    
C2    C3    A    
O10   C34   S    
O12   C36   S    
C20   H3    S    
C11   C13   A    
C1    O1    A    
C31   O13   S    
C5    C6    A    
C8    C11   A    
C7    C23   S    
Cu2   O4    S    
C20   C21   A    
C39   H27   S    
C8    C10   A    
C38   H24   S    
C39   H29   S    
C24   N1    A    
C14   C15   A    
C2    C28   A    
C21   C22   A    
C33   H11   S    
