data_mof_unit_46840.cif
_audit_creation_date              2012-12-10T17:31:51-0500
_audit_creation_method            fapswitch 2.2
_symmetry_space_group_name_H-M    P1
_symmetry_Int_Tables_number       1
_space_group_crystal_system       triclinic
_cell_length_a                    12.066455
_cell_length_b                    11.523788
_cell_length_c                    12.766072
_cell_angle_alpha                 90.529756
_cell_angle_beta                  94.902339
_cell_angle_gamma                 86.923294
_cell_volume                      1766.07598305

loop_
_atom_site_label
_atom_site_type_symbol
_atom_type_description
_atom_site_fract_x
_atom_site_fract_y
_atom_site_fract_z
_atom_type_partial_charge
C1    C     C_R   0.476629 0.504878 0.299968 0.935724
C2    C     C_R   0.978439 0.533563 0.540743 0.019289
C3    C     C_R   0.499309 0.282169 0.499834 0.995726
C4    C     C_R   0.500724 0.717825 0.500542 0.939842
C5    C     C_1   0.498295 0.161692 0.500174 -0.093178
C6    C     C_1   0.501764 0.838287 0.500937 -0.049864
C7    C     C_1   0.499133 0.059391 0.500543 0.044060
C8    C     C_1   0.500923 0.940590 0.500905 0.076730
C9    C     C_R   0.542709 0.495942 0.813527 -0.187765
C10   C     C_R   0.461114 0.524982 0.189057 -0.168880
C11   C     C_R   0.462635 0.666206 0.049240 -0.192236
C12   C     C_R   0.523654 0.497434 0.700507 0.939954
C13   C     C_R   0.600950 0.386314 0.971050 -0.096102
C14   C     C_R   0.445244 0.640657 0.153836 -0.074421
C15   C     C_R   0.606332 0.402710 0.863075 -0.126497
C16   C     C_R   0.496241 0.435239 0.123612 -0.087647
C17   C     C_R   0.492805 0.585529 0.872021 -0.110479
C18   C     C_R   0.531484 0.464167 0.025929 0.065112
C19   C     C_R   0.496422 0.574171 0.981991 0.002798
C20   C     C_2   0.426608 0.682724 0.816275 0.915519
C21   C     C_2   0.482264 0.311404 0.151604 0.912205
C22   C     C_2   0.673413 0.319551 0.801559 1.027737
C23   C     C_R   0.052785 0.594230 0.609729 -0.237630
C24   C     C_2   0.414465 0.734956 0.228018 0.915020
C25   C     C_2   0.460091 0.790393 0.016247 1.030796
C26   C     C_2   0.673287 0.294197 0.028239 0.969054
C27   C     C_2   0.815013 0.607456 0.635140 0.940592
C28   C     C_2   0.185005 0.393461 0.364285 0.942278
C29   C     C_R   0.947152 0.405920 0.390041 -0.243545
C30   C     C_R   0.166847 0.586641 0.597407 0.043021
C31   C     C_R   0.833054 0.413511 0.402368 0.044809
C32   C     C_R   0.138168 0.461452 0.449787 0.077313
C33   C     C_R   0.861841 0.538647 0.550105 0.070138
C34   C     C_R   0.021545 0.466421 0.459155 0.015618
H1    H     H_    0.776615 0.367062 0.348863 0.184750
H2    H     H_    0.775939 0.251401 0.156795 0.353723
H3    H     H_    0.785511 0.616109 0.788159 0.351938
H4    H     H_    0.215360 0.386644 0.211448 0.356203
H5    H     H_    0.223193 0.633308 0.650567 0.167669
H6    H     H_    0.023832 0.647529 0.673161 0.178962
H7    H     H_    0.976103 0.352809 0.326485 0.176335
H8    H     H_    0.280129 0.775894 0.795977 0.356129
H9    H     H_    0.499755 0.184854 0.260777 0.360145
H10   H     H_    0.674656 0.193942 0.690808 0.352067
H11   H     H_    0.303579 0.799690 0.325798 0.347337
H12   H     H_    0.617112 0.777516 0.971964 0.311146
N1    N     N_R   0.792200 0.479100 0.480660 -0.151493
N2    N     N_R   0.207800 0.520900 0.519340 -0.145646
O1    O     O_R   0.578300 0.494420 0.341180 -0.601743
O2    O     O_R   0.315978 0.707157 0.837538 -0.772126
O3    O     O_2   0.442874 0.245252 0.084564 -0.549085
O4    O     O_R   0.513548 0.270238 0.253021 -0.808398
O5    O     O_2   0.774930 0.313472 0.817388 -0.550990
O6    O     O_R   0.620154 0.247344 0.726996 -0.798826
O7    O     O_2   0.474504 0.816507 0.244499 -0.623484
O8    O     O_R   0.316306 0.730228 0.278172 -0.731635
O9    O     O_2   0.377460 0.853972 0.026769 -0.488044
O10   O     O_R   0.551525 0.835994 0.973865 -0.702704
O11   O     O_2   0.681635 0.195714 0.992169 -0.535448
O12   O     O_R   0.421700 0.505580 0.658820 -0.616724
O13   O     O_R   0.730476 0.320726 0.124682 -0.801953
O14   O     O_2   0.778577 0.707157 0.618610 -0.594939
O15   O     O_R   0.819064 0.560523 0.735994 -0.763768
O16   O     O_2   0.221008 0.293457 0.379944 -0.605396
O17   O     O_R   0.181864 0.441771 0.264011 -0.753249
O18   O     O_R   0.390690 0.507830 0.353590 -0.581455
O19   O     O_R   0.609310 0.492170 0.646410 -0.612274
O20   O     O_R   0.593810 0.327740 0.493800 -0.610493
O21   O     O_R   0.406190 0.672260 0.506200 -0.619566
O22   O     O_R   0.406190 0.341150 0.506220 -0.586488
O23   O     O_R   0.593810 0.658850 0.493780 -0.589199
O24   O     O_2   0.468757 0.740486 0.751869 -0.615183
Zn1   Zn    Zn3+2 0.625270 0.491050 0.491710 1.025818
Zn2   Zn    Zn3+2 0.374730 0.508950 0.508290 1.032998

loop_
_geom_bond_atom_site_label_1
_geom_bond_atom_site_label_2
_ccdc_geom_bond_type
O22   Zn2   S    
C20   O2    S    
C32   C34   A    
C16   C21   S    
O19   Zn1   S    
C27   O14   D    
H10   O6    S    
C24   O8    S    
C26   O11   D    
C3    O20   A    
H4    O17   S    
C21   O3    D    
C4    O23   A    
C29   H7    S    
C2    C34   A    
C1    O18   A    
C9    C15   A    
C7    C8    S    
C29   C31   A    
C31   N1    A    
C3    O22   A    
C27   C33   S    
C24   O7    D    
C32   N2    A    
C11   C19   A    
C10   C16   A    
C25   O9    D    
C13   C18   A    
H8    O2    S    
C28   O16   D    
C2    C33   A    
C9    C17   A    
C4    O21   A    
H3    O15   S    
C26   O13   S    
C30   H5    S    
C28   O17   S    
C22   O5    D    
O1    Zn1   S    
C22   O6    S    
C13   C15   A    
O21   Zn2   S    
C33   N1    A    
C12   O19   A    
C31   H1    S    
C13   C26   S    
C4    C6    S    
C25   O10   S    
C11   C25   S    
C14   C24   S    
H2    O13   S    
O18   Zn2   S    
C23   C30   A    
N2    Zn2   S    
O23   Zn1   S    
C28   C32   S    
C17   C20   S    
C21   O4    S    
N1    Zn1   S    
C2    C23   A    
C16   C18   A    
C18   C19   A    
C10   C14   A    
C30   N2    A    
O12   Zn2   S    
C11   C14   A    
C5    C7    T    
C20   O24   D    
C6    C8    T    
C27   O15   S    
C17   C19   A    
O20   Zn1   S    
C9    C12   S    
C1    O1    A    
C29   C34   A    
C15   C22   S    
H12   O10   S    
C1    C10   S    
C23   H6    S    
H11   O8    S    
H9    O4    S    
C3    C5    S    
C12   O12   A    
