data_mof_unit_66103.cif
_audit_creation_date              2012-12-10T18:07:45-0500
_audit_creation_method            fapswitch 2.2
_symmetry_space_group_name_H-M    P1
_symmetry_Int_Tables_number       1
_space_group_crystal_system       triclinic
_cell_length_a                    10.656332
_cell_length_b                    12.762384
_cell_length_c                    13.90863
_cell_angle_alpha                 97.932098
_cell_angle_beta                  90.204298
_cell_angle_gamma                 93.25445
_cell_volume                      1870.33272632

loop_
_atom_site_label
_atom_site_type_symbol
_atom_type_description
_atom_site_fract_x
_atom_site_fract_y
_atom_site_fract_z
_atom_type_partial_charge
C1    C     C_R   0.498660 0.483574 0.315882 0.833420
C2    C     C_3   0.965661 0.600810 0.505142 -0.260813
C3    C     C_3   0.954211 0.442308 0.417225 -0.305107
C4    C     C_3   0.045789 0.557692 0.582775 -0.305107
C5    C     C_3   0.877462 0.500157 0.499395 -0.178714
C6    C     C_3   0.122538 0.499843 0.500605 -0.178714
C7    C     C_3   0.956094 0.457888 0.575789 0.708394
C8    C     C_3   0.043906 0.542112 0.424210 0.708394
C9    C     C_1   0.502128 0.525827 0.787375 -0.114140
C10   C     C_1   0.497872 0.474173 0.212625 -0.114140
C11   C     C_2   0.503601 0.543523 0.978189 0.485117
C12   C     C_R   0.501340 0.516426 0.684118 0.833420
C13   C     C_2   0.496399 0.456477 0.021811 0.485117
C14   C     C_1   0.497157 0.465609 0.125622 0.052876
C15   C     C_1   0.502843 0.534391 0.874378 0.052876
C16   C     C_2   0.464282 0.028217 0.473526 -0.236778
C17   C     C_2   0.535718 0.971783 0.526474 -0.236778
C18   C     C_1   0.525627 0.854586 0.519104 0.255380
C19   C     C_1   0.474372 0.145414 0.480896 0.255380
C20   C     C_R   0.258965 0.500159 0.500106 0.866715
C21   C     C_R   0.741035 0.499840 0.499893 0.866715
C22   C     C_3   0.034339 0.399190 0.494858 -0.260813
Cu1   Cu    Cu3+1 0.491940 0.395330 0.493960 1.035679
Cu2   Cu    Cu3+1 0.508060 0.604670 0.506040 1.035679
F1    F     F_    0.907034 0.414219 0.654184 -0.635145
F2    F     F_    0.092966 0.585781 0.345816 -0.635145
F3    F     F_    0.488271 0.358216 0.969035 -0.642248
F4    F     F_    0.511729 0.641784 0.030965 -0.642248
H1    H     H_    0.914557 0.396345 0.349254 0.186664
H2    H     H_    0.085443 0.603654 0.650746 0.186664
H3    H     H_    0.064199 0.316885 0.491939 0.192403
H4    H     H_    0.935801 0.683115 0.508061 0.192403
H5    H     H_    0.604615 0.014092 0.577437 0.180506
H6    H     H_    0.395385 0.985908 0.422563 0.180506
N1    N     N_1   0.479830 0.238040 0.484880 -0.150145
N2    N     N_1   0.520170 0.761960 0.515120 -0.150145
O1    O     O_R   0.492210 0.399110 0.356330 -0.576539
O2    O     O_R   0.507790 0.600890 0.643670 -0.576539
O3    O     O_R   0.505820 0.575890 0.366540 -0.552903
O4    O     O_R   0.494180 0.424110 0.633460 -0.552903
O5    O     O_R   0.310050 0.411620 0.494870 -0.586259
O6    O     O_R   0.689950 0.588380 0.505130 -0.586259
O7    O     O_R   0.323660 0.588400 0.505080 -0.558363
O8    O     O_R   0.676340 0.411600 0.494920 -0.558363

loop_
_geom_bond_atom_site_label_1
_geom_bond_atom_site_label_2
_ccdc_geom_bond_type
C12   O4    A    
C2    C4    S    
Cu1   Cu2   S    
C5    C7    S    
C21   O8    A    
C6    C20   S    
Cu2   O2    S    
Cu1   O5    S    
C1    O1    A    
Cu2   O3    S    
C11   C15   S    
C20   O5    A    
C9    C15   T    
C5    C21   S    
C19   N1    T    
C13   C14   S    
C11   C13   D    
Cu2   N2    S    
C17   H5    S    
C11   F4    S    
C4    C7    S    
C4    C6    S    
C17   C18   S    
Cu1   N1    S    
C16   C19   S    
C7    F1    S    
C12   O2    A    
C8    F2    S    
C9    C12   S    
C2    C8    S    
C2    C5    S    
C22   H3    S    
C1    O3    A    
Cu1   O4    S    
C7    C22   S    
C20   O7    A    
Cu2   O6    S    
C2    H4    S    
C3    C8    S    
C10   C14   T    
C3    H1    S    
Cu2   O7    S    
C13   F3    S    
C3    C22   S    
C6    C8    S    
C16   H6    S    
Cu1   O1    S    
C18   N2    T    
C1    C10   S    
C4    H2    S    
Cu1   O8    S    
C21   O6    A    
C16   C17   D    
C3    C5    S    
C6    C22   S    
