data_mof_unit_29603.cif
_audit_creation_date              2012-12-11T15:27:43-0500
_audit_creation_method            fapswitch 2.2
_symmetry_space_group_name_H-M    P1
_symmetry_Int_Tables_number       1
_space_group_crystal_system       triclinic
_cell_length_a                    23.274484
_cell_length_b                    7.309104
_cell_length_c                    15.232802
_cell_angle_alpha                 90.0
_cell_angle_beta                  108.175781
_cell_angle_gamma                 90.000137
_cell_volume                      2462.04021395

loop_
_atom_site_label
_atom_site_type_symbol
_atom_type_description
_atom_site_fract_x
_atom_site_fract_y
_atom_site_fract_z
_atom_type_partial_charge
O1    O     O_R   0.711000 0.648610 0.341170 -0.538062
O2    O     O_R   0.289000 0.351390 0.658830 -0.546626
O3    O     O_R   0.789000 0.148610 0.158830 -0.538064
O4    O     O_R   0.211000 0.851390 0.841170 -0.546626
O5    O     O_R   0.829650 0.322030 0.336650 -0.542874
O6    O     O_R   0.170350 0.677970 0.663350 -0.527382
O7    O     O_R   0.670350 0.822030 0.163350 -0.542874
O8    O     O_R   0.329650 0.177970 0.836650 -0.527382
C1    C     C_R   0.853601 0.486082 0.359076 0.741588
C2    C     C_R   0.145387 0.514256 0.644265 0.725034
C3    C     C_R   0.646399 0.986082 0.140923 0.741585
C4    C     C_R   0.354613 0.014256 0.855735 0.725036
O9    O     O_R   0.713950 0.319280 0.352070 -0.542343
O10   O     O_R   0.286050 0.680720 0.647930 -0.525343
O11   O     O_R   0.786050 0.819280 0.147930 -0.542342
O12   O     O_R   0.213950 0.180720 0.852070 -0.525343
O13   O     O_R   0.672470 0.142870 0.174360 -0.530116
O14   O     O_R   0.327530 0.857130 0.825640 -0.540189
O15   O     O_R   0.827530 0.642870 0.325640 -0.530115
O16   O     O_R   0.172470 0.357130 0.674360 -0.540189
C5    C     C_R   0.703291 0.487251 0.378036 0.755962
C6    C     C_R   0.299338 0.513174 0.625179 0.744995
C7    C     C_R   0.796709 0.987252 0.121964 0.755967
C8    C     C_R   0.200662 0.013174 0.874821 0.744995
O17   O     O_3   0.736530 0.478650 0.191680 -0.394246
O18   O     O_3   0.263470 0.521350 0.808320 -0.382613
O19   O     O_3   0.763470 0.978650 0.308320 -0.394246
O20   O     O_3   0.236530 0.021350 0.691680 -0.382613
V1    V     V_3+5 0.752500 0.206170 0.260820 1.417863
V2    V     V_3+5 0.247500 0.793830 0.739180 1.490224
V3    V     V_3+5 0.747500 0.706170 0.239180 1.417865
V4    V     V_3+5 0.252500 0.293830 0.760820 1.490224
C9    C     C_R   0.822262 0.994287 0.044319 -0.194892
C10   C     C_R   0.167600 0.009291 0.943354 -0.189833
C11   C     C_R   0.677738 0.494284 0.455681 -0.194893
C12   C     C_R   0.332401 0.509290 0.556647 -0.189834
C13   C     C_R   0.814548 0.069020 0.885575 -0.079018
C14   C     C_R   0.167012 0.045928 0.101143 -0.077778
C15   C     C_R   0.685452 0.569019 0.614426 -0.079020
C16   C     C_R   0.332990 0.545921 0.398858 -0.077777
C17   C     C_R   0.789658 0.074308 0.959453 0.357221
C18   C     C_R   0.198104 0.056653 0.035323 0.357531
C19   C     C_R   0.710341 0.574310 0.540547 0.357221
C20   C     C_R   0.301897 0.556651 0.464678 0.357531
C21   C     C_R   0.879258 0.918194 0.054093 -0.113355
C22   C     C_R   0.104948 0.970468 0.915148 -0.121283
C23   C     C_R   0.620744 0.418182 0.445909 -0.113363
C24   C     C_R   0.395052 0.470465 0.584854 -0.121282
C25   C     C_R   0.911457 0.972965 0.993757 0.020731
C26   C     C_R   0.070851 0.994664 0.977642 0.038978
C27   C     C_R   0.588544 0.472951 0.506245 0.020730
C28   C     C_R   0.429150 0.494654 0.522360 0.038979
C29   C     C_R   0.876988 0.030588 0.904601 -0.028125
C30   C     C_R   0.104200 0.008736 0.072803 -0.039061
C31   C     C_R   0.623013 0.530581 0.595400 -0.028122
C32   C     C_R   0.395801 0.508722 0.427198 -0.039057
C33   C     C_R   0.976131 0.975712 0.019856 -0.084404
C34   C     C_R   0.005630 0.002933 0.950973 -0.077016
C35   C     C_R   0.523869 0.475695 0.480146 -0.084407
C36   C     C_R   0.494371 0.502922 0.549029 -0.077011
C37   C     C_R   0.969101 0.061795 0.861710 0.420754
C38   C     C_R   0.011848 0.980183 0.114377 0.412336
C39   C     C_R   0.530899 0.561789 0.638291 0.420754
C40   C     C_R   0.488152 0.480157 0.385624 0.412332
C41   C     C_R   0.906013 0.059020 0.838307 -0.251513
C42   C     C_R   0.074106 0.993180 0.138803 -0.247313
C43   C     C_R   0.593988 0.559015 0.661694 -0.251516
C44   C     C_R   0.425895 0.493156 0.361199 -0.247302
H1    H     H_    0.879778 0.091743 0.768436 0.136427
H2    H     H_    0.098608 0.997248 0.211841 0.145746
H3    H     H_    0.620223 0.591743 0.731564 0.136427
H4    H     H_    0.401392 0.497216 0.288160 0.145742
C45   C     C_1   0.418003 0.007054 0.914561 -0.160762
C46   C     C_1   0.585152 0.993564 0.074624 -0.193326
C47   C     C_1   0.081997 0.507053 0.585439 -0.160763
C48   C     C_1   0.914848 0.493564 0.425375 -0.193323
C49   C     C_1   0.471033 0.002448 0.963113 0.007945
C50   C     C_1   0.533209 0.997948 0.021796 0.008338
C51   C     C_1   0.028967 0.502447 0.536887 0.007947
C52   C     C_1   0.966791 0.497947 0.478204 0.008334
C53   C     C_1   0.079165 0.887802 0.825290 0.389112
N1    N     N_1   0.060028 0.823030 0.752837 -0.380436
C54   C     C_1   0.897440 0.755746 0.109871 0.416851
N2    N     N_1   0.910822 0.623693 0.153055 -0.411823
C55   C     C_1   0.420834 0.387803 0.674713 0.389116
N3    N     N_1   0.439971 0.323035 0.747167 -0.380435
C56   C     C_1   0.602564 0.255729 0.390134 0.416855
N4    N     N_1   0.589182 0.123673 0.346951 -0.411820
O21   O     O_3   0.256152 0.129522 0.057075 -0.570720
C57   C     C_3   0.299785 0.014276 0.117602 0.071166
H5    H     H_    0.329237 0.956989 0.079329 0.110001
H6    H     H_    0.279971 0.894938 0.142660 0.158740
C58   C     C_3   0.338930 0.127653 0.199521 -0.269237
H7    H     H_    0.376590 0.191828 0.180386 0.180211
H8    H     H_    0.311955 0.241023 0.214994 0.237105
C59   C     C_3   0.364249 0.013212 0.287349 -0.797766
H9    H     H_    0.328108 0.974881 0.316852 0.267289
H10   H     H_    0.398785 0.093327 0.340131 0.227596
H11   H     H_    0.385001 0.885334 0.272774 0.231711
O22   O     O_3   0.730633 0.130591 0.946615 -0.584846
C60   C     C_3   0.721364 0.314237 0.915156 0.027418
H12   H     H_    0.683714 0.315547 0.848907 0.168078
H13   H     H_    0.761206 0.379876 0.902125 0.136176
C61   C     C_3   0.704981 0.430611 0.986721 -0.250973
H14   H     H_    0.675773 0.351139 0.018349 0.216401
H15   H     H_    0.747697 0.468356 0.040599 0.213618
C62   C     C_3   0.671835 0.604709 0.944662 -0.825669
H16   H     H_    0.699865 0.688166 0.912775 0.256425
H17   H     H_    0.661843 0.687403 0.999122 0.244588
H18   H     H_    0.628421 0.568271 0.892011 0.227200
O23   O     O_3   0.243850 0.629522 0.442925 -0.570719
C63   C     C_3   0.200216 0.514278 0.382396 0.071164
H19   H     H_    0.170761 0.457002 0.420667 0.110004
H20   H     H_    0.220030 0.394934 0.357343 0.158734
C64   C     C_3   0.161075 0.627655 0.300473 -0.269242
H21   H     H_    0.123415 0.691839 0.319603 0.180210
H22   H     H_    0.188054 0.741019 0.285002 0.237112
C65   C     C_3   0.135759 0.513210 0.212647 -0.797751
H23   H     H_    0.171907 0.474816 0.183167 0.267287
H24   H     H_    0.101240 0.593351 0.159849 0.227603
H25   H     H_    0.114986 0.385363 0.227214 0.231704
O24   O     O_3   0.769366 0.630601 0.553383 -0.584847
C66   C     C_3   0.778632 0.814248 0.584842 0.027421
H26   H     H_    0.816282 0.815559 0.651092 0.168076
H27   H     H_    0.738789 0.879882 0.597872 0.136176
C67   C     C_3   0.795016 0.930625 0.513279 -0.250966
H28   H     H_    0.824224 0.851155 0.481650 0.216403
H29   H     H_    0.752299 0.968371 0.459401 0.213616
C68   C     C_3   0.828162 0.104722 0.555339 -0.825666
H30   H     H_    0.800132 0.188179 0.587226 0.256427
H31   H     H_    0.838154 0.187419 0.500880 0.244586
H32   H     H_    0.871575 0.068284 0.607990 0.227197
C69   C     C_1   0.776322 0.111633 0.792819 0.317489
N5    N     N_1   0.745341 0.146778 0.719234 -0.402374
C70   C     C_1   0.198655 0.081382 0.197515 0.295455
N6    N     N_1   0.222815 0.106911 0.275161 -0.412119
C71   C     C_1   0.723679 0.611634 0.707181 0.317487
N7    N     N_1   0.754660 0.646780 0.780766 -0.402370
C72   C     C_1   0.301348 0.581380 0.302486 0.295461
N8    N     N_1   0.277190 0.606912 0.224840 -0.412119
O25   O     O_3   0.994382 0.141390 0.799679 -0.571185
C73   C     C_3   0.985988 0.334209 0.796037 0.087413
H33   H     H_    0.029177 0.396982 0.794611 0.155820
H34   H     H_    0.976338 0.392280 0.857833 0.103184
C74   C     C_3   0.935857 0.389055 0.707365 -0.340278
H35   H     H_    0.942038 0.313325 0.647727 0.220204
H36   H     H_    0.890885 0.356123 0.713538 0.202078
C75   C     C_3   0.935809 0.592878 0.687422 -0.757262
H37   H     H_    0.934808 0.674615 0.748431 0.236253
H38   H     H_    0.895604 0.626938 0.627986 0.246266
H39   H     H_    0.976082 0.627578 0.667319 0.261276
O26   O     O_3   0.986551 0.998369 0.185047 -0.577227
C76   C     C_3   0.977198 0.186004 0.199913 0.091450
H40   H     H_    0.929639 0.203634 0.199227 0.146784
H41   H     H_    0.983222 0.279209 0.145135 0.124054
C77   C     C_3   0.019040 0.244269 0.294794 -0.330466
H42   H     H_    0.003801 0.179705 0.349792 0.204380
H43   H     H_    0.065865 0.197351 0.304222 0.193110
C78   C     C_3   0.019417 0.451460 0.305648 -0.768669
H44   H     H_    0.028768 0.520933 0.247019 0.252258
H45   H     H_    0.054374 0.491899 0.370677 0.222033
H46   H     H_    0.974769 0.498734 0.306984 0.257635
O27   O     O_3   0.505618 0.641387 0.700321 -0.571185
C79   C     C_3   0.514015 0.834205 0.703965 0.087409
H47   H     H_    0.470825 0.896984 0.705383 0.155819
H48   H     H_    0.523671 0.892274 0.642173 0.103187
C80   C     C_3   0.564142 0.889045 0.792642 -0.340274
H49   H     H_    0.557955 0.813320 0.852277 0.220206
H50   H     H_    0.609115 0.856104 0.786477 0.202080
C81   C     C_3   0.564193 0.092870 0.812584 -0.757278
H51   H     H_    0.565202 0.174602 0.751578 0.236252
H52   H     H_    0.604395 0.126924 0.872026 0.246268
H53   H     H_    0.523917 0.127580 0.832676 0.261279
O28   O     O_3   0.513449 0.498331 0.314954 -0.577227
C82   C     C_3   0.522806 0.685962 0.300086 0.091455
H54   H     H_    0.570364 0.703581 0.300764 0.146774
H55   H     H_    0.516789 0.779173 0.354866 0.124058
C83   C     C_3   0.480960 0.744233 0.205208 -0.330466
H56   H     H_    0.496194 0.679665 0.150206 0.204378
H57   H     H_    0.434134 0.697325 0.195786 0.193111
C84   C     C_3   0.480588 0.951424 0.194356 -0.768663
H58   H     H_    0.471237 0.020897 0.252984 0.252260
H59   H     H_    0.445632 0.991868 0.129327 0.222036
H60   H     H_    0.525237 0.998690 0.193022 0.257630

loop_
_geom_bond_atom_site_label_1
_geom_bond_atom_site_label_2
_ccdc_geom_bond_type
O17   V3    S    
C56   N4    T    
C15   C71   S    
O1    C5    A    
C67   H28   S    
O19   V1    S    
C9    C21   A    
O3    C7    A    
O27   C79   S    
C10   C18   A    
C75   H39   S    
O15   V3    S    
C59   H11   S    
C63   H20   S    
C53   N1    T    
C57   H5    S    
C25   C33   A    
C66   H26   S    
C80   H50   S    
C49   C50   S    
O7    C3    A    
C35   C40   A    
C58   H7    S    
C38   O26   S    
C36   C39   A    
C40   C44   A    
O9    V1    S    
C77   H42   S    
C75   H38   S    
C14   C18   A    
O4    C8    A    
C25   C29   A    
C83   H57   S    
C66   H27   S    
C81   H51   S    
C64   H21   S    
C16   C72   S    
C84   H58   S    
O1    V3    S    
O13   V1    S    
C7    C9    S    
O2    V4    S    
O3    V1    S    
C65   H23   S    
C61   H14   S    
C28   C36   A    
O28   C82   S    
C77   H43   S    
C1    O15   A    
C15   C31   A    
C78   H44   S    
C2    O16   A    
C16   C32   A    
C59   H10   S    
O2    C6    A    
C62   H16   S    
C78   H45   S    
C10   C22   A    
C1    C48   S    
C82   C83   S    
C11   C19   A    
C16   C20   A    
C43   H3    S    
C44   H4    S    
C68   H32   S    
C13   C29   A    
C34   C37   A    
O11   C7    A    
C11   C23   A    
C35   C36   A    
O12   C8    A    
C4    C45   S    
C62   H17   S    
C73   C74   S    
C21   C54   S    
O10   V2    S    
C61   H15   S    
C63   H19   S    
C74   H36   S    
C74   H35   S    
C80   C81   S    
O5    V1    S    
C84   H59   S    
C58   H8    S    
C39   C43   A    
C78   H46   S    
O7    V3    S    
C38   C42   A    
C26   C34   A    
C60   H12   S    
C83   H56   S    
C70   N6    T    
C75   H37   S    
C82   H55   S    
C80   H49   S    
O18   V4    S    
C66   C67   S    
C15   C19   A    
C67   C68   S    
C33   C38   A    
C55   N3    T    
C8    C10   S    
C65   H25   S    
O8    V4    S    
C39   O27   S    
O5    C1    A    
C23   C27   A    
C22   C53   S    
C2    C47   S    
C57   H6    S    
C82   H54   S    
C14   C30   A    
C21   C25   A    
O8    C4    A    
C64   C65   S    
C59   H9    S    
C17   O22   S    
O9    C5    A    
C26   C30   A    
C14   C70   S    
C76   C77   S    
C19   O24   S    
C5    C11   S    
C37   O25   S    
O6    V2    S    
C58   C59   S    
C69   N5    T    
C62   H18   S    
C73   H34   S    
C54   N2    T    
C76   H41   S    
C40   O28   S    
C74   C75   S    
C29   C41   A    
C57   C58   S    
C68   H30   S    
O16   V4    S    
C84   H60   S    
C64   H22   S    
C79   H47   S    
C67   H29   S    
O23   C63   S    
C73   H33   S    
C79   C80   S    
C48   C52   T    
C3    C46   S    
C3    O13   A    
O6    C2    A    
C31   C43   A    
C72   N8    T    
O11   V3    S    
C30   C42   A    
C77   C78   S    
O12   V4    S    
C6    C12   S    
C71   N7    T    
C22   C26   A    
C18   O21   S    
C9    C17   A    
O10   C6    A    
C79   H48   S    
O24   C66   S    
C32   C44   A    
O25   C73   S    
C33   C34   A    
C42   H2    S    
C81   H52   S    
C41   H1    S    
O20   V2    S    
O22   C60   S    
C12   C24   A    
C27   C31   A    
C61   C62   S    
C13   C17   A    
C13   C69   S    
C65   H24   S    
C83   C84   S    
C12   C20   A    
O14   V2    S    
C51   C52   S    
C20   O23   S    
C37   C41   A    
C24   C28   A    
C27   C35   A    
O26   C76   S    
C60   H13   S    
C46   C50   T    
C4    O14   A    
C45   C49   T    
C24   C55   S    
C60   C61   S    
C68   H31   S    
O21   C57   S    
C47   C51   T    
C63   C64   S    
O4    V2    S    
C28   C32   A    
C23   C56   S    
C76   H40   S    
C81   H53   S    
