data_mof_unit_23895.cif
_audit_creation_date              2012-12-10T16:54:03-0500
_audit_creation_method            fapswitch 2.2
_symmetry_space_group_name_H-M    P1
_symmetry_Int_Tables_number       1
_space_group_crystal_system       triclinic
_cell_length_a                    9.788094
_cell_length_b                    10.925864
_cell_length_c                    13.386948
_cell_angle_alpha                 91.012784
_cell_angle_beta                  73.973807
_cell_angle_gamma                 88.34932
_cell_volume                      1374.94499603

loop_
_atom_site_label
_atom_site_type_symbol
_atom_type_description
_atom_site_fract_x
_atom_site_fract_y
_atom_site_fract_z
_atom_type_partial_charge
C1    C     C_R   0.496162 0.735234 0.503004 0.728483
C2    C     C_R   0.442588 0.439810 0.975937 0.006982
C3    C     C_R   0.485527 0.431623 0.865861 -0.024702
C4    C     C_R   0.547894 0.447073 0.029333 0.025185
C5    C     C_R   0.687244 0.404294 0.978741 -0.016936
C6    C     C_R   0.722685 0.369199 0.873580 -0.172701
C7    C     C_R   0.625347 0.387838 0.816621 -0.139377
C8    C     C_R   0.516600 0.490819 0.132647 -0.305769
C9    C     C_R   0.763460 0.457782 0.130928 0.363350
C10   C     C_R   0.383546 0.455688 0.810372 -0.250294
C11   C     C_2   0.604930 0.064746 0.511698 -0.137125
C12   C     C_R   0.425487 0.485864 0.698461 0.838086
C13   C     C_2   0.512598 0.135342 0.479587 -0.252285
C14   C     C_2   0.605741 0.931265 0.499945 -0.256548
C15   C     C_2   0.485053 0.869833 0.512295 0.325553
C16   C     C_2   0.048904 0.558764 0.569235 -0.146874
C17   C     C_2   0.897900 0.577586 0.556387 0.678348
C18   C     C_R   0.503416 0.266060 0.495762 0.781039
C19   C     C_R   0.576033 0.501576 0.300149 0.808354
C20   C     C_R   0.788359 0.395146 0.034900 0.437155
C21   C     C_R   0.620869 0.489553 0.185821 -0.267307
C22   C     C_R   0.237839 0.449881 0.864464 0.410934
C23   C     C_R   0.197773 0.440487 0.971828 -0.279798
C24   C     C_R   0.296755 0.430168 0.027967 0.359408
Cu1   Cu    Cu3+1 0.361370 0.499980 0.499980 0.943442
Cu2   Cu    Cu3+1 0.638630 0.500020 0.500020 0.990659
H1    H     H_    0.441189 0.097123 0.439314 0.171399
H2    H     H_    0.708717 0.883483 0.482506 0.146128
H3    H     H_    0.071470 0.598292 0.637499 0.179354
H4    H     H_    0.134968 0.478630 0.431191 0.215298
H5    H     H_    0.827356 0.331822 0.834103 0.178212
H6    H     H_    0.410999 0.526199 0.172661 0.228989
H7    H     H_    0.088080 0.437180 0.013090 0.266935
H8    H     H_    0.658565 0.357951 0.736012 0.177770
H9    H     H_    0.681387 0.104743 0.546771 0.155430
N1    N     N_2   0.152660 0.501340 0.501130 -0.290607
N2    N     N_2   0.846520 0.501370 0.501160 -0.073258
O1    O     O_R   0.382960 0.678040 0.499980 -0.581167
O2    O     O_R   0.617100 0.678080 0.500020 -0.561115
O3    O     O_R   0.325800 0.499940 0.650950 -0.532036
O4    O     O_R   0.559930 0.499980 0.650990 -0.546336
O5    O     O_R   0.382900 0.321920 0.499980 -0.576480
O6    O     O_R   0.617040 0.321960 0.500020 -0.583487
O7    O     O_R   0.440070 0.500020 0.349010 -0.579813
O8    O     O_R   0.674200 0.500060 0.349050 -0.598587
O9    O     O_3   0.877237 0.476935 0.172071 -0.600739
C25   C     C_3   0.888989 0.604350 0.192403 0.105853
H10   H     H_    0.938054 0.613000 0.257710 0.156579
H11   H     H_    0.784791 0.655606 0.218461 0.131460
C26   C     C_3   0.983683 0.667746 0.098289 -0.378413
H12   H     H_    0.096361 0.639887 0.089173 0.229706
H13   H     H_    0.954079 0.641097 0.026712 0.233430
C27   C     C_3   0.969723 0.807032 0.112348 -0.935440
H14   H     H_    0.859149 0.839550 0.118152 0.255246
H15   H     H_    0.042591 0.849955 0.044380 0.261977
H16   H     H_    0.998087 0.836271 0.183715 0.257586
O10   O     O_3   0.354150 0.934424 0.549268 -0.612270
C28   C     C_3   0.245456 0.899857 0.503619 0.074323
H17   H     H_    0.158707 0.971220 0.527595 0.141144
H18   H     H_    0.194540 0.815852 0.538986 0.173073
C29   C     C_3   0.290073 0.893518 0.383282 -0.367948
H19   H     H_    0.297380 0.987843 0.353000 0.193119
H20   H     H_    0.395230 0.846179 0.351029 0.205929
C30   C     C_3   0.182205 0.824619 0.342473 -0.928935
H21   H     H_    0.175847 0.728833 0.369428 0.265560
H22   H     H_    0.215672 0.822091 0.256180 0.260370
H23   H     H_    0.075511 0.870580 0.370030 0.238305
O11   O     O_3   0.805257 0.668637 0.613528 -0.548840
C31   C     C_3   0.875183 0.778648 0.618362 -0.427017
H24   H     H_    0.942953 0.803670 0.540707 0.139483
H25   H     H_    0.937290 0.773862 0.676225 0.170136
H26   H     H_    0.793513 0.853477 0.645269 0.208700
O12   O     O_3   0.907919 0.387881 0.494421 -0.577898
C32   C     C_3   0.925740 0.338424 0.393484 0.181831
H27   H     H_    0.007991 0.387650 0.335448 0.131195
H28   H     H_    0.827348 0.344732 0.369523 0.225911
C33   C     C_3   0.971443 0.202985 0.391672 -0.375808
H29   H     H_    0.087200 0.194602 0.384298 0.198839
H30   H     H_    0.914997 0.160778 0.465863 0.228831
C34   C     C_3   0.937634 0.132445 0.302543 -0.944639
H31   H     H_    0.820815 0.131106 0.314446 0.257839
H32   H     H_    0.979357 0.036691 0.298818 0.254712
H33   H     H_    0.986637 0.176379 0.227980 0.280597
O13   O     O_3   0.906999 0.318665 0.999321 -0.590319
C35   C     C_3   0.867712 0.197759 0.026574 -0.401683
H34   H     H_    0.785494 0.166182 0.989754 0.167987
H35   H     H_    0.829225 0.189344 0.112426 0.179605
H36   H     H_    0.962221 0.135291 0.997525 0.187139
O14   O     O_3   0.132762 0.447275 0.813462 -0.553070
C36   C     C_3   0.130646 0.327359 0.772115 -0.200907
H37   H     H_    0.093029 0.261136 0.834819 0.179142
H38   H     H_    0.236377 0.294086 0.722201 0.144980
H39   H     H_    0.057167 0.327806 0.722206 0.177327
O15   O     O_3   0.247267 0.393033 0.129929 -0.614485
C37   C     C_3   0.297052 0.271693 0.141370 0.081511
H40   H     H_    0.246017 0.246111 0.222569 0.166354
H41   H     H_    0.413016 0.266858 0.132853 0.140211
C38   C     C_3   0.260696 0.176109 0.067410 -0.376570
H42   H     H_    0.147589 0.188129 0.068721 0.245149
H43   H     H_    0.326723 0.189065 0.986498 0.210703
C39   C     C_3   0.289077 0.045948 0.097933 -0.939507
H44   H     H_    0.402976 0.031964 0.095053 0.256450
H45   H     H_    0.262704 0.979357 0.043063 0.263744
H46   H     H_    0.222480 0.028497 0.177605 0.268561

loop_
_geom_bond_atom_site_label_1
_geom_bond_atom_site_label_2
_ccdc_geom_bond_type
C39   H44   S    
C29   C30   S    
O12   C32   S    
C37   H40   S    
C4    C8    A    
O10   C28   S    
C37   C38   S    
C25   H11   S    
C5    C20   A    
C27   H14   S    
C10   C22   A    
C32   H28   S    
C13   C18   S    
C19   C21   S    
C3    C7    A    
C18   O5    A    
Cu1   O3    S    
C5    C6    A    
C34   H31   S    
C11   C14   S    
Cu2   O2    S    
C35   H36   S    
C28   H18   S    
C29   H20   S    
C31   H25   S    
Cu2   O8    S    
C16   C17   S    
C23   H7    S    
C32   C33   S    
C26   H13   S    
C23   C24   A    
C1    C15   S    
C29   H19   S    
C33   H29   S    
C28   C29   S    
C35   H35   S    
C6    H5    S    
C9    O9    S    
C39   H45   S    
C15   O10   S    
O15   C37   S    
C34   H33   S    
Cu1   O7    S    
Cu2   O6    S    
C26   H12   S    
C25   C26   S    
C27   H15   S    
C26   C27   S    
C32   H27   S    
C8    H6    S    
C30   H23   S    
O13   C35   S    
C34   H32   S    
O11   C31   S    
Cu1   Cu2   S    
C35   H34   S    
C30   H22   S    
C12   O3    A    
C31   H26   S    
C2    C4    A    
C12   O4    A    
C24   O15   S    
Cu1   O1    S    
C9    C20   A    
C36   H38   S    
C25   H10   S    
C37   H41   S    
C8    C21   A    
C33   H30   S    
C17   N2    D    
C10   C12   S    
C1    O1    A    
C39   H46   S    
C38   H43   S    
C20   O13   S    
C2    C24   A    
C7    H8    S    
C19   O7    A    
C36   H39   S    
C27   H16   S    
N2    O12   S    
O9    C25   S    
C17   O11   S    
C14   C15   D    
C4    C5    A    
Cu1   O5    S    
C19   O8    A    
Cu2   N2    S    
C6    C7    A    
C38   C39   S    
H4    N1    S    
C30   H21   S    
C11   H9    S    
C2    C3    A    
C28   H17   S    
C3    C10   A    
C18   O6    A    
C16   N1    D    
C11   C13   D    
C9    C21   A    
C36   H37   S    
C33   C34   S    
C22   O14   S    
C31   H24   S    
C1    O2    A    
Cu1   N1    S    
C16   H3    S    
C38   H42   S    
C22   C23   A    
C13   H1    S    
C14   H2    S    
O14   C36   S    
Cu2   O4    S    
