data_mof_unit_56710.cif
_audit_creation_date              2012-12-10T16:50:55-0500
_audit_creation_method            fapswitch 2.2
_symmetry_space_group_name_H-M    P1
_symmetry_Int_Tables_number       1
_space_group_crystal_system       triclinic
_cell_length_a                    8.064266
_cell_length_b                    8.522377
_cell_length_c                    10.356903
_cell_angle_alpha                 90.420733
_cell_angle_beta                  87.66803
_cell_angle_gamma                 93.272365
_cell_volume                      710.037805826

loop_
_atom_site_label
_atom_site_type_symbol
_atom_type_description
_atom_site_fract_x
_atom_site_fract_y
_atom_site_fract_z
_atom_type_partial_charge
C1    C     C_R   0.544429 0.793112 0.497267 0.948240
C2    C     C_R   0.936670 0.523041 0.076710 -0.140503
C3    C     C_R   0.072078 0.602269 0.013668 -0.185780
C4    C     C_R   0.927922 0.397733 0.986333 -0.185778
C5    C     C_R   0.213637 0.629321 0.086963 -0.010571
C6    C     C_R   0.786363 0.370680 0.913037 -0.010576
C7    C     C_R   0.352050 0.542193 0.058365 0.047217
C8    C     C_R   0.647950 0.457809 0.941635 0.047213
C9    C     C_R   0.352325 0.446138 0.948395 0.036290
C10   C     C_R   0.647675 0.553864 0.051605 0.036289
C11   C     C_R   0.498993 0.564925 0.122906 -0.219719
C12   C     C_R   0.455571 0.206888 0.502733 0.948241
C13   C     C_R   0.501007 0.435077 0.877094 -0.219718
C14   C     C_1   0.191662 0.247777 0.821686 0.161307
C15   C     C_1   0.808338 0.752226 0.178314 0.161308
C16   C     C_1   0.222894 0.763276 0.173999 0.175799
C17   C     C_1   0.777106 0.236725 0.826002 0.175802
C18   C     C_2   0.991460 0.300072 0.450012 0.671866
C19   C     C_2   0.008546 0.699930 0.549983 0.671846
C20   C     C_2   0.567005 0.957492 0.495829 -0.321141
C21   C     C_2   0.432995 0.042508 0.504171 -0.321130
C22   C     C_R   0.500533 0.477462 0.739480 0.879620
C23   C     C_R   0.499467 0.522538 0.260520 0.879623
C24   C     C_R   0.202283 0.389992 0.899671 0.004588
C25   C     C_R   0.797717 0.610010 0.100329 0.004583
C26   C     C_R   0.063330 0.476961 0.923290 -0.140504
H1    H     H_    0.957220 0.285423 0.027411 0.191003
H2    H     H_    0.042779 0.714579 0.972590 0.190999
H3    H     H_    0.033383 0.518653 0.827893 0.204036
H4    H     H_    0.966616 0.481349 0.172107 0.204044
H5    H     H_    0.693975 0.007873 0.487886 0.200908
H6    H     H_    0.306025 0.992127 0.512113 0.200918
H7    H     H_    0.028268 0.233364 0.531756 0.046826
H8    H     H_    0.971718 0.766629 0.468242 0.046838
N1    N     N_2   0.950330 0.457950 0.466250 -0.206259
N2    N     N_2   0.049670 0.542050 0.533750 -0.206252
N3    N     N_1   0.182941 0.133492 0.760764 -0.173607
N4    N     N_1   0.817058 0.866511 0.239236 -0.173616
N5    N     N_1   0.230412 0.870368 0.243274 -0.187757
N6    N     N_1   0.769588 0.129633 0.756727 -0.187762
O1    O     O_R   0.389250 0.738570 0.508280 -0.607833
O2    O     O_2   0.026259 0.765333 0.654045 -0.608811
O3    O     O_R   0.610750 0.261430 0.491720 -0.607849
O4    O     O_R   0.678390 0.711630 0.486650 -0.649739
O5    O     O_R   0.321610 0.288370 0.513350 -0.649729
O6    O     O_R   0.355430 0.513480 0.694040 -0.602142
O7    O     O_R   0.644570 0.486520 0.305960 -0.602148
O8    O     O_R   0.644570 0.486540 0.672410 -0.617340
O9    O     O_R   0.355430 0.513460 0.327590 -0.617332
O10   O     O_2   0.973784 0.234683 0.345940 -0.608817
Zn1   Zn    Zn3+2 0.306940 0.517990 0.514440 0.963511
Zn2   Zn    Zn3+2 0.693060 0.482010 0.485560 0.963494

loop_
_geom_bond_atom_site_label_1
_geom_bond_atom_site_label_2
_ccdc_geom_bond_type
C4    C26   A    
C19   H8    S    
C9    C24   A    
C8    C13   A    
O1    Zn1   S    
C2    C25   A    
C18   N1    S    
C1    O4    A    
C2    C4    A    
N1    N2    D    
C19   O2    D    
C2    H4    S    
O4    Zn2   S    
C2    C3    A    
C15   N4    T    
C14   N3    T    
C7    C11   A    
O7    Zn2   S    
N2    Zn1   S    
C12   C21   S    
C10   C25   A    
C4    C6    A    
C3    H2    S    
C21   H6    S    
C24   C26   A    
C13   C22   S    
C12   O3    A    
C5    C7    A    
C19   N2    S    
C18   H7    S    
O3    Zn2   S    
C15   C25   S    
C23   O9    A    
C10   C11   A    
O5    Zn1   S    
C16   N5    T    
C3    C5    A    
C22   O8    A    
O8    Zn2   S    
C4    H1    S    
C23   O7    A    
C20   C21   D    
C18   O10   D    
C26   H3    S    
C8    C10   A    
C1    C20   S    
C14   C24   S    
N1    Zn2   S    
C7    C9    A    
C6    C17   S    
C9    C13   A    
C5    C16   S    
C6    C8    A    
C22   O6    A    
O6    Zn1   S    
C17   N6    T    
C3    C26   A    
C1    O1    A    
C11   C23   S    
C12   O5    A    
O9    Zn1   S    
C20   H5    S    
