data_mof_unit_20532.cif
_audit_creation_date              2012-12-11T16:05:07-0500
_audit_creation_method            fapswitch 2.2
_symmetry_space_group_name_H-M    P1
_symmetry_Int_Tables_number       1
_space_group_crystal_system       triclinic
_cell_length_a                    10.673029
_cell_length_b                    10.586816
_cell_length_c                    16.963523
_cell_angle_alpha                 98.490996
_cell_angle_beta                  98.625231
_cell_angle_gamma                 61.441896
_cell_volume                      1658.13799914

loop_
_atom_site_label
_atom_site_type_symbol
_atom_type_description
_atom_site_fract_x
_atom_site_fract_y
_atom_site_fract_z
_atom_type_partial_charge
C1    C     C_R   0.354276 0.775988 0.398989 0.544818
C2    C     C_3   0.269450 0.757694 0.250826 -0.105885
C3    C     C_3   0.344911 0.815066 0.319765 0.061788
C4    C     C_R   0.370607 0.346758 0.358700 0.545754
C5    C     C_3   0.473439 0.765250 0.271204 -0.121818
C6    C     C_3   0.399433 0.916170 0.239315 -0.115329
C7    C     C_3   0.272008 0.964477 0.289746 -0.146755
C8    C     C_3   0.195776 0.908062 0.220265 -0.110785
C9    C     C_3   0.323750 0.858134 0.170993 0.060667
C10   C     C_3   0.477328 0.312860 0.801228 -0.118872
C11   C     C_3   0.399072 0.452977 0.757486 -0.152009
C12   C     C_3   0.696056 0.369401 0.233038 -0.139908
C13   C     C_3   0.381733 0.363539 0.680606 0.048520
C14   C     C_3   0.459134 0.225023 0.723937 0.017798
C15   C     C_3   0.313854 0.249522 0.744651 -0.097645
C16   C     C_R   0.719604 0.408833 0.389850 0.558797
C17   C     C_3   0.235740 0.389588 0.701709 -0.115667
C18   C     C_3   0.252395 0.478296 0.780022 -0.121971
C19   C     C_3   0.331675 0.338160 0.821768 0.045015
C20   C     C_1   0.816614 0.341639 0.709737 -0.054999
C21   C     C_1   0.842857 0.315412 0.778283 -0.054190
C22   C     C_1   0.337038 0.814611 0.709328 -0.063098
C23   C     C_3   0.780718 0.370397 0.313944 0.059771
C24   C     C_1   0.311961 0.841906 0.777999 -0.060950
C25   C     C_R   0.948788 0.288112 0.103025 0.554447
C26   C     C_R   0.319077 0.299814 0.120305 0.536741
C27   C     C_R   0.294177 0.892120 0.088998 0.542170
C28   C     C_R   0.356230 0.772323 0.627014 0.541143
C29   C     C_R   0.884091 0.299953 0.860972 0.551085
C30   C     C_R   0.310088 0.297292 0.894254 0.545478
C31   C     C_R   0.279403 0.885878 0.858647 0.547889
C32   C     C_R   0.408841 0.377031 0.601346 0.562446
C33   C     C_R   0.774129 0.379170 0.629720 0.550375
C34   C     C_3   0.908008 0.226661 0.289338 -0.118753
C35   C     C_1   0.343810 0.336620 0.275019 -0.069965
C36   C     C_1   0.331781 0.326690 0.203891 -0.065097
C37   C     C_3   0.824414 0.225270 0.206667 -0.112591
C38   C     C_3   0.577610 0.077553 0.695125 -0.240614
C39   C     C_3   0.628141 0.968607 0.757923 -0.304842
C40   C     C_3   0.747475 0.822720 0.729180 -0.436821
C41   C     C_3   0.972065 0.312145 0.258657 -0.137684
C42   C     C_3   0.844145 0.456093 0.284407 -0.109764
C43   C     C_3   0.759861 0.455012 0.202596 -0.119136
C44   C     C_3   0.887503 0.311727 0.177658 0.059054
C45   C     C_3   0.396794 0.708989 0.201172 -0.149683
Cr1   Cr    Cr6+3 0.608340 0.611040 0.520430 0.992873
Cr2   Cr    Cr6+3 0.287650 0.601120 0.489350 1.016785
Cr3   Cr    Cr6+3 0.604040 0.287870 0.490280 1.010574
Cr4   Cr    Cr6+3 0.054020 0.052700 0.970850 1.011793
Cr5   Cr    Cr6+3 0.059230 0.375120 0.993390 1.019343
Cr6   Cr    Cr6+3 0.374950 0.061200 0.992340 1.009642
H1    H     H_    0.582576 0.391508 0.225337 0.105606
H2    H     H_    0.817043 0.130532 0.172926 0.125787
H3    H     H_    0.965313 0.134770 0.327230 0.126546
H4    H     H_    0.085790 0.289349 0.266779 0.103005
H5    H     H_    0.852347 0.551166 0.317078 0.129162
H6    H     H_    0.701216 0.547789 0.165377 0.132713
H7    H     H_    0.214882 0.692926 0.256229 0.136089
H8    H     H_    0.443766 0.607884 0.161362 0.102706
H9    H     H_    0.586661 0.710258 0.296117 0.124149
H10   H     H_    0.779614 0.745057 0.774873 0.158103
H11   H     H_    0.842414 0.833771 0.719687 0.154168
H12   H     H_    0.453419 0.980521 0.232035 0.138009
H13   H     H_    0.709971 0.779327 0.672266 0.189880
H14   H     H_    0.668861 0.009555 0.814688 0.176519
H15   H     H_    0.536938 0.953541 0.770184 0.184315
H16   H     H_    0.535769 0.036063 0.639012 0.169670
H17   H     H_    0.669378 0.091364 0.682503 0.163891
H18   H     H_    0.224573 0.065957 0.329238 0.108190
H19   H     H_    0.081296 0.964189 0.197532 0.128963
H20   H     H_    0.437161 0.534551 0.761103 0.108331
H21   H     H_    0.575165 0.282770 0.843602 0.117511
H22   H     H_    0.278000 0.165777 0.740411 0.110251
H23   H     H_    0.137308 0.420248 0.659784 0.136618
H24   H     H_    0.167739 0.581965 0.805178 0.132678
O1    O     O_R   0.751220 0.499230 0.435170 -0.520195
O2    O     O_R   0.412990 0.180750 0.091610 -0.514291
O3    O     O_R   0.366620 0.943130 0.065760 -0.505422
O4    O     O_R   0.477220 0.727600 0.436870 -0.517035
O5    O     O_R   0.160510 0.906330 0.879210 -0.510343
O6    O     O_R   0.930190 0.179050 0.889450 -0.495473
O7    O     O_R   0.909140 0.398170 0.896710 -0.507011
O8    O     O_R   0.186190 0.363460 0.918830 -0.500815
O9    O     O_R   0.401670 0.173200 0.913310 -0.524394
O10   O     O_R   0.356120 0.936130 0.900470 -0.500019
O11   O     O_3   0.162740 0.163010 0.985530 -0.266821
O12   O     O_R   0.297880 0.469080 0.560050 -0.495153
O13   O     O_R   0.258650 0.745120 0.411470 -0.520261
O14   O     O_R   0.297070 0.467240 0.395960 -0.496047
O15   O     O_R   0.488830 0.252610 0.387790 -0.512002
O16   O     O_R   0.724400 0.302390 0.420980 -0.496152
O17   O     O_R   0.752100 0.501210 0.612190 -0.516119
O18   O     O_R   0.478040 0.729440 0.600970 -0.509948
O19   O     O_R   0.259530 0.747110 0.588490 -0.510408
O20   O     O_R   0.489720 0.254590 0.564810 -0.530088
O21   O     O_R   0.725220 0.304230 0.585080 -0.511657
O22   O     O_3   0.500010 0.500010 0.500020 -0.289331
O23   O     O_R   0.171830 0.913880 0.057510 -0.529341
O24   O     O_R   0.940690 0.186050 0.054730 -0.506848
O25   O     O_R   0.920470 0.405720 0.075010 -0.516812
O26   O     O_R   0.196690 0.370460 0.084120 -0.510812

loop_
_geom_bond_atom_site_label_1
_geom_bond_atom_site_label_2
_ccdc_geom_bond_type
C27   O23   A    
C9    C45   S    
C18   H24   S    
C31   O10   A    
Cr3   O20   S    
C34   C37   S    
C39   H14   S    
C41   C42   S    
C13   C32   S    
C35   C36   T    
C27   O3    A    
Cr6   O10   S    
C6    C9    S    
Cr1   O1    S    
C31   O5    A    
C11   C18   S    
C15   C19   S    
Cr3   O22   S    
C12   C23   S    
C9    C27   S    
C23   C42   S    
C12   C43   S    
C3    C7    S    
C26   O26   A    
Cr1   O4    S    
C11   H20   S    
Cr1   O17   S    
C30   O8    A    
C40   H11   S    
Cr6   O11   S    
C28   O19   A    
C18   C19   S    
Cr4   O6    S    
C12   C37   S    
C41   H4    S    
C42   H5    S    
Cr4   O23   S    
C25   O24   A    
C8    C9    S    
Cr3   O16   S    
C37   H2    S    
C1    O13   A    
C4    C35   S    
C22   C28   S    
C13   C14   S    
Cr2   O14   S    
C34   C41   S    
C25   C44   S    
C12   H1    S    
Cr5   O8    S    
C4    O15   A    
C2    C45   S    
C38   C39   S    
C26   O2    A    
C7    C8    S    
C10   C14   S    
C33   O17   A    
C39   C40   S    
Cr5   O11   S    
C32   O12   A    
C21   C29   S    
C40   H10   S    
C28   O18   A    
C1    C3    S    
Cr2   O12   S    
C6    H12   S    
C43   C44   S    
Cr6   O2    S    
C29   O6    A    
Cr4   O24   S    
C25   O25   A    
C10   C19   S    
C23   C34   S    
C17   C18   S    
C38   H16   S    
C16   O16   A    
C20   C33   S    
C26   C36   S    
C15   H22   S    
Cr1   O22   S    
C38   H17   S    
C34   H3    S    
C16   C23   S    
C17   H23   S    
C1    O4    A    
C41   C44   S    
C22   C24   T    
C42   C43   S    
C14   C38   S    
C33   O21   A    
Cr5   O7    S    
C4    O14   A    
C15   C17   S    
C45   H8    S    
Cr3   O21   S    
C5    H9    S    
C16   O1    A    
Cr5   O25   S    
Cr4   O11   S    
C2    C8    S    
C3    C5    S    
C40   H13   S    
C7    H18   S    
C2    H7    S    
C6    C7    S    
C8    H19   S    
Cr2   O22   S    
Cr4   O5    S    
C13   C17   S    
Cr2   O13   S    
C37   C44   S    
C2    C3    S    
Cr6   O3    S    
C29   O7    A    
C11   C13   S    
C5    C6    S    
Cr1   O18   S    
C5    C45   S    
C39   H15   S    
Cr2   O19   S    
C30   O9    A    
C24   C31   S    
C10   C11   S    
C43   H6    S    
C32   O20   A    
C20   C21   T    
Cr5   O26   S    
C14   C15   S    
Cr3   O15   S    
C19   C30   S    
Cr6   O9    S    
C10   H21   S    
