data_mof_unit_5273.cif
_audit_creation_date              2012-12-10T17:48:50-0500
_audit_creation_method            fapswitch 2.2
_symmetry_space_group_name_H-M    P1
_symmetry_Int_Tables_number       1
_space_group_crystal_system       triclinic
_cell_length_a                    10.733041
_cell_length_b                    14.70331
_cell_length_c                    14.725808
_cell_angle_alpha                 65.102532
_cell_angle_beta                  103.422834
_cell_angle_gamma                 102.98795
_cell_volume                      2028.98092752

loop_
_atom_site_label
_atom_site_type_symbol
_atom_type_description
_atom_site_fract_x
_atom_site_fract_y
_atom_site_fract_z
_atom_type_partial_charge
C1    C     C_R   0.479492 0.119673 0.312307 0.802194
C2    C     C_3   0.877960 0.000390 0.497819 0.110126
C3    C     C_3   0.920026 0.896816 0.573315 -0.384774
C4    C     C_3   0.964776 0.084088 0.532216 -0.391103
C5    C     C_R   0.477782 0.187261 0.205147 -0.066033
C6    C     C_R   0.541172 0.812729 0.795336 -0.056566
C7    C     C_R   0.477234 0.216603 0.030711 -0.199252
C8    C     C_R   0.468348 0.149704 0.130462 -0.193825
C9    C     C_R   0.494517 0.291826 0.178959 -0.233627
C10   C     C_R   0.510234 0.360898 0.080159 0.086182
C11   C     C_R   0.498259 0.321648 0.005050 0.164049
C12   C     C_R   0.260220 0.000209 0.500366 0.769139
C13   C     C_R   0.535628 0.467536 0.053892 0.055994
C14   C     C_R   0.534877 0.533697 0.950266 0.064166
C15   C     C_R   0.525078 0.491457 0.877922 -0.219770
C16   C     C_R   0.508055 0.387444 0.905265 -0.228298
C17   C     C_R   0.564650 0.510160 0.127913 -0.179406
C18   C     C_R   0.584167 0.614189 0.100767 -0.220923
C19   C     C_R   0.573018 0.679566 0.999185 0.155927
C20   C     C_R   0.546321 0.640062 0.922790 0.089635
C21   C     C_R   0.587538 0.784395 0.973135 -0.193900
C22   C     C_R   0.572630 0.850708 0.871748 -0.201107
C23   C     C_R   0.522941 0.880300 0.687725 0.792952
C24   C     C_R   0.527670 0.708305 0.821268 -0.256101
C25   C     C_R   0.718857 0.287576 0.664820 -0.322074
C26   C     C_R   0.684878 0.205112 0.636569 0.066464
C27   C     C_R   0.517726 0.284421 0.509328 0.039777
C28   C     C_R   0.551650 0.373530 0.530505 -0.001981
C29   C     C_R   0.651865 0.371291 0.613044 0.159437
C30   C     C_R   0.488519 0.462583 0.476034 -0.052243
C31   C     C_R   0.520135 0.543302 0.512150 0.011882
C32   C     C_R   0.617577 0.534689 0.597113 -0.200563
C33   C     C_R   0.683409 0.451511 0.644900 -0.199465
C34   C     C_R   0.739949 0.000294 0.499038 0.750873
C35   C     C_R   0.397892 0.476008 0.385671 0.529582
C36   C     C_R   0.332136 0.559478 0.339336 -0.245286
C37   C     C_R   0.357593 0.635638 0.376474 0.062938
C38   C     C_R   0.454101 0.630591 0.461493 -0.022764
C39   C     C_R   0.289722 0.718926 0.326662 -0.279200
C40   C     C_R   0.319617 0.798218 0.359557 0.084263
C41   C     C_R   0.480956 0.714798 0.490433 0.051061
C42   C     C_3   0.046972 0.022752 0.391025 -0.407718
C43   C     C_3   0.901879 0.022818 0.388966 -0.149652
C44   C     C_3   0.063517 0.896763 0.573006 -0.373458
C45   C     C_3   0.107865 0.084245 0.533571 -0.375676
C46   C     C_3   0.122564 0.001117 0.499649 0.136071
Cu1   Cu    Cu3+1 0.465900 0.918260 0.475680 0.938716
Cu2   Cu    Cu3+1 0.534100 0.081740 0.524320 0.933929
H1    H     H_    0.060018 0.965446 0.364268 0.168655
H2    H     H_    0.950271 0.071201 0.609440 0.172067
H3    H     H_    0.118124 0.879438 0.651130 0.153730
H4    H     H_    0.905883 0.882063 0.651118 0.152844
H5    H     H_    0.501513 0.358346 0.847518 0.149367
H6    H     H_    0.498644 0.681632 0.760704 0.149988
H7    H     H_    0.583966 0.931328 0.853278 0.153174
H8    H     H_    0.606254 0.643578 0.159897 0.155295
H9    H     H_    0.469192 0.186236 0.973749 0.133632
H10   H     H_    0.455620 0.068950 0.149255 0.159617
H11   H     H_    0.493395 0.317499 0.237186 0.188431
H12   H     H_    0.088122 0.097905 0.338006 0.151096
H13   H     H_    0.534352 0.536789 0.799606 0.139803
H14   H     H_    0.577084 0.465353 0.208188 0.175260
H15   H     H_    0.609479 0.815009 0.031297 0.141119
H16   H     H_    0.758675 0.449206 0.708994 0.140737
H17   H     H_    0.555706 0.719555 0.551756 0.112027
H18   H     H_    0.269091 0.863460 0.320007 0.119104
H19   H     H_    0.262395 0.565866 0.271340 0.174099
H20   H     H_    0.796590 0.285676 0.727248 0.139645
H21   H     H_    0.736411 0.140431 0.676325 0.123738
H22   H     H_    0.435289 0.274069 0.455542 0.207136
H23   H     H_    0.876522 0.099329 0.337310 0.114383
H24   H     H_    0.646595 0.591686 0.628651 0.122223
H25   H     H_    0.215389 0.723459 0.261574 0.137686
H26   H     H_    0.070984 0.835657 0.549568 0.181284
H27   H     H_    0.859489 0.834000 0.552946 0.177968
H28   H     H_    0.161640 0.070621 0.611466 0.171720
H29   H     H_    0.149253 0.160239 0.482079 0.185686
H30   H     H_    0.937954 0.160026 0.479869 0.180281
N1    N     N_R   0.585360 0.204570 0.560800 -0.195671
N2    N     N_R   0.414550 0.795430 0.439160 -0.179338
O1    O     O_R   0.455060 0.022100 0.338110 -0.586353
O2    O     O_R   0.512640 0.160150 0.379180 -0.579550
O3    O     O_R   0.288900 0.930980 0.479450 -0.590902
O4    O     O_R   0.346480 0.069030 0.520520 -0.592120
O5    O     O_R   0.487360 0.839850 0.620820 -0.592331
O6    O     O_R   0.544940 0.977900 0.661890 -0.588009
O7    O     O_R   0.653520 0.930970 0.479480 -0.574939
O8    O     O_R   0.711100 0.069020 0.520550 -0.590923
F1    F     F_    0.376287 0.413677 0.335570 -0.722761
C47   C     C_1   0.820425 0.950495 0.345989 0.251332
N3    N     N_1   0.756661 0.893900 0.312362 -0.290824

loop_
_geom_bond_atom_site_label_1
_geom_bond_atom_site_label_2
_ccdc_geom_bond_type
C19   C20   A    
C41   N2    A    
C36   H19   S    
C7    C8    A    
C32   H24   S    
C45   C46   S    
C4    H30   S    
C30   C35   A    
C45   H28   S    
C1    C5    S    
Cu1   O5    S    
Cu2   N1    S    
C36   C37   A    
C19   C21   A    
C27   N1    A    
C30   C31   A    
C24   H6    S    
C15   C16   A    
C6    C22   A    
C29   C33   A    
C12   O4    A    
C18   C19   A    
C42   C46   S    
C20   C24   A    
C16   H5    S    
C8    H10   S    
C35   C36   A    
C23   O6    A    
Cu2   O8    S    
Cu1   O3    S    
C3    H27   S    
C9    C10   A    
C18   H8    S    
C2    C34   S    
C39   H25   S    
C40   H18   S    
C21   C22   A    
C25   H20   S    
Cu1   N2    S    
C44   C46   S    
C7    C11   A    
C4    C45   S    
C25   C29   A    
C3    C44   S    
C43   C47   S    
C14   C20   A    
C38   C41   A    
C12   C46   S    
C42   H12   S    
C39   C40   A    
C41   H17   S    
C25   C26   A    
Cu2   O4    S    
C12   O3    A    
C4    H2    S    
C9    H11   S    
Cu1   O7    S    
C2    C4    S    
C5    C9    A    
C37   C38   A    
C17   H14   S    
C11   C16   A    
Cu1   Cu2   S    
C2    C43   S    
C6    C24   A    
C40   N2    A    
C17   C18   A    
C15   H13   S    
C34   O8    A    
C44   H26   S    
C27   H22   S    
C35   F1    S    
C44   H3    S    
Cu2   O6    S    
C42   C43   S    
C28   C29   A    
C43   H23   S    
C31   C32   A    
C10   C13   A    
C5    C8    A    
C3    H4    S    
C22   H7    S    
C26   N1    A    
C31   C38   A    
C13   C17   A    
C32   C33   A    
C28   C30   A    
C2    C3    S    
C1    O2    A    
C37   C39   A    
C47   N3    T    
C33   H16   S    
C6    C23   S    
Cu2   O2    S    
C34   O7    A    
Cu1   O1    S    
C21   H15   S    
C10   C11   A    
C42   H1    S    
C23   O5    A    
C27   C28   A    
C26   H21   S    
C14   C15   A    
C45   H29   S    
C13   C14   A    
C1    O1    A    
C7    H9    S    
