data_mof_unit_54052.cif
_audit_creation_date              2012-12-11T15:44:55-0500
_audit_creation_method            fapswitch 2.2
_symmetry_space_group_name_H-M    P1
_symmetry_Int_Tables_number       1
_space_group_crystal_system       triclinic
_cell_length_a                    19.30105
_cell_length_b                    11.051484
_cell_length_c                    18.637258
_cell_angle_alpha                 90.39621
_cell_angle_beta                  90.798418
_cell_angle_gamma                 89.875494
_cell_volume                      3974.93529603

loop_
_atom_site_label
_atom_site_type_symbol
_atom_type_description
_atom_site_fract_x
_atom_site_fract_y
_atom_site_fract_z
_atom_type_partial_charge
C1    C     C_R   0.759289 0.535796 0.647219 0.536059
C2    C     C_R   0.172856 0.084172 0.551624 -0.154734
C3    C     C_R   0.526125 0.946130 0.956988 0.024500
C4    C     C_R   0.016140 0.230803 0.955520 -0.163383
C5    C     C_R   0.019604 0.230732 0.030477 -0.161106
C6    C     C_R   0.508533 0.729955 0.957585 -0.161135
C7    C     C_R   0.510698 0.731183 0.032458 -0.162447
C8    C     C_3   0.991736 0.566278 0.038834 -0.277400
C9    C     C_3   0.987694 0.569753 0.957993 -0.269254
C10   C     C_3   0.496707 0.067868 0.037644 -0.272990
C11   C     C_3   0.493901 0.070140 0.956817 -0.268509
C12   C     C_R   0.761400 0.529590 0.853144 0.545538
C13   C     C_R   0.324681 0.569384 0.451825 -0.148737
C14   C     C_R   0.239139 0.532061 0.148004 0.550975
C15   C     C_R   0.260236 0.033211 0.851588 0.547694
C16   C     C_R   0.738001 0.027588 0.146177 0.547257
C17   C     C_R   0.772577 0.125021 0.852259 0.556747
C18   C     C_R   0.226081 0.128646 0.145945 0.553644
C19   C     C_R   0.273629 0.628116 0.853688 0.554450
C20   C     C_R   0.727450 0.625724 0.147479 0.559010
C21   C     C_R   0.971816 0.347236 0.852085 0.545237
C22   C     C_R   0.033121 0.346913 0.144433 0.544033
C23   C     C_R   0.471567 0.847089 0.852279 0.548132
C24   C     C_R   0.672856 0.584171 0.551623 -0.154858
C25   C     C_R   0.532076 0.846955 0.145029 0.544066
C26   C     C_R   0.764327 0.106983 0.415784 0.004598
C27   C     C_R   0.236645 0.109254 0.585395 0.006524
C28   C     C_R   0.264328 0.606985 0.415783 0.004690
C29   C     C_R   0.736645 0.609253 0.585394 0.006443
C30   C     C_R   0.726917 0.199486 0.447675 0.015126
C31   C     C_R   0.279050 0.191015 0.551229 0.017220
C32   C     C_R   0.226917 0.699487 0.447674 0.015078
C33   C     C_R   0.779051 0.691014 0.551228 0.017219
C34   C     C_R   0.740498 0.235115 0.518741 -0.000040
C35   C     C_3   0.651649 0.209075 0.454755 -0.127959
C36   C     C_R   0.267273 0.223660 0.479961 0.006877
C37   C     C_R   0.240498 0.735116 0.518741 -0.000026
C38   C     C_R   0.767274 0.723659 0.479960 0.006844
C39   C     C_1   0.623561 0.300089 0.405278 0.203736
C40   C     C_1   0.383123 0.285335 0.593482 0.204989
C41   C     C_1   0.123558 0.800083 0.405281 0.203589
C42   C     C_1   0.883121 0.785337 0.593483 0.205105
C43   C     C_3   0.354600 0.191353 0.545478 -0.123441
C44   C     C_3   0.151649 0.709071 0.454757 -0.127923
C45   C     C_3   0.854600 0.691355 0.545478 -0.123485
C46   C     C_3   0.665564 0.251929 0.531401 -0.261934
C47   C     C_3   0.343091 0.226976 0.467244 -0.262577
C48   C     C_3   0.165564 0.751926 0.531401 -0.261886
C49   C     C_R   0.240664 0.535676 0.353081 0.536292
C50   C     C_3   0.843091 0.726976 0.467244 -0.262606
C51   C     C_R   0.789143 0.171148 0.560561 -0.000781
C52   C     C_R   0.213708 0.169084 0.439872 0.001758
C53   C     C_R   0.289144 0.671150 0.560560 -0.000938
C54   C     C_R   0.713708 0.669083 0.439871 0.001906
C55   C     C_R   0.997987 0.341548 0.425717 -0.031160
C56   C     C_R   0.007508 0.332928 0.577379 -0.031514
C57   C     C_R   0.497985 0.841549 0.425715 -0.031108
C58   C     C_R   0.507505 0.832927 0.577376 -0.031444
C59   C     C_R   0.982263 0.122260 0.422262 -0.088217
C60   C     C_R   0.259289 0.035796 0.647219 0.535438
C61   C     C_R   0.008265 0.110425 0.569542 -0.100570
C62   C     C_R   0.482260 0.622262 0.422257 -0.088187
C63   C     C_R   0.508262 0.610423 0.569537 -0.100605
C64   C     C_R   0.988610 0.011267 0.455305 -0.147798
C65   C     C_R   0.003703 0.005107 0.528261 -0.157675
C66   C     C_R   0.488609 0.511268 0.455299 -0.147798
C67   C     C_R   0.503702 0.505106 0.528254 -0.157675
C68   C     C_R   0.002384 0.224466 0.536919 0.010030
C69   C     C_R   0.994162 0.229695 0.461116 0.006496
C70   C     C_R   0.502380 0.724465 0.536916 0.010065
C71   C     C_R   0.740664 0.035677 0.353081 0.537103
C72   C     C_R   0.494158 0.729696 0.461113 0.006501
C73   C     C_R   0.018324 0.441174 0.540707 0.011176
C74   C     C_R   0.999922 0.448364 0.467761 0.011501
C75   C     C_R   0.518323 0.941173 0.540706 0.011226
C76   C     C_R   0.499920 0.948365 0.467760 0.011498
C77   C     C_R   0.792898 0.175301 0.639683 0.569999
C78   C     C_R   0.207973 0.174010 0.360845 0.567511
C79   C     C_R   0.292899 0.675301 0.639683 0.570196
C80   C     C_R   0.707974 0.674010 0.360844 0.567361
C81   C     C_R   0.038303 0.546681 0.577777 -0.087185
C82   C     C_R   0.835654 0.097396 0.523794 -0.138879
C83   C     C_R   0.985293 0.563338 0.439135 -0.099464
C84   C     C_R   0.538303 0.046679 0.577776 -0.087184
C85   C     C_R   0.485293 0.063340 0.439134 -0.099478
C86   C     C_R   0.021975 0.658334 0.549820 -0.133012
C87   C     C_R   0.996210 0.666795 0.480260 -0.146559
C88   C     C_R   0.521975 0.158334 0.549820 -0.132983
C89   C     C_R   0.496210 0.166797 0.480260 -0.146555
C90   C     C_R   0.743790 0.055326 0.070497 0.019613
C91   C     C_R   0.245928 0.088995 0.920655 0.019418
C92   C     C_R   0.250686 0.586245 0.078393 0.016730
C93   C     C_R   0.162514 0.109997 0.478860 -0.144841
C94   C     C_R   0.754923 0.559075 0.928518 0.021792
C95   C     C_R   0.794054 0.992654 0.032021 0.038172
C96   C     C_R   0.184450 0.060098 0.955988 0.029823
C97   C     C_R   0.314798 0.572593 0.045129 0.020709
C98   C     C_R   0.713584 0.482525 0.969127 0.046789
C99   C     C_R   0.798289 0.002058 0.958981 0.023589
C100  C     C_R   0.181077 0.067629 0.029293 0.042759
C101  C     C_R   0.319391 0.579767 0.971814 0.042597
C102  C     C_R   0.711184 0.491461 0.042434 0.019981
C103  C     C_R   0.694046 0.122233 0.956891 -0.152974
C104  C     C_R   0.335654 0.597398 0.523793 -0.138914
C105  C     C_R   0.296039 0.150240 0.035400 -0.167208
C106  C     C_R   0.198711 0.632269 0.961772 -0.170186
C107  C     C_R   0.798978 0.646627 0.039305 -0.164658
C108  C     C_R   0.690413 0.113328 0.031798 -0.151991
C109  C     C_R   0.299141 0.145751 0.960378 -0.167978
C110  C     C_R   0.193630 0.625392 0.036514 -0.163672
C111  C     C_R   0.801183 0.636637 0.964511 -0.172345
C112  C     C_3   0.870718 0.990717 0.043058 -0.277040
C113  C     C_3   0.140897 0.947526 0.954859 -0.267823
C114  C     C_3   0.366668 0.471427 0.047913 -0.267566
C115  C     C_R   0.662514 0.609997 0.478859 -0.144790
C116  C     C_3   0.637903 0.457330 0.961653 -0.267812
C117  C     C_3   0.875982 0.001181 0.962562 -0.269537
C118  C     C_3   0.138426 0.956055 0.035644 -0.275793
C119  C     C_3   0.369877 0.477795 0.967194 -0.267371
C120  C     C_3   0.635193 0.463598 0.042503 -0.269511
C121  C     C_R   0.751941 0.075817 0.920809 0.016929
C122  C     C_R   0.237980 0.104081 0.070678 0.019265
C123  C     C_R   0.261297 0.602380 0.928565 0.020319
C124  C     C_R   0.749544 0.580679 0.078267 0.015218
C125  C     C_R   0.972944 0.344500 0.648049 0.521489
C126  C     C_R   0.824680 0.069382 0.451827 -0.148865
C127  C     C_R   0.027975 0.346762 0.352730 0.522905
C128  C     C_R   0.472944 0.844500 0.648048 0.521038
C129  C     C_R   0.527975 0.846762 0.352730 0.522841
C130  C     C_R   0.019365 0.341119 0.068356 0.019481
C131  C     C_R   0.009825 0.341380 0.919178 0.018434
C132  C     C_R   0.516419 0.841690 0.069359 0.022806
C133  C     C_R   0.508395 0.839722 0.919980 0.017955
C134  C     C_R   0.027678 0.447750 0.030103 0.040615
C135  C     C_R   0.023822 0.448860 0.956940 0.024566
C136  C     C_R   0.529298 0.946169 0.030312 0.046413
Cr1   Cr    Cr6+3 0.885860 0.491680 0.749630 1.018610
Cr2   Cr    Cr6+3 0.112430 0.179310 0.249850 1.024817
Cr3   Cr    Cr6+3 0.387570 0.679310 0.750150 1.022413
Cr4   Cr    Cr6+3 0.612430 0.679310 0.249850 1.021880
Cr5   Cr    Cr6+3 0.114140 0.491680 0.250370 1.019504
Cr6   Cr    Cr6+3 0.385860 0.991680 0.749630 1.018070
Cr7   Cr    Cr6+3 0.614140 0.991680 0.250370 1.020253
Cr8   Cr    Cr6+3 0.730490 0.332970 0.748720 1.000246
Cr9   Cr    Cr6+3 0.269510 0.332970 0.251280 1.000368
Cr10  Cr    Cr6+3 0.230490 0.832970 0.748720 0.997927
Cr11  Cr    Cr6+3 0.769510 0.832970 0.251280 1.002083
Cr12  Cr    Cr6+3 0.887570 0.179310 0.750150 1.018994
H1    H     H_    0.875949 0.050284 0.552232 0.186519
H2    H     H_    0.339569 0.185730 0.065807 0.115527
H3    H     H_    0.153541 0.657027 0.930031 0.120285
H4    H     H_    0.831345 0.713864 0.065471 0.136580
H5    H     H_    0.647726 0.154894 0.059480 0.122336
H6    H     H_    0.345050 0.177564 0.934180 0.116151
H7    H     H_    0.143784 0.640478 0.060560 0.134509
H8    H     H_    0.836741 0.692470 0.934957 0.122073
H9    H     H_    0.890006 0.902762 0.063822 0.134582
H10   H     H_    0.169443 0.866423 0.936484 0.171707
H11   H     H_    0.344747 0.385071 0.066257 0.166647
H12   H     H_    0.117788 0.073931 0.451616 0.183445
H13   H     H_    0.626535 0.366291 0.939595 0.135652
H14   H     H_    0.890159 0.071871 0.072597 0.137831
H15   H     H_    0.089617 0.961912 0.928381 0.126530
H16   H     H_    0.415717 0.498578 0.075339 0.126929
H17   H     H_    0.609453 0.532178 0.934704 0.136628
H18   H     H_    0.898555 0.088633 0.946206 0.165092
H19   H     H_    0.085693 0.973922 0.056105 0.135049
H20   H     H_    0.421168 0.505419 0.947544 0.135816
H21   H     H_    0.602930 0.539567 0.061593 0.163684
H22   H     H_    0.898527 0.919446 0.936674 0.130875
H23   H     H_    0.375949 0.550284 0.552231 0.186476
H24   H     H_    0.166836 0.881757 0.063265 0.143304
H25   H     H_    0.347485 0.397284 0.939515 0.140367
H26   H     H_    0.624058 0.374995 0.067621 0.128325
H27   H     H_    0.011048 0.145594 0.927041 0.121032
H28   H     H_    0.019576 0.145613 0.058605 0.126402
H29   H     H_    0.499779 0.645432 0.929689 0.120936
H30   H     H_    0.505205 0.647442 0.061319 0.114342
H31   H     H_    0.025447 0.637744 0.062442 0.135088
H32   H     H_    0.933496 0.566126 0.938014 0.172938
H33   H     H_    0.531863 0.136809 0.061483 0.135246
H34   H     H_    0.617787 0.573933 0.451616 0.183491
H35   H     H_    0.440042 0.070786 0.936225 0.168333
H36   H     H_    0.940367 0.557032 0.064472 0.141785
H37   H     H_    0.019734 0.642659 0.934622 0.125316
H38   H     H_    0.444797 0.063392 0.062533 0.134905
H39   H     H_    0.528299 0.139516 0.933374 0.124078
H40   H     H_    0.858878 0.005564 0.427170 0.141028
H41   H     H_    0.134835 0.031076 0.578804 0.135853
H42   H     H_    0.358878 0.505565 0.427169 0.141077
H43   H     H_    0.634834 0.531079 0.578804 0.135780
H44   H     H_    0.126697 0.619020 0.449993 0.156561
H45   H     H_    0.031022 0.737387 0.582560 0.115319
H46   H     H_    0.877887 0.600193 0.552957 0.157440
H47   H     H_    0.626696 0.119026 0.449991 0.156475
H48   H     H_    0.377886 0.100191 0.552957 0.157517
H49   H     H_    0.651452 0.346893 0.541415 0.140589
H50   H     H_    0.362108 0.317943 0.454245 0.127613
H51   H     H_    0.151450 0.846889 0.541417 0.140630
H52   H     H_    0.862107 0.817943 0.454244 0.127575
H53   H     H_    0.649305 0.188352 0.573370 0.148190
H54   H     H_    0.357891 0.155603 0.428276 0.139116
H55   H     H_    0.149306 0.688346 0.573370 0.148253
H56   H     H_    0.984373 0.753055 0.458027 0.114546
H57   H     H_    0.857892 0.655602 0.428276 0.139085
H58   H     H_    0.980722 0.931599 0.423043 0.121328
H59   H     H_    0.010798 0.919318 0.553376 0.127925
H60   H     H_    0.480724 0.431600 0.423035 0.121334
H61   H     H_    0.510799 0.419316 0.553368 0.127916
H62   H     H_    0.966774 0.122850 0.366250 0.138754
H63   H     H_    0.020764 0.101465 0.626006 0.141799
H64   H     H_    0.466771 0.622853 0.366245 0.138902
H65   H     H_    0.520760 0.601461 0.626001 0.141539
H66   H     H_    0.962888 0.574214 0.386039 0.140886
H67   H     H_    0.531023 0.237386 0.582560 0.115266
H68   H     H_    0.061097 0.542829 0.631208 0.135743
H69   H     H_    0.462889 0.074217 0.386038 0.140901
H70   H     H_    0.561098 0.042826 0.631207 0.135563
H71   H     H_    0.484374 0.253058 0.458027 0.114538
H72   H     H_    0.654841 0.172745 0.928106 0.120044
N1    N     N_1   0.601457 0.369929 0.365089 -0.297849
N2    N     N_1   0.405065 0.357597 0.632767 -0.313870
N3    N     N_1   0.101450 0.869923 0.365094 -0.298067
N4    N     N_1   0.905061 0.857600 0.632769 -0.313519
O1    O     O_R   0.957020 0.451640 0.669920 -0.517314
O2    O     O_R   0.168040 0.093290 0.169870 -0.508782
O3    O     O_R   0.331960 0.593290 0.830130 -0.508457
O4    O     O_R   0.668040 0.593290 0.169870 -0.514808
O5    O     O_R   0.945600 0.250580 0.824860 -0.512387
O6    O     O_R   0.054400 0.250580 0.175140 -0.509363
O7    O     O_R   0.445600 0.750580 0.824860 -0.508485
O8    O     O_R   0.554400 0.750580 0.175140 -0.510606
O9    O     O_3   0.834640 0.334650 0.749500 -0.275534
O10   O     O_3   0.165360 0.334650 0.250500 -0.276379
O11   O     O_3   0.334640 0.834650 0.749500 -0.275205
O12   O     O_R   0.042980 0.451640 0.330080 -0.522632
O13   O     O_3   0.665360 0.834650 0.250500 -0.276487
O14   O     O_R   0.821450 0.543440 0.674610 -0.495070
O15   O     O_R   0.178550 0.543440 0.325390 -0.495665
O16   O     O_R   0.321450 0.043440 0.674610 -0.495659
O17   O     O_R   0.678550 0.043440 0.325390 -0.495074
O18   O     O_R   0.715320 0.458650 0.668100 -0.538232
O19   O     O_R   0.284680 0.458650 0.331900 -0.537889
O20   O     O_R   0.215320 0.958650 0.668100 -0.538008
O21   O     O_R   0.784680 0.958650 0.331900 -0.537883
O22   O     O_R   0.737170 0.209590 0.674530 -0.508719
O23   O     O_R   0.457020 0.951640 0.669920 -0.517387
O24   O     O_R   0.262830 0.209590 0.325470 -0.503716
O25   O     O_R   0.237170 0.709590 0.674530 -0.507563
O26   O     O_R   0.762830 0.709590 0.325470 -0.504610
O27   O     O_R   0.832710 0.092740 0.669580 -0.490745
O28   O     O_R   0.167290 0.092740 0.330420 -0.484104
O29   O     O_R   0.332710 0.592740 0.669580 -0.490850
O30   O     O_R   0.667290 0.592740 0.330420 -0.484070
O31   O     O_R   0.946290 0.250060 0.676040 -0.523830
O32   O     O_R   0.053710 0.250060 0.323960 -0.520911
O33   O     O_R   0.446290 0.750060 0.676040 -0.524626
O34   O     O_R   0.542980 0.951640 0.330080 -0.522876
O35   O     O_R   0.553710 0.750060 0.323960 -0.520687
O36   O     O_R   0.956270 0.452200 0.830470 -0.524461
O37   O     O_R   0.043730 0.452200 0.169530 -0.518083
O38   O     O_R   0.456270 0.952200 0.830470 -0.525421
O39   O     O_R   0.543730 0.952200 0.169530 -0.518147
O40   O     O_R   0.820760 0.543950 0.823440 -0.504852
O41   O     O_R   0.179240 0.543950 0.176560 -0.504223
O42   O     O_R   0.320760 0.043950 0.823440 -0.504289
O43   O     O_R   0.679240 0.043950 0.176560 -0.502737
O44   O     O_R   0.714570 0.459210 0.828640 -0.518863
O45   O     O_R   0.736470 0.210100 0.823360 -0.503478
O46   O     O_R   0.285430 0.459210 0.171360 -0.525018
O47   O     O_R   0.214570 0.959210 0.828640 -0.524914
O48   O     O_R   0.785430 0.959210 0.171360 -0.519870
O49   O     O_R   0.263530 0.210100 0.176640 -0.506244
O50   O     O_R   0.236470 0.710100 0.823360 -0.507374
O51   O     O_R   0.763530 0.710100 0.176640 -0.506429
O52   O     O_R   0.831960 0.093290 0.830130 -0.514345

loop_
_geom_bond_atom_site_label_1
_geom_bond_atom_site_label_2
_ccdc_geom_bond_type
C8    C9    S    
C83   C87   A    
Cr11  O26   S    
C58   C128  S    
C88   H67   S    
Cr8   O22   S    
C78   O28   A    
C73   C74   A    
Cr7   O13   S    
C35   C39   S    
C61   C68   A    
C2    H41   S    
C74   C83   A    
C49   O15   A    
C15   O42   A    
C102  C124  A    
C59   H62   S    
C12   O44   A    
C87   H56   S    
C90   C95   A    
C25   O8    A    
Cr8   O44   S    
C118  H19   S    
Cr6   O16   S    
C105  H2    S    
C48   H55   S    
C19   C123  S    
C59   C64   A    
C101  C123  A    
C80   O30   A    
Cr8   O9    S    
C11   H39   S    
C16   C90   S    
C57   C76   A    
C57   C129  S    
Cr10  O47   S    
Cr4   O35   S    
C10   C136  S    
Cr12  O9    S    
C6    C133  A    
C9    H37   S    
C95   C112  S    
C86   H45   S    
C61   H63   S    
C112  C117  S    
C25   O39   A    
C15   O47   A    
C120  H21   S    
C19   O50   A    
C113  H15   S    
C94   C98   A    
C22   O37   A    
C29   C33   A    
C94   C111  A    
C33   C45   S    
Cr9   O19   S    
C36   C47   S    
Cr3   O3    S    
C77   O22   A    
C12   O40   A    
Cr1   O14   S    
Cr2   O2    S    
C85   H69   S    
C24   C29   A    
C82   C126  A    
C26   C126  A    
Cr1   O1    S    
C110  H7    S    
C18   O2    A    
C16   O48   A    
C91   C96   A    
C55   C74   A    
C114  H16   S    
C117  H22   S    
C40   C43   S    
C21   C131  S    
C108  H5    S    
Cr5   O10   S    
C4    H27   S    
Cr8   O18   S    
C106  C123  A    
C92   C97   A    
C78   O24   A    
Cr7   O17   S    
C13   C28   A    
C2    C27   A    
C34   C46   S    
Cr2   O6    S    
C113  H10   S    
C111  H8    S    
C100  C122  A    
C81   C86   A    
C36   C52   A    
C14   O41   A    
C35   H47   S    
C103  H72   S    
C99   C121  A    
C18   O49   A    
C37   C53   A    
C8    H36   S    
C125  O31   A    
C66   C67   A    
Cr5   O15   S    
C80   O26   A    
Cr9   O10   S    
C22   C130  S    
C26   C71   S    
C79   O25   A    
C12   C94   S    
C65   H59   S    
C130  C134  A    
Cr7   O34   S    
C107  C111  A    
C107  C124  A    
C42   N4    T    
C17   O52   A    
C73   C81   A    
C49   O19   A    
C58   C75   A    
C4    C131  A    
C54   C80   S    
Cr11  O13   S    
C32   C44   S    
C63   C67   A    
Cr4   O4    S    
C60   O20   A    
C112  H9    S    
C30   C34   A    
C48   H51   S    
C8    C134  S    
C127  O32   A    
C101  C119  S    
C84   C88   A    
C116  H13   S    
C28   C32   A    
C62   C66   A    
C11   H35   S    
C71   O17   A    
C17   O45   A    
C129  O34   A    
C10   C11   S    
C85   C89   A    
C86   C87   A    
C68   C69   A    
C46   H49   S    
Cr10  O25   S    
C23   O38   A    
C129  O35   A    
C23   C133  S    
C56   C68   A    
Cr2   O28   S    
C64   H58   S    
C34   C51   A    
C13   H42   S    
C116  C120  S    
C7    H30   S    
C40   N2    T    
Cr9   O46   S    
C3    C133  A    
C42   C45   S    
Cr5   O41   S    
C93   H12   S    
Cr9   O49   S    
C75   C76   A    
C51   C77   S    
Cr11  O48   S    
C99   C117  S    
C66   H60   S    
C28   C49   S    
C98   C116  S    
C38   C54   A    
C63   C70   A    
C118  H24   S    
C117  H18   S    
C132  C136  A    
C21   O5    A    
C54   C115  A    
Cr2   O32   S    
Cr12  O52   S    
C79   O29   A    
C62   C72   A    
C52   C93   A    
C47   H50   S    
C41   N3    T    
C32   C37   A    
C63   H65   S    
C37   C48   S    
C109  H6    S    
C46   H53   S    
C51   C82   A    
C14   C92   S    
C7    C132  A    
C55   C69   A    
C9    H32   S    
C31   C43   S    
C18   C122  S    
C104  H23   S    
C77   O27   A    
C107  H4    S    
C9    C135  S    
C84   H70   S    
C120  H26   S    
Cr6   O11   S    
C55   C127  S    
Cr6   O38   S    
C26   C30   A    
Cr4   O30   S    
C39   N1    T    
C22   O6    A    
C59   C69   A    
C27   C31   A    
Cr3   O11   S    
Cr12  O31   S    
C52   C78   S    
C41   C44   S    
C116  H17   S    
Cr2   O10   S    
C100  C118  S    
C71   O21   A    
Cr1   O9    S    
C89   H71   S    
C103  C121  A    
C30   C35   S    
C60   O16   A    
C3    C136  A    
C115  H34   S    
C102  C120  S    
C125  O1    A    
C106  C110  A    
Cr1   O36   S    
C17   C121  S    
C45   H46   S    
C105  C109  A    
Cr10  O11   S    
C5    C130  A    
Cr12  O27   S    
C50   H52   S    
C56   C73   A    
Cr9   O24   S    
Cr3   O29   S    
C50   H57   S    
C128  O23   A    
Cr5   O37   S    
C16   O43   A    
C2    C93   A    
C58   C70   A    
Cr6   O42   S    
C4    C5    A    
Cr10  O50   S    
C70   C72   A    
C14   O46   A    
C21   O36   A    
Cr4   O8    S    
C6    C7    A    
C38   C50   S    
C1    O14   A    
C112  H14   S    
C96   C100  A    
C134  C135  A    
C131  C135  A    
C33   C38   A    
C20   O4    A    
C27   C60   S    
C53   C79   S    
C128  O33   A    
C91   C109  A    
C126  H40   S    
Cr8   O45   S    
C97   C114  S    
C20   O51   A    
C90   C108  A    
C6    H29   S    
C98   C102  A    
C119  H25   S    
C19   O3    A    
C83   H66   S    
C25   C132  S    
C8    H31   S    
C92   C110  A    
C1    C29   S    
C114  C119  S    
C45   C50   S    
C76   C85   A    
Cr5   O12   S    
Cr11  O51   S    
Cr3   O33   S    
C64   C65   A    
Cr4   O13   S    
C10   H38   S    
C105  C122  A    
C67   H61   S    
C24   H43   S    
Cr7   O43   S    
C57   C72   A    
C75   C84   A    
C23   O7    A    
C114  H11   S    
C20   C124  S    
C82   H1    S    
C3    C11   S    
C1    O18   A    
C15   C91   S    
C113  C118  S    
C81   H68   S    
Cr1   O40   S    
C61   C65   A    
C106  H3    S    
Cr7   O39   S    
C88   C89   A    
Cr11  O21   S    
C24   C115  A    
C56   C125  S    
Cr6   O23   S    
C44   H44   S    
Cr10  O20   S    
C96   C113  S    
C13   C104  A    
C10   H33   S    
C62   H64   S    
C31   C36   A    
C43   H48   S    
C103  C108  A    
Cr3   O7    S    
Cr12  O5    S    
C53   C104  A    
C95   C99   A    
C5    H28   S    
C47   H54   S    
C127  O12   A    
C35   C46   S    
C43   C47   S    
C119  H20   S    
C97   C101  A    
C44   C48   S    
