data_mof_unit_8110.cif
_audit_creation_date              2013-03-05T16:47:43-0500
_audit_creation_method            fapswitch 2.2
_symmetry_space_group_name_H-M    P1
_symmetry_Int_Tables_number       1
_space_group_crystal_system       triclinic
_cell_length_a                    11.050809
_cell_length_b                    13.202152
_cell_length_c                    11.833719
_cell_angle_alpha                 99.07342
_cell_angle_beta                  95.727564
_cell_angle_gamma                 93.506368
_cell_volume                      1691.15638969

loop_
_atom_site_label
_atom_site_type_symbol
_atom_site_description
_atom_site_fract_x
_atom_site_fract_y
_atom_site_fract_z
_atom_type_partial_charge
O1    O     O_R   0.506570 0.354460 0.582000 -0.563747
O2    O     O_R   0.493430 0.645540 0.418000 -0.574713
O3    O     O_R   0.490940 0.341410 0.386200 -0.590958
O4    O     O_R   0.509060 0.658590 0.613800 -0.591767
C1    C     C_R   0.500870 0.299886 0.480158 0.808580
C2    C     C_R   0.495017 0.699620 0.519799 0.806254
O5    O     O_R   0.327460 0.506540 0.597900 -0.569267
O6    O     O_R   0.672540 0.493460 0.402100 -0.564934
O7    O     O_R   0.311830 0.493480 0.402100 -0.576600
O8    O     O_R   0.688170 0.506520 0.597900 -0.577678
C3    C     C_R   0.262381 0.504369 0.498226 0.803340
C4    C     C_R   0.737959 0.498817 0.501859 0.784616
Cu1   Cu    Cu3+1 0.509250 0.507730 0.615930 0.989794
Cu2   Cu    Cu3+1 0.490750 0.492270 0.384070 0.989368
H1    H     H_    0.150655 0.481483 0.960776 0.153091
H2    H     H_    0.823129 0.462494 0.015968 0.144060
C5    C     C_R   0.151633 0.573893 0.125227 -0.181502
C6    C     C_R   0.854071 0.391397 0.847037 -0.107399
H3    H     H_    0.183816 0.642590 0.094504 0.168579
H4    H     H_    0.833585 0.315093 0.865775 0.177338
C7    C     C_R   0.122501 0.579092 0.238419 0.316587
C8    C     C_R   0.894980 0.404773 0.741576 0.288571
C9    C     C_R   0.082681 0.487162 0.276017 0.025698
C10   C     C_R   0.919362 0.506045 0.719910 -0.002719
C11   C     C_R   0.058856 0.394540 0.196272 -0.098974
C12   C     C_R   0.926363 0.590070 0.810769 -0.080631
C13   C     C_R   0.085059 0.392168 0.082219 -0.021627
C14   C     C_R   0.891875 0.574207 0.918260 -0.020848
C15   C     C_R   0.132537 0.481689 0.048261 -0.228513
C16   C     C_R   0.850102 0.475660 0.933745 -0.237112
C17   C     C_R   0.920592 0.485916 0.399194 -0.252650
C18   C     C_R   0.079895 0.533402 0.599560 -0.273343
H5    H     H_    0.860084 0.471958 0.319477 0.170375
H6    H     H_    0.139989 0.555484 0.678221 0.166145
C19   C     C_R   0.872543 0.500253 0.504454 -0.074454
C20   C     C_R   0.128375 0.511258 0.494919 -0.070243
C21   C     C_R   0.954885 0.520444 0.606438 0.025933
C22   C     C_R   0.046105 0.491526 0.392789 0.063956
C23   C     C_R   0.485622 0.811593 0.528671 -0.109618
C24   C     C_R   0.499465 0.187001 0.471640 -0.120039
C25   C     C_R   0.464945 0.022314 0.346543 -0.040160
C26   C     C_R   0.508108 0.976004 0.654133 -0.040304
C27   C     C_R   0.476540 0.128429 0.362675 -0.203554
C28   C     C_R   0.503332 0.870035 0.637891 -0.206805
C29   C     C_R   0.518723 0.137587 0.569279 -0.081454
C30   C     C_R   0.459316 0.860388 0.431554 -0.085095
C31   C     C_R   0.500408 0.028695 0.557138 0.057066
C32   C     C_R   0.473558 0.969547 0.443527 0.052004
H7    H     H_    0.513294 0.832475 0.713058 0.181432
H8    H     H_    0.468777 0.166035 0.287470 0.181740
N1    N     N_R   0.523180 0.519350 0.790130 -0.217057
N2    N     N_R   0.476820 0.480650 0.209870 -0.215002
C33   C     C_R   0.408137 0.381012 0.021208 -0.150187
C34   C     C_R   0.586871 0.617284 0.979735 -0.166732
C35   C     C_R   0.405881 0.400856 0.142426 0.069237
C36   C     C_R   0.588366 0.601365 0.858966 0.065920
C37   C     C_R   0.551551 0.543074 0.157506 0.436166
C38   C     C_R   0.456447 0.449490 0.839730 0.431033
C39   C     C_R   0.533474 0.540201 0.034523 -0.100222
C40   C     C_R   0.464743 0.455460 0.963910 -0.078759
N3    N     N_2   0.373291 0.375907 0.765123 -0.381371
H9    H     H_    0.392762 0.300415 0.756581 0.266193
C41   C     C_3   0.245042 0.391093 0.765002 -0.644849
H10   H     H_    0.200705 0.340634 0.817446 0.228781
H11   H     H_    0.199934 0.369827 0.675830 0.238661
H12   H     H_    0.232002 0.472204 0.798607 0.203714
N4    N     N_2   0.669429 0.579834 0.215927 -0.415965
H13   H     H_    0.741222 0.559565 0.170061 0.215471
C42   C     C_3   0.689444 0.681528 0.284473 -0.578487
H14   H     H_    0.764330 0.726470 0.254740 0.214239
H15   H     H_    0.716808 0.676373 0.375868 0.227393
H16   H     H_    0.608729 0.724692 0.276972 0.243136
C43   C     C_1   0.656767 0.675743 0.808197 0.321525
N5    N     N_1   0.711722 0.736489 0.769109 -0.291133
C44   C     C_1   0.335649 0.329746 0.195975 0.328565
N6    N     N_1   0.279413 0.271527 0.237466 -0.294694
C45   C     C_1   0.362740 0.279247 0.961849 0.244525
N7    N     N_1   0.326361 0.197428 0.916165 -0.233219
C46   C     C_1   0.622858 0.720059 0.041657 0.288664
N8    N     N_1   0.650658 0.803490 0.087657 -0.246720
N9    N     N_2   0.131465 0.676966 0.312232 -0.427414
H17   H     H_    0.174982 0.735338 0.280076 0.273705
C47   C     C_3   0.021304 0.710909 0.358238 -0.653615
H18   H     H_    0.029827 0.710511 0.452380 0.250914
H19   H     H_    0.940036 0.661161 0.315977 0.231401
H20   H     H_    0.006953 0.790719 0.343775 0.233012
N10   N     N_2   0.931502 0.318363 0.666909 -0.446688
H21   H     H_    0.987784 0.333952 0.606521 0.259446
C48   C     C_3   0.841170 0.234429 0.622986 -0.615771
H22   H     H_    0.880239 0.176715 0.560891 0.230699
H23   H     H_    0.761307 0.263300 0.576973 0.217037
H24   H     H_    0.815213 0.195031 0.693962 0.247356
C49   C     C_1   0.006920 0.302265 0.231405 0.276310
N11   N     N_1   0.965473 0.228803 0.259551 -0.257395
C50   C     C_1   0.974094 0.691118 0.795021 0.272959
N12   N     N_1   0.012381 0.771645 0.782389 -0.243213
C51   C     C_1   0.064305 0.298238 0.999433 0.234794
N13   N     N_1   0.047288 0.222754 0.933519 -0.239238
C52   C     C_1   0.904032 0.657653 0.014379 0.231676
N14   N     N_1   0.915337 0.725186 0.090773 -0.279992
C53   C     C_1   0.414961 0.798126 0.321503 0.244556
N15   N     N_1   0.382501 0.747954 0.233005 -0.303868
C54   C     C_1   0.568004 0.198015 0.679062 0.227324
N16   N     N_1   0.607893 0.246339 0.766631 -0.300984
C55   C     C_1   0.447270 0.974116 0.226783 0.277769
N17   N     N_1   0.432965 0.937560 0.130376 -0.218987
C56   C     C_1   0.519811 0.024199 0.773797 0.281650
N18   N     N_1   0.529680 0.060733 0.870153 -0.220089

loop_
_geom_bond_atom_site_label_1
_geom_bond_atom_site_label_2
_geom_bond_distance
_ccdc_geom_bond_type
C28   H7    1.084195 S    
N10   H21   1.029221 S    
C41   H11   1.106914 S    
C11   C49   1.451956 S    
C49   N11   1.157301 T    
C13   C15   1.396281 A    
C5    C15   1.391547 A    
C43   N5    1.157336 T    
C50   N12   1.157305 T    
C44   N6    1.157395 T    
C51   N13   1.157374 T    
C45   N7    1.157588 T    
O5    C3    1.314079 A    
C53   N15   1.158170 T    
C25   C55   1.447980 S    
C47   H18   1.109492 S    
O1    C1    1.296514 A    
C18   C20   1.394002 A    
C3    C20   1.486207 S    
C19   C21   1.416060 A    
C10   C12   1.410425 A    
C42   H14   1.106608 S    
C37   C39   1.443261 A    
C38   C40   1.452509 A    
N3    C41   1.443348 S    
N1    C36   1.365347 A    
O4    Cu1   1.995935 S    
C42   H15   1.107368 S    
C29   C54   1.448987 S    
Cu1   N1    2.032431 S    
C24   C27   1.386077 A    
Cu2   N2    2.032430 S    
C31   C32   1.437448 A    
C56   N18   1.157581 T    
C17   H5    1.084051 S    
H1    C15   1.073519 S    
C6    C16   1.395436 A    
C48   H23   1.109661 S    
C26   C56   1.447769 S    
N2    C35   1.367565 A    
C35   C44   1.442890 S    
C38   N3    1.423371 S    
C29   C31   1.421892 A    
C41   H12   1.105260 S    
C39   C40   1.414673 A    
Cu1   Cu2   2.705181 S    
C25   C27   1.379970 A    
O2    C2    1.297783 A    
C26   C28   1.378803 A    
C37   N4    1.430894 S    
N9    C47   1.449575 S    
C33   C40   1.427134 A    
N9    H17   1.026461 S    
C30   C32   1.423060 A    
C34   C39   1.419581 A    
C33   C35   1.419980 A    
C24   C29   1.418288 A    
C30   C53   1.448310 S    
C34   C36   1.413257 A    
N4    H13   1.030413 S    
O4    C2    1.311782 A    
C18   C21   1.393647 A    
C5    C7    1.400837 A    
C46   N8    1.157599 T    
C4    C19   1.483407 S    
C18   H6    1.076964 S    
C42   H16   1.091130 S    
C33   C45   1.449035 S    
O7    Cu2   2.010504 S    
C52   N14   1.156462 T    
O6    C4    1.310846 A    
C10   C21   1.473077 S    
N1    C38   1.383094 A    
C8    N10   1.433398 S    
C48   H24   1.107203 S    
O7    C3    1.302049 A    
O3    Cu2   1.995933 S    
O8    C4    1.303826 A    
C23   C30   1.417758 A    
C14   C52   1.442803 S    
C47   H19   1.105722 S    
C7    N9    1.433015 S    
C7    C9    1.417268 A    
C8    C10   1.415544 A    
O1    Cu1   1.997663 S    
C20   C22   1.416863 A    
C34   C46   1.448588 S    
C12   C50   1.450727 S    
C13   C51   1.444766 S    
O6    Cu2   1.997770 S    
C36   C43   1.443068 S    
C6    C8    1.401933 A    
O3    C1    1.313047 A    
O8    Cu1   2.010504 S    
C27   H8    1.084064 S    
C23   C28   1.385865 A    
C11   C13   1.404362 A    
C9    C22   1.471538 S    
C55   N17   1.157793 T    
C12   C14   1.406473 A    
C17   C22   1.394716 A    
N10   C48   1.440150 S    
C17   C19   1.392576 A    
C14   C16   1.399278 A    
C5    H3    1.082384 S    
C25   C32   1.431784 A    
C6    H4    1.080642 S    
C26   C31   1.431149 A    
C9    C11   1.414990 A    
N3    H9    1.024035 S    
O2    Cu2   1.997665 S    
N2    C37   1.387495 A    
C41   H10   1.104609 S    
O5    Cu1   1.997770 S    
C47   H20   1.112002 S    
C1    C24   1.476794 S    
C54   N16   1.158054 T    
C2    C23   1.476194 S    
N4    C42   1.446992 S    
C48   H22   1.110814 S    
H2    C16   1.081981 S    
