data_mof_unit_54575.cif
_audit_creation_date              2012-12-11T16:13:52-0500
_audit_creation_method            fapswitch 2.2
_symmetry_space_group_name_H-M    P1
_symmetry_Int_Tables_number       1
_space_group_crystal_system       triclinic
_cell_length_a                    26.149174
_cell_length_b                    7.256874
_cell_length_c                    23.765625
_cell_angle_alpha                 89.999878
_cell_angle_beta                  101.364923
_cell_angle_gamma                 89.999904
_cell_volume                      4421.3669003

loop_
_atom_site_label
_atom_site_type_symbol
_atom_type_description
_atom_site_fract_x
_atom_site_fract_y
_atom_site_fract_z
_atom_type_partial_charge
O1    O     O_R   0.192370 0.384760 0.193350 -0.531774
O2    O     O_R   0.807630 0.615240 0.806650 -0.531773
O3    O     O_R   0.307630 0.884760 0.306650 -0.531773
O4    O     O_R   0.692370 0.115240 0.693350 -0.531774
O5    O     O_R   0.296630 0.711620 0.196480 -0.541830
O6    O     O_R   0.703370 0.288380 0.803520 -0.541830
O7    O     O_R   0.203370 0.211620 0.303520 -0.541830
O8    O     O_R   0.796630 0.788380 0.696480 -0.541830
C1    C     C_R   0.312580 0.545807 0.184195 0.685108
C2    C     C_R   0.687419 0.454193 0.815805 0.685109
C3    C     C_R   0.187419 0.045807 0.315805 0.685108
C4    C     C_R   0.812581 0.954193 0.684195 0.685108
O9    O     O_R   0.192080 0.714290 0.186600 -0.531493
O10   O     O_R   0.807920 0.285710 0.813400 -0.531493
O11   O     O_R   0.307920 0.214290 0.313400 -0.531492
O12   O     O_R   0.692080 0.785710 0.686600 -0.531492
O13   O     O_R   0.202340 0.887460 0.296690 -0.538502
O14   O     O_R   0.797660 0.112540 0.703310 -0.538501
O15   O     O_R   0.297660 0.387460 0.203310 -0.538502
O16   O     O_R   0.702340 0.612540 0.796690 -0.538502
C5    C     C_R   0.173725 0.545940 0.171372 0.713878
C6    C     C_R   0.826275 0.454060 0.828628 0.713878
C7    C     C_R   0.326275 0.045940 0.328628 0.713878
C8    C     C_R   0.673725 0.954060 0.671372 0.713879
O17   O     O_3   0.253490 0.552180 0.286130 -0.375089
O18   O     O_3   0.746510 0.447820 0.713870 -0.375089
O19   O     O_3   0.246510 0.052180 0.213870 -0.375089
O20   O     O_3   0.753490 0.947820 0.786130 -0.375089
V1    V     V_3+5 0.249350 0.825920 0.243300 1.415790
V2    V     V_3+5 0.750650 0.174080 0.756700 1.415790
V3    V     V_3+5 0.250650 0.325920 0.256700 1.415789
V4    V     V_3+5 0.749350 0.674080 0.743300 1.415789
C9    C     C_3   0.530807 0.870608 0.486641 0.512468
C10   C     C_3   0.469193 0.129392 0.513359 0.512468
C11   C     C_3   0.969194 0.370605 0.013359 0.512469
C12   C     C_3   0.030806 0.629395 0.986641 0.512469
C13   C     C_3   0.514496 0.044376 0.449983 -0.268106
C14   C     C_3   0.485504 0.955623 0.550017 -0.268106
C15   C     C_3   0.985504 0.544374 0.050017 -0.268100
C16   C     C_3   0.014496 0.455626 0.949983 -0.268100
H1    H     H_    0.526307 0.078300 0.408817 0.134111
H2    H     H_    0.473693 0.921700 0.591183 0.134111
H3    H     H_    0.973693 0.578294 0.091184 0.134112
H4    H     H_    0.026307 0.421706 0.908816 0.134112
H5    H     H_    0.546800 0.296654 0.511270 0.146216
H6    H     H_    0.453200 0.703346 0.488730 0.146216
H7    H     H_    0.953198 0.796651 0.988730 0.146215
H8    H     H_    0.046802 0.203349 0.011270 0.146215
C17   C     C_1   0.372023 0.036843 0.374467 -0.174826
C18   C     C_1   0.627977 0.963157 0.625533 -0.174826
C19   C     C_1   0.127977 0.536844 0.125533 -0.174826
C20   C     C_1   0.872023 0.463156 0.874467 -0.174826
C21   C     C_3   0.474270 0.836772 0.494381 -0.293995
C22   C     C_3   0.525730 0.163228 0.505619 -0.293995
C23   C     C_3   0.025731 0.336773 0.005619 -0.294001
C24   C     C_3   0.974269 0.663227 0.994381 -0.294001
C25   C     C_3   0.457832 0.012890 0.458466 0.061843
C26   C     C_3   0.542168 0.987110 0.541534 0.061843
C27   C     C_3   0.042168 0.512892 0.041534 0.061842
C28   C     C_3   0.957832 0.487108 0.958466 0.061842
C29   C     C_1   0.410575 0.027251 0.412453 0.010379
C30   C     C_1   0.589425 0.972749 0.587547 0.010379
C31   C     C_1   0.089425 0.527253 0.087547 0.010377
C32   C     C_1   0.910575 0.472746 0.912453 0.010377
C33   C     C_R   0.869228 0.134444 0.629332 -0.157350
C34   C     C_R   0.130772 0.865556 0.370667 -0.157350
C35   C     C_R   0.630785 0.634445 0.870682 -0.157351
C36   C     C_R   0.369215 0.365555 0.129318 -0.157351
H9    H     H_    0.855570 0.262230 0.644718 0.123473
H10   H     H_    0.144430 0.737770 0.355282 0.123474
H11   H     H_    0.644453 0.762233 0.855309 0.123476
H12   H     H_    0.355547 0.237767 0.144691 0.123476
C37   C     C_R   0.905716 0.143324 0.593445 -0.136464
C38   C     C_R   0.094284 0.856676 0.406555 -0.136464
C39   C     C_R   0.594297 0.643326 0.906570 -0.136462
C40   C     C_R   0.405703 0.356674 0.093430 -0.136462
H13   H     H_    0.918920 0.277498 0.582354 0.134861
H14   H     H_    0.081080 0.722502 0.417646 0.134861
H15   H     H_    0.581103 0.777501 0.917673 0.134861
H16   H     H_    0.418897 0.222499 0.082327 0.134861
C41   C     C_R   0.924954 0.981597 0.572384 0.019796
C42   C     C_R   0.075046 0.018403 0.427615 0.019796
C43   C     C_R   0.575046 0.481596 0.927616 0.019797
C44   C     C_R   0.424953 0.518404 0.072384 0.019797
C45   C     C_R   0.906481 0.810683 0.588053 -0.134173
C46   C     C_R   0.093519 0.189317 0.411947 -0.134173
C47   C     C_R   0.593506 0.310680 0.911932 -0.134174
C48   C     C_R   0.406494 0.689320 0.088068 -0.134174
H17   H     H_    0.920315 0.683110 0.572725 0.138934
H18   H     H_    0.079685 0.316889 0.427275 0.138934
H19   H     H_    0.579663 0.183106 0.927248 0.138933
H20   H     H_    0.420337 0.816894 0.072752 0.138933
C49   C     C_R   0.869960 0.801727 0.623933 -0.158022
C50   C     C_R   0.130039 0.198273 0.376067 -0.158022
C51   C     C_R   0.630027 0.301724 0.876053 -0.158021
C52   C     C_R   0.369973 0.698276 0.123947 -0.158021
H21   H     H_    0.856915 0.667433 0.635127 0.122358
H22   H     H_    0.143085 0.332567 0.364873 0.122358
H23   H     H_    0.643063 0.167429 0.864847 0.122352
H24   H     H_    0.356937 0.832571 0.135153 0.122352
C53   C     C_R   0.850848 0.963495 0.645217 -0.046572
C54   C     C_R   0.149152 0.036504 0.354783 -0.046572
C55   C     C_R   0.649152 0.463495 0.854783 -0.046571
C56   C     C_R   0.350848 0.536505 0.145217 -0.046571
N1    N     N_R   0.982895 0.835157 0.514295 -0.280274
N2    N     N_R   0.017104 0.164843 0.485705 -0.280274
N3    N     N_R   0.517086 0.335152 0.985683 -0.280271
N4    N     N_R   0.482914 0.664848 0.014317 -0.280271
N5    N     N_R   0.017976 0.843778 0.480538 -0.283256
N6    N     N_R   0.982024 0.156222 0.519462 -0.283256
N7    N     N_R   0.482006 0.343773 0.019440 -0.283253
N8    N     N_R   0.517994 0.656227 0.980560 -0.283253
C57   C     C_R   0.035907 0.008814 0.465463 0.514601
C58   C     C_R   0.964093 0.991185 0.534537 0.514601
C59   C     C_R   0.464093 0.508815 0.034537 0.514593
C60   C     C_R   0.535907 0.491185 0.965463 0.514593
O21   O     O_3   0.566206 0.735908 0.474928 -0.550480
C61   C     C_3   0.543134 0.634398 0.425839 0.079147
H25   H     H_    0.527727 0.726566 0.388884 0.117896
H26   H     H_    0.510970 0.546699 0.435321 0.126577
C62   C     C_3   0.583971 0.509077 0.408405 -0.681621
H27   H     H_    0.600636 0.415609 0.444339 0.225722
H28   H     H_    0.565842 0.424691 0.370753 0.173108
H29   H     H_    0.615858 0.593104 0.396817 0.227562
O22   O     O_3   0.433793 0.264092 0.525072 -0.550480
C63   C     C_3   0.456866 0.365602 0.574161 0.079146
H30   H     H_    0.489030 0.453301 0.564679 0.126578
H31   H     H_    0.472273 0.273435 0.611116 0.117896
C64   C     C_3   0.416029 0.490923 0.591595 -0.681620
H32   H     H_    0.384142 0.406896 0.603183 0.227562
H33   H     H_    0.434158 0.575309 0.629247 0.173108
H34   H     H_    0.399364 0.584391 0.555661 0.225723
O23   O     O_3   0.933795 0.235903 0.025073 -0.550480
C65   C     C_3   0.956871 0.134386 0.074160 0.079145
H35   H     H_    0.972282 0.226547 0.111115 0.117895
H36   H     H_    0.989031 0.046681 0.064673 0.126579
C66   C     C_3   0.916034 0.009071 0.091597 -0.681614
H37   H     H_    0.899363 0.915612 0.055663 0.225724
H38   H     H_    0.934165 0.924675 0.129246 0.173107
H39   H     H_    0.884150 0.093104 0.103192 0.227559
O24   O     O_3   0.066205 0.764096 0.974927 -0.550481
C67   C     C_3   0.043129 0.865614 0.925840 0.079145
H40   H     H_    0.010969 0.953319 0.935327 0.126579
H41   H     H_    0.027718 0.773453 0.888885 0.117895
C68   C     C_3   0.083966 0.990929 0.908403 -0.681615
H42   H     H_    0.115850 0.906896 0.896808 0.227559
H43   H     H_    0.065835 0.075325 0.870754 0.173107
H44   H     H_    0.100637 0.084388 0.944337 0.225724

loop_
_geom_bond_atom_site_label_1
_geom_bond_atom_site_label_2
_ccdc_geom_bond_type
O17   V3    S    
H8    C23   S    
C43   C47   A    
C48   C52   A    
C26   C30   S    
C63   H30   S    
C16   C28   S    
C23   C27   S    
O19   V1    S    
O13   V1    S    
C34   C54   A    
O3    C7    A    
C33   C53   A    
C12   C27   S    
O15   V3    S    
C40   C44   A    
C65   C66   S    
C68   H42   S    
C35   C55   A    
O1    C5    A    
C66   H38   S    
C9    C26   S    
N4    C59   A    
O9    V1    S    
C2    C55   S    
O10   V2    S    
C14   H2    S    
C47   H19   S    
C1    C56   S    
O16   V4    S    
C11   C15   S    
O4    C8    A    
C51   H23   S    
C7    C17   S    
N8    C60   A    
C50   H22   S    
C34   C38   A    
O1    V3    S    
C33   C37   A    
O2    V4    S    
O3    V1    S    
C61   H25   S    
C62   H29   S    
C46   C50   A    
C14   C26   S    
C45   C49   A    
C1    O15   A    
C48   H20   S    
C2    O16   A    
C47   C51   A    
C41   C58   S    
O2    C6    A    
C10   C25   S    
C63   H31   S    
O14   V2    S    
N6    C58   A    
N5    C57   A    
C64   H34   S    
O11   C7    A    
O22   C63   S    
O12   C8    A    
C8    C18   S    
C67   C68   S    
C11   O23   S    
C38   C42   A    
C37   C41   A    
C68   H43   S    
C51   C55   A    
O5    V1    S    
C9    C21   S    
C9    O21   S    
C66   H39   S    
O4    V2    S    
O7    V3    S    
N2    C57   A    
C11   C23   S    
O8    V4    S    
C36   C56   A    
N1    C58   A    
C12   C16   S    
C17   C29   T    
C36   H12   S    
C46   H18   S    
C49   C53   A    
C21   C25   S    
O18   V4    S    
C15   H3    S    
C63   C64   S    
C42   C46   A    
C9    C13   S    
N4    N8    A    
C11   C28   S    
C61   C62   S    
C44   C48   A    
O7    C3    A    
C12   O24   S    
O5    C1    A    
C12   C24   S    
C15   C24   S    
O8    C4    A    
C16   C23   S    
C15   C27   S    
C19   C31   T    
O11   V3    S    
C62   H27   S    
C13   C22   S    
C61   H26   S    
O6    V2    S    
H5    C22   S    
C10   C22   S    
C44   C59   S    
C52   C56   A    
C20   C32   T    
O23   C65   S    
C18   C30   T    
C67   H41   S    
O12   V4    S    
C49   H21   S    
C5    C19   S    
C68   H44   S    
C6    C20   S    
C64   H32   S    
C22   C26   S    
N1    N5    A    
C3    O13   A    
C45   H17   S    
C10   C14   S    
N3    N7    A    
C43   C60   S    
C40   H16   S    
C42   C57   S    
O6    C2    A    
C65   H36   S    
C25   C29   S    
C65   H35   S    
C36   C40   A    
C66   H37   S    
C27   C31   S    
C28   C32   S    
O10   C6    A    
O20   V2    S    
C4    C53   S    
O24   C67   S    
O9    C5    A    
C39   C43   A    
C34   H10   S    
C14   C21   S    
C10   O22   S    
C33   H9    S    
C52   H24   S    
H6    C21   S    
C3    C54   S    
C35   H11   S    
C13   H1    S    
C41   C45   A    
N3    C60   A    
C62   H28   S    
C24   C28   S    
C16   H4    S    
C35   C39   A    
C50   C54   A    
N2    N6    A    
C38   H14   S    
C4    O14   A    
C37   H13   S    
C67   H40   S    
N7    C59   A    
O21   C61   S    
C39   H15   S    
C13   C25   S    
H7    C24   S    
C64   H33   S    
