data_mof_unit_39057.cif
_audit_creation_date              2012-12-10T17:56:18-0500
_audit_creation_method            fapswitch 2.2
_symmetry_space_group_name_H-M    P1
_symmetry_Int_Tables_number       1
_space_group_crystal_system       triclinic
_cell_length_a                    13.03518
_cell_length_b                    10.829892
_cell_length_c                    9.60989
_cell_angle_alpha                 90.367017
_cell_angle_beta                  98.020702
_cell_angle_gamma                 92.214536
_cell_volume                      1342.25466454

loop_
_atom_site_label
_atom_site_type_symbol
_atom_type_description
_atom_site_fract_x
_atom_site_fract_y
_atom_site_fract_z
_atom_type_partial_charge
C1    C     C_R   0.499373 0.262418 0.499565 0.944040
C2    C     C_R   0.500626 0.737582 0.500435 0.944040
C3    C     C_R   0.500841 0.871552 0.500762 -0.501064
C4    C     C_R   0.499158 0.128448 0.499238 -0.501062
C5    C     C_R   0.436442 0.418214 0.059062 -0.014821
C6    C     C_R   0.563555 0.581789 0.940938 -0.014824
C7    C     C_R   0.437559 0.419045 0.911439 0.748677
C8    C     C_R   0.562440 0.580956 0.088561 0.748683
C9    C     C_R   0.300144 0.500638 0.471274 0.854451
C10   C     C_R   0.699857 0.499362 0.528726 0.854450
C11   C     C_R   0.814106 0.498059 0.548747 -0.217700
C12   C     C_R   0.185896 0.501947 0.451253 -0.217692
C13   C     C_R   0.017237 0.531073 0.313374 0.220467
C14   C     C_R   0.982767 0.468954 0.686629 0.220510
C15   C     C_R   0.126465 0.539870 0.324721 0.051384
C16   C     C_R   0.873538 0.460150 0.675282 0.051383
C17   C     C_R   0.135360 0.464124 0.564195 0.576422
C18   C     C_R   0.864640 0.535882 0.435803 0.576443
C19   C     C_R   0.029953 0.483695 0.563559 -0.125755
C20   C     C_R   0.970049 0.516321 0.436442 -0.125757
C21   C     C_R   0.545668 0.065714 0.397887 0.474802
C22   C     C_R   0.454329 0.934285 0.602112 0.474795
C23   C     C_R   0.546634 0.937887 0.398778 0.529126
C24   C     C_R   0.453365 0.062113 0.601222 0.529126
Cu1   Cu    Cu3+1 0.500000 0.500020 0.640660 1.062248
Cu2   Cu    Cu3+1 0.500000 0.499980 0.359340 1.062252
N1    N     N_R   0.500030 0.500030 0.852080 -0.264099
N2    N     N_R   0.499970 0.499970 0.147920 -0.264099
O1    O     O_R   0.499990 0.319660 0.618740 -0.499958
O2    O     O_R   0.500010 0.680340 0.381260 -0.499957
O3    O     O_R   0.499990 0.319630 0.381170 -0.561645
O4    O     O_R   0.500010 0.680370 0.618830 -0.561647
O5    O     O_R   0.349000 0.499990 0.599490 -0.474135
O6    O     O_R   0.651000 0.500010 0.400510 -0.474130
O7    O     O_R   0.348990 0.499960 0.361920 -0.635967
O8    O     O_R   0.651010 0.500040 0.638080 -0.635969
F1    F     F_    0.811945 0.598794 0.328357 -0.599434
F2    F     F_    0.188052 0.401200 0.671639 -0.599415
C25   C     C_3   0.822501 0.410377 0.797004 -0.749185
H1    H     H_    0.877606 0.364643 0.876786 0.228651
H2    H     H_    0.787958 0.486497 0.849966 0.238959
H3    H     H_    0.762113 0.338257 0.758744 0.244189
C26   C     C_3   0.177505 0.589659 0.203008 -0.749197
H4    H     H_    0.122399 0.635405 0.123236 0.228657
H5    H     H_    0.237895 0.661773 0.241282 0.244188
H6    H     H_    0.212045 0.513546 0.150033 0.238959
C27   C     C_3   0.953754 0.517533 0.169417 -0.724435
H7    H     H_    0.878147 0.467579 0.171907 0.263125
H8    H     H_    0.941132 0.609263 0.120465 0.250913
H9    H     H_    0.994755 0.457389 0.103706 0.197856
C28   C     C_3   0.046248 0.482523 0.830584 -0.724502
H10   H     H_    0.121873 0.532417 0.828082 0.263153
H11   H     H_    0.005270 0.542728 0.896258 0.197868
H12   H     H_    0.058829 0.390813 0.879586 0.250861
F3    F     F_    0.592815 0.127951 0.300420 -0.586038
F4    F     F_    0.407180 0.872049 0.699577 -0.586042
F5    F     F_    0.594897 0.879603 0.302231 -0.526247
F6    F     F_    0.405101 0.120397 0.697768 -0.526245
C29   C     C_3   0.363797 0.322496 0.109989 -0.588035
H13   H     H_    0.285396 0.328239 0.048485 0.216139
H14   H     H_    0.392541 0.228991 0.093882 0.261218
H15   H     H_    0.352873 0.331716 0.219873 0.239544
C30   C     C_3   0.636189 0.677519 0.890007 -0.588052
H16   H     H_    0.607422 0.771017 0.906083 0.261223
H17   H     H_    0.714587 0.671807 0.951530 0.216157
H18   H     H_    0.647131 0.668281 0.780131 0.239537
F7    F     F_    0.374984 0.338160 0.827387 -0.533690
F8    F     F_    0.625014 0.661842 0.172613 -0.533694

loop_
_geom_bond_atom_site_label_1
_geom_bond_atom_site_label_2
_ccdc_geom_bond_type
C6    C30   S    
C12   C17   A    
C6    C8    A    
C26   H4    S    
C30   H17   S    
C11   C18   A    
C8    F8    S    
C14   C16   A    
Cu1   N1    S    
C5    N2    A    
C11   C16   A    
C19   C20   A    
Cu2   N2    S    
C27   H7    S    
C12   C15   A    
C22   F4    S    
C2    O2    A    
C1    C4    S    
C28   H12   S    
Cu1   O4    S    
C13   C15   A    
C2    C3    S    
C30   H18   S    
C15   C26   S    
C29   H13   S    
C27   H8    S    
C9    O5    A    
C4    C21   A    
C26   H5    S    
C6    N1    A    
C8    N2    A    
C2    O4    A    
C17   C19   A    
C18   F1    S    
Cu2   O2    S    
C27   H9    S    
C18   C20   A    
C17   F2    S    
C21   C23   A    
Cu1   O1    S    
C4    C24   A    
C26   H6    S    
C22   C24   A    
C29   H14   S    
Cu2   O3    S    
C9    C12   S    
C1    O1    A    
Cu1   O8    S    
C7    F7    S    
C28   H10   S    
C10   O6    A    
C24   F6    S    
C16   C25   S    
Cu2   O7    S    
C1    O3    A    
C7    N1    A    
C28   H11   S    
C25   H2    S    
C9    O7    A    
C10   C11   S    
C25   H1    S    
C5    C7    A    
C3    C23   A    
C5    C29   S    
C25   H3    S    
C21   F3    S    
C10   O8    A    
C23   F5    S    
C13   C20   A    
C29   H15   S    
Cu1   Cu2   S    
C13   C27   S    
C14   C19   A    
Cu2   O6    S    
C14   C28   S    
Cu1   O5    S    
C30   H16   S    
C3    C22   A    
