data_mof_unit_36072.cif
_audit_creation_date              2012-12-11T14:41:05-0500
_audit_creation_method            fapswitch 2.2
_symmetry_space_group_name_H-M    P1
_symmetry_Int_Tables_number       1
_space_group_crystal_system       triclinic
_cell_length_a                    6.96373
_cell_length_b                    17.788965
_cell_length_c                    18.80288
_cell_angle_alpha                 89.999848
_cell_angle_beta                  89.997796
_cell_angle_gamma                 89.904401
_cell_volume                      2329.25144905

loop_
_atom_site_label
_atom_site_type_symbol
_atom_type_description
_atom_site_fract_x
_atom_site_fract_y
_atom_site_fract_z
_atom_type_partial_charge
O1    O     O_R   0.377350 0.828520 0.186660 -0.529133
O2    O     O_R   0.622650 0.171480 0.813340 -0.529133
O3    O     O_R   0.122650 0.171480 0.686660 -0.529137
O4    O     O_R   0.877350 0.828520 0.313340 -0.529137
O5    O     O_R   0.877350 0.671480 0.313340 -0.528857
O6    O     O_R   0.122650 0.328520 0.686660 -0.528857
O7    O     O_R   0.622650 0.328520 0.813340 -0.528859
O8    O     O_R   0.377350 0.671480 0.186660 -0.528859
O9    O     O_R   0.707090 0.671930 0.178410 -0.528269
O10   O     O_R   0.292910 0.328070 0.821590 -0.528269
O11   O     O_R   0.792910 0.328070 0.678410 -0.528274
O12   O     O_R   0.207090 0.671930 0.321590 -0.528274
O13   O     O_R   0.207090 0.828070 0.321590 -0.529079
O14   O     O_R   0.792910 0.171930 0.678410 -0.529079
O15   O     O_R   0.292910 0.171930 0.821590 -0.529082
O16   O     O_R   0.707090 0.828070 0.178410 -0.529082
C1    C     C_R   0.538399 0.645849 0.161613 0.777629
C2    C     C_R   0.461601 0.354151 0.838387 0.777629
C3    C     C_R   0.961606 0.354152 0.661615 0.777641
C4    C     C_R   0.038394 0.645848 0.338385 0.777642
C5    C     C_R   0.038115 0.854021 0.338507 0.776351
C6    C     C_R   0.961885 0.145979 0.661493 0.776351
C7    C     C_R   0.461879 0.145979 0.838508 0.776363
C8    C     C_R   0.538121 0.854021 0.161492 0.776363
O17   O     O_3   0.543850 0.750000 0.294270 -0.367333
O18   O     O_3   0.456150 0.250000 0.705730 -0.367333
O19   O     O_3   0.956150 0.250000 0.794270 -0.367335
O20   O     O_3   0.043850 0.750000 0.205730 -0.367335
V1    V     V_3+5 0.818700 0.750000 0.241790 1.548236
V2    V     V_3+5 0.181300 0.250000 0.758210 1.548236
V3    V     V_3+5 0.681300 0.250000 0.741790 1.548228
V4    V     V_3+5 0.318700 0.750000 0.258210 1.548228
C9    C     C_R   0.970473 0.418884 0.611861 -0.197123
C10   C     C_R   0.029527 0.581116 0.388139 -0.197123
C11   C     C_R   0.529547 0.581118 0.111858 -0.197133
C12   C     C_R   0.470453 0.418882 0.888142 -0.197133
C13   C     C_R   0.471766 0.081134 0.888091 -0.196493
C14   C     C_R   0.528234 0.918866 0.111909 -0.196493
C15   C     C_R   0.028210 0.918865 0.388091 -0.196494
C16   C     C_R   0.971790 0.081135 0.611909 -0.196494
C17   C     C_R   0.032275 0.446399 0.414942 0.382675
C18   C     C_R   0.967725 0.553601 0.585057 0.382675
C19   C     C_R   0.467625 0.553598 0.914947 0.382681
C20   C     C_R   0.532375 0.446402 0.085053 0.382681
C21   C     C_R   0.513773 0.053618 0.085750 0.381926
C22   C     C_R   0.486226 0.946381 0.914250 0.381926
C23   C     C_R   0.986241 0.946382 0.585751 0.381925
C24   C     C_R   0.013759 0.053617 0.414249 0.381925
C25   C     C_R   0.037400 0.505621 0.364010 -0.156696
C26   C     C_R   0.962600 0.494379 0.635990 -0.156696
C27   C     C_R   0.462531 0.494376 0.864015 -0.156681
C28   C     C_R   0.537469 0.505624 0.135985 -0.156681
C29   C     C_R   0.522433 0.994227 0.136507 -0.155197
C30   C     C_R   0.477567 0.005773 0.863493 -0.155197
C31   C     C_R   0.977597 0.005775 0.636508 -0.155184
C32   C     C_R   0.022403 0.994225 0.363492 -0.155184
C33   C     C_R   0.007147 0.596074 0.460831 -0.167803
C34   C     C_R   0.992853 0.403926 0.539169 -0.167803
C35   C     C_R   0.492879 0.403925 0.960832 -0.167797
C36   C     C_R   0.507121 0.596075 0.039168 -0.167797
C37   C     C_R   0.517320 0.903986 0.038856 -0.168514
C38   C     C_R   0.482680 0.096014 0.961144 -0.168514
C39   C     C_R   0.982705 0.096014 0.538856 -0.168514
C40   C     C_R   0.017295 0.903986 0.461144 -0.168514
C41   C     C_R   0.993205 0.537744 0.511585 0.002744
C42   C     C_R   0.006795 0.462255 0.488415 0.002744
C43   C     C_R   0.506828 0.462256 0.011584 0.002740
C44   C     C_R   0.493172 0.537744 0.988416 0.002740
C45   C     C_R   0.500582 0.962262 0.988148 0.002336
C46   C     C_R   0.499418 0.037738 0.011852 0.002336
C47   C     C_R   0.999422 0.037738 0.488147 0.002336
C48   C     C_R   0.000578 0.962262 0.511853 0.002336
H1    H     H_    0.999479 0.345593 0.523038 0.176343
H2    H     H_    0.000521 0.654407 0.476961 0.176343
H3    H     H_    0.500459 0.654407 0.023037 0.176346
H4    H     H_    0.499541 0.345593 0.976963 0.176346
H5    H     H_    0.478884 0.154291 0.977565 0.176165
H6    H     H_    0.521116 0.845709 0.022435 0.176165
H7    H     H_    0.021085 0.845709 0.477565 0.176168
H8    H     H_    0.978915 0.154291 0.522435 0.176168
C49   C     C_2   0.955964 0.511329 0.714067 0.905312
O21   O     O_2   0.029253 0.568711 0.737296 -0.453919
O22   O     O_R   0.872380 0.460736 0.761725 -0.674338
H9    H     H_    0.883101 0.477744 0.813047 0.291050
C50   C     C_2   0.044035 0.488671 0.285933 0.905312
O23   O     O_2   0.970747 0.431289 0.262704 -0.453919
O24   O     O_R   0.127620 0.539264 0.238275 -0.674338
H10   H     H_    0.116899 0.522256 0.186953 0.291050
C51   C     C_2   0.544088 0.488672 0.214060 0.905312
O25   O     O_2   0.470795 0.431288 0.237287 -0.453926
O26   O     O_R   0.627658 0.539264 0.261720 -0.674340
H11   H     H_    0.616923 0.522253 0.313041 0.291041
C52   C     C_2   0.455912 0.511328 0.785940 0.905312
O27   O     O_2   0.529205 0.568712 0.762713 -0.453926
O28   O     O_R   0.372342 0.460736 0.738280 -0.674340
H12   H     H_    0.383077 0.477747 0.686959 0.291041
C53   C     C_2   0.479438 0.989367 0.785217 0.908854
O29   O     O_2   0.559077 0.932973 0.762494 -0.456665
O30   O     O_R   0.395735 0.039333 0.736861 -0.674820
H13   H     H_    0.411310 0.022647 0.685608 0.291601
C54   C     C_2   0.520562 0.010633 0.214783 0.908854
O31   O     O_2   0.440923 0.067027 0.237506 -0.456665
O32   O     O_R   0.604265 0.960667 0.263139 -0.674820
H14   H     H_    0.588690 0.977353 0.314392 0.291601
C55   C     C_2   0.020529 0.010633 0.285217 0.908821
O33   O     O_2   0.940849 0.067018 0.262496 -0.456686
O34   O     O_R   0.104278 0.960678 0.236860 -0.674821
H15   H     H_    0.088708 0.977365 0.185608 0.291599
C56   C     C_2   0.979471 0.989367 0.714783 0.908821
O35   O     O_2   0.059151 0.932982 0.737504 -0.456686
O36   O     O_R   0.895722 0.039322 0.763140 -0.674821
H16   H     H_    0.911292 0.022635 0.814392 0.291599
Cl1   Cl    Cl    0.070181 0.352160 0.387255 -0.419904
Cl2   Cl    Cl    0.929819 0.647840 0.612745 -0.419904
Cl3   Cl    Cl    0.429603 0.647831 0.887263 -0.419913
Cl4   Cl    Cl    0.570397 0.352169 0.112737 -0.419913
Cl5   Cl    Cl    0.532772 0.148424 0.114267 -0.417053
Cl6   Cl    Cl    0.467228 0.851576 0.885733 -0.417053
Cl7   Cl    Cl    0.967241 0.851578 0.614273 -0.417048
Cl8   Cl    Cl    0.032759 0.148422 0.385727 -0.417048

loop_
_geom_bond_atom_site_label_1
_geom_bond_atom_site_label_2
_ccdc_geom_bond_type
O24   H10   S    
C9    C34   A    
C38   H5    S    
O28   H12   S    
O14   V3    S    
C12   C35   A    
C49   O21   D    
C24   Cl8   S    
O5    C4    A    
C50   O23   D    
O6    C3    A    
C55   O34   S    
O11   C3    A    
C52   O27   D    
C16   C39   A    
O20   V1    S    
C56   O36   S    
C37   C45   A    
C35   C43   A    
C38   C46   A    
C22   C45   A    
O13   V4    S    
C19   Cl3   S    
C34   C42   A    
O36   H16   S    
C29   C54   S    
C19   C44   A    
C18   C41   A    
C8    C14   S    
O34   H15   S    
C30   C53   S    
C51   O26   S    
O32   H14   S    
O4    V1    S    
O9    V1    S    
C14   C37   A    
C4    C10   S    
C20   C28   A    
O17   V4    S    
O15   C7    A    
O11   V3    S    
O18   V3    S    
O16   C8    A    
C31   C56   S    
O19   V2    S    
C22   C30   A    
C28   C51   S    
C17   C25   A    
C49   O22   S    
C18   Cl2   S    
C53   O29   D    
O5    V1    S    
C39   H8    S    
C50   O24   S    
O17   V1    S    
C32   C55   S    
O7    V3    S    
O19   V3    S    
C43   C44   A    
O8    V4    S    
C54   O31   D    
C25   C50   S    
O20   V4    S    
C53   O30   S    
C33   C41   A    
O26   H11   S    
O16   V1    S    
C7    C13   S    
O1    V4    S    
C11   C36   A    
C33   H2    S    
O3    V2    S    
C15   C40   A    
C10   C33   A    
O10   V2    S    
O22   H9    S    
C5    C15   S    
C37   H6    S    
O7    C2    A    
C6    C16   S    
O12   C4    A    
O13   C5    A    
C15   C32   A    
C36   C44   A    
C12   C27   A    
C18   C26   A    
C13   C30   A    
O9    C1    A    
O6    V2    S    
C39   C47   A    
O18   V2    S    
C3    C9    S    
C40   H7    S    
C22   Cl6   S    
C24   C47   A    
C11   C28   A    
O15   V2    S    
C23   C31   A    
C26   C49   S    
C21   Cl5   S    
C24   C32   A    
C10   C25   A    
C21   C46   A    
C17   Cl1   S    
C20   C43   A    
C16   C31   A    
C17   C42   A    
C55   O33   D    
C36   H3    S    
O8    C1    A    
C27   C52   S    
O30   H13   S    
O14   C6    A    
C9    C26   A    
C47   C48   A    
C56   O35   D    
O4    C5    A    
C19   C27   A    
C52   O28   S    
C14   C29   A    
O10   C2    A    
C23   Cl7   S    
C40   C48   A    
C45   C46   A    
C23   C48   A    
C21   C29   A    
C20   Cl4   S    
O1    C8    A    
C54   O32   S    
C41   C42   A    
O2    C7    A    
C13   C38   A    
O2    V3    S    
O3    C6    A    
C1    C11   S    
C51   O25   D    
C2    C12   S    
C35   H4    S    
O12   V4    S    
C34   H1    S    
