data_mof_unit_65850.cif
_audit_creation_date              2012-12-10T18:00:53-0500
_audit_creation_method            fapswitch 2.2
_symmetry_space_group_name_H-M    P1
_symmetry_Int_Tables_number       1
_space_group_crystal_system       tetragonal
_cell_length_a                    18.484398
_cell_length_b                    18.484398
_cell_length_c                    32.792486
_cell_angle_alpha                 90.0
_cell_angle_beta                  90.0
_cell_angle_gamma                 90.0
_cell_volume                      11204.3060664

loop_
_atom_site_label
_atom_site_type_symbol
_atom_type_description
_atom_site_fract_x
_atom_site_fract_y
_atom_site_fract_z
_atom_type_partial_charge
C1    C     C_1   0.500000 0.000000 0.100763 -0.005892
C2    C     C_1   0.500000 0.000000 0.936823 -0.035447
C3    C     C_1   0.000000 0.500000 0.063177 -0.035447
C4    C     C_1   0.000000 0.500000 0.936823 -0.035447
C5    C     C_1   0.000000 0.500000 0.563177 -0.035447
C6    C     C_1   0.000000 0.500000 0.436823 -0.035447
C7    C     C_1   0.500000 0.000000 0.563177 -0.035447
C8    C     C_1   0.500000 0.000000 0.436823 -0.035447
C9    C     C_1   0.500000 0.000000 0.018792 0.000293
C10   C     C_1   0.500000 0.000000 0.981208 0.000293
C11   C     C_1   0.000000 0.500000 0.018792 0.000293
C12   C     C_1   0.500000 0.000000 0.899237 -0.005892
C13   C     C_1   0.000000 0.500000 0.981208 0.000293
C14   C     C_1   0.000000 0.500000 0.518792 0.000293
C15   C     C_1   0.000000 0.500000 0.481208 0.000293
C16   C     C_1   0.500000 0.000000 0.518792 0.000293
C17   C     C_1   0.500000 0.000000 0.481208 0.000293
C18   C     C_R   0.500000 0.000000 0.354088 0.490990
C19   C     C_R   0.500000 0.000000 0.645912 0.490990
C20   C     C_R   0.000000 0.500000 0.354088 0.490990
C21   C     C_R   0.000000 0.500000 0.645912 0.490990
C22   C     C_R   1.000000 0.500000 0.854088 0.490990
C23   C     C_1   0.000000 0.500000 0.100763 -0.005892
C24   C     C_R   0.000000 0.500000 0.145912 0.490990
C25   C     C_R   0.500000 1.000000 0.854088 0.490990
C26   C     C_R   0.500000 0.000000 0.145912 0.490990
C27   C     C_R   0.359360 0.140640 0.250000 0.513084
C28   C     C_R   0.640640 0.859360 0.750000 0.513084
C29   C     C_R   0.859360 0.359360 0.250000 0.513085
C30   C     C_R   0.140640 0.640640 0.750000 0.513084
C31   C     C_R   0.640640 0.859360 0.250000 0.513085
C32   C     C_R   0.359360 0.140640 0.750000 0.513085
C33   C     C_R   0.140640 0.640640 0.250000 0.513084
C34   C     C_1   0.000000 0.500000 0.899237 -0.005892
C35   C     C_R   0.859360 0.359360 0.750000 0.513085
C36   C     C_R   0.359360 0.859360 0.750000 0.513085
C37   C     C_R   0.640640 0.140640 0.250000 0.513084
C38   C     C_R   0.859360 0.640640 0.750000 0.513084
C39   C     C_R   0.140640 0.359360 0.250000 0.513084
C40   C     C_R   0.640640 0.140640 0.750000 0.513084
C41   C     C_R   0.359360 0.859360 0.250000 0.513085
C42   C     C_R   0.140640 0.359360 0.750000 0.513085
C43   C     C_R   0.859360 0.640640 0.250000 0.513085
C44   C     C_R   0.242237 0.810926 0.225105 -0.134188
C45   C     C_1   0.000000 0.500000 0.600763 -0.005892
C46   C     C_R   0.757763 0.189074 0.774895 -0.134188
C47   C     C_R   0.189073 0.242237 0.225105 -0.134188
C48   C     C_R   0.810927 0.757763 0.774895 -0.134188
C49   C     C_R   0.757763 0.189074 0.225105 -0.134188
C50   C     C_R   0.242237 0.810926 0.774895 -0.134188
C51   C     C_R   0.810928 0.757764 0.225106 -0.134188
C52   C     C_R   0.189072 0.242236 0.774894 -0.134188
C53   C     C_R   0.242236 0.189072 0.774894 -0.134188
C54   C     C_R   0.757764 0.810928 0.225106 -0.134188
C55   C     C_R   0.189074 0.757763 0.774895 -0.134188
C56   C     C_1   0.000000 0.500000 0.399237 -0.005892
C57   C     C_R   0.810926 0.242237 0.225105 -0.134188
C58   C     C_R   0.757763 0.810927 0.774895 -0.134188
C59   C     C_R   0.242237 0.189073 0.225105 -0.134188
C60   C     C_R   0.810926 0.242237 0.774895 -0.134188
C61   C     C_R   0.189074 0.757763 0.225105 -0.134188
C62   C     C_R   0.742237 0.310926 0.725105 -0.134188
C63   C     C_R   0.257763 0.689074 0.274895 -0.134188
C64   C     C_R   0.689073 0.742236 0.725105 -0.134188
C65   C     C_R   0.310927 0.257763 0.274895 -0.134188
C66   C     C_R   0.257763 0.689074 0.725105 -0.134188
C67   C     C_1   0.500000 0.000000 0.600763 -0.005892
C68   C     C_R   0.742237 0.310926 0.274895 -0.134188
C69   C     C_R   0.310928 0.257764 0.725106 -0.134188
C70   C     C_R   0.689072 0.742236 0.274894 -0.134188
C71   C     C_R   0.742236 0.689072 0.274894 -0.134188
C72   C     C_R   0.257764 0.310928 0.725106 -0.134188
C73   C     C_R   0.689074 0.257763 0.274895 -0.134188
C74   C     C_R   0.310926 0.742237 0.725105 -0.134188
C75   C     C_R   0.257763 0.310927 0.274895 -0.134188
C76   C     C_R   0.742236 0.689073 0.725105 -0.134188
C77   C     C_R   0.310926 0.742237 0.274895 -0.134188
C78   C     C_1   0.500000 0.000000 0.399237 -0.005892
C79   C     C_R   0.689074 0.257763 0.725105 -0.134188
C80   C     C_R   0.196528 0.696528 0.250000 0.036788
C81   C     C_R   0.803471 0.303471 0.750000 0.036788
C82   C     C_R   0.303471 0.196528 0.250000 0.036787
C83   C     C_R   0.696529 0.803471 0.750000 0.036787
C84   C     C_R   0.803471 0.303471 0.250000 0.036788
C85   C     C_R   0.196528 0.696528 0.750000 0.036788
C86   C     C_R   0.696529 0.803471 0.250000 0.036788
C87   C     C_R   0.303471 0.196528 0.750000 0.036788
C88   C     C_R   0.196528 0.303471 0.750000 0.036788
C89   C     C_1   0.500000 0.000000 0.063177 -0.035447
C90   C     C_R   0.803471 0.696528 0.250000 0.036788
C91   C     C_R   0.303471 0.803471 0.750000 0.036788
C92   C     C_R   0.696528 0.196528 0.250000 0.036788
C93   C     C_R   0.803471 0.696528 0.750000 0.036787
C94   C     C_R   0.196528 0.303471 0.250000 0.036787
C95   C     C_R   0.696528 0.196528 0.750000 0.036788
C96   C     C_R   0.303471 0.803471 0.250000 0.036788
H1    H     H_    0.235393 0.857782 0.205648 0.137491
H2    H     H_    0.764609 0.857785 0.205650 0.137491
H3    H     H_    0.142218 0.764607 0.794352 0.137491
H4    H     H_    0.857782 0.235393 0.205648 0.137491
H5    H     H_    0.764608 0.857784 0.794351 0.137492
H6    H     H_    0.235392 0.142216 0.205649 0.137492
H7    H     H_    0.857782 0.235393 0.794352 0.137491
H8    H     H_    0.142217 0.764607 0.205648 0.137491
H9    H     H_    0.735393 0.357782 0.705648 0.137491
H10   H     H_    0.264607 0.642218 0.294352 0.137491
H11   H     H_    0.642216 0.735392 0.705649 0.137492
H12   H     H_    0.764607 0.142218 0.794352 0.137491
H13   H     H_    0.357784 0.264608 0.294351 0.137492
H14   H     H_    0.264607 0.642217 0.705648 0.137491
H15   H     H_    0.735393 0.357782 0.294352 0.137491
H16   H     H_    0.357785 0.264609 0.705650 0.137491
H17   H     H_    0.642215 0.735391 0.294350 0.137491
H18   H     H_    0.735391 0.642215 0.294350 0.137491
H19   H     H_    0.264609 0.357785 0.705650 0.137491
H20   H     H_    0.642218 0.264607 0.294352 0.137491
H21   H     H_    0.357782 0.735393 0.705648 0.137491
H22   H     H_    0.264608 0.357784 0.294351 0.137492
H23   H     H_    0.142216 0.235392 0.205649 0.137492
H24   H     H_    0.735392 0.642216 0.705649 0.137492
H25   H     H_    0.357782 0.735393 0.294352 0.137491
H26   H     H_    0.642217 0.264607 0.705648 0.137491
H27   H     H_    0.857784 0.764608 0.794351 0.137492
H28   H     H_    0.764607 0.142217 0.205648 0.137491
H29   H     H_    0.235393 0.857782 0.794352 0.137491
H30   H     H_    0.857785 0.764609 0.205650 0.137491
H31   H     H_    0.142215 0.235391 0.794350 0.137491
H32   H     H_    0.235391 0.142215 0.794350 0.137491
O1    O     O_3   0.500000 0.000000 0.250000 -0.418850
O2    O     O_R   0.500000 0.939250 0.665880 -0.530621
O3    O     O_R   0.939250 0.500000 0.334120 -0.530621
O4    O     O_R   0.060750 0.500000 0.665880 -0.530622
O5    O     O_R   1.000000 0.439250 0.834120 -0.530621
O6    O     O_R   0.000000 0.560750 0.165880 -0.530622
O7    O     O_R   0.560750 0.000000 0.834120 -0.530622
O8    O     O_R   0.439250 0.000000 0.165880 -0.530621
O9    O     O_R   0.000000 0.560750 0.834120 -0.530622
O10   O     O_R   0.000000 0.439250 0.165880 -0.530621
O11   O     O_R   0.439250 0.000000 0.834120 -0.530621
O12   O     O_3   0.500000 0.000000 0.750000 -0.418850
O13   O     O_R   0.560750 0.000000 0.165880 -0.530622
O14   O     O_R   0.414510 0.146140 0.272120 -0.545063
O15   O     O_R   0.585490 0.853860 0.727880 -0.545063
O16   O     O_R   0.853860 0.414510 0.272120 -0.545063
O17   O     O_R   0.146140 0.585490 0.727880 -0.545063
O18   O     O_R   0.585490 0.853860 0.272120 -0.545063
O19   O     O_R   0.414510 0.146140 0.727880 -0.545063
O20   O     O_R   0.146140 0.585490 0.272120 -0.545063
O21   O     O_R   0.853860 0.414510 0.727880 -0.545063
O22   O     O_R   0.414510 0.853860 0.727880 -0.545063
O23   O     O_3   0.000000 0.500000 0.250000 -0.418850
O24   O     O_R   0.585490 0.146140 0.272120 -0.545063
O25   O     O_R   0.853860 0.585490 0.727880 -0.545063
O26   O     O_R   0.146140 0.414510 0.272120 -0.545063
O27   O     O_R   0.585490 0.146140 0.727880 -0.545063
O28   O     O_R   0.414510 0.853860 0.272120 -0.545063
O29   O     O_R   0.146140 0.414510 0.727880 -0.545063
O30   O     O_R   0.853860 0.585490 0.272120 -0.545063
O31   O     O_R   0.914510 0.646140 0.772120 -0.545063
O32   O     O_R   0.085490 0.353860 0.227880 -0.545063
O33   O     O_R   0.353860 0.914510 0.772120 -0.545063
O34   O     O_3   0.000000 0.500000 0.750000 -0.418850
O35   O     O_R   0.646140 0.085490 0.227880 -0.545063
O36   O     O_R   0.085490 0.353860 0.772120 -0.545063
O37   O     O_R   0.914510 0.646140 0.227880 -0.545063
O38   O     O_R   0.646140 0.085490 0.772120 -0.545063
O39   O     O_R   0.353860 0.914510 0.227880 -0.545063
O40   O     O_R   0.914510 0.353860 0.227880 -0.545063
O41   O     O_R   0.085490 0.646140 0.772120 -0.545063
O42   O     O_R   0.353860 0.085490 0.227880 -0.545063
O43   O     O_R   0.646140 0.914510 0.772120 -0.545063
O44   O     O_R   0.085490 0.646140 0.227880 -0.545063
O45   O     O_R   0.500000 0.939250 0.334120 -0.530621
O46   O     O_R   0.914510 0.353860 0.772120 -0.545063
O47   O     O_R   0.646140 0.914510 0.227880 -0.545063
O48   O     O_R   0.353860 0.085490 0.772120 -0.545063
O49   O     O_R   0.500000 0.060750 0.665880 -0.530622
O50   O     O_R   0.060750 0.500000 0.334120 -0.530622
O51   O     O_R   0.939250 0.500000 0.665880 -0.530621
O52   O     O_R   0.500000 0.060750 0.334120 -0.530622
Zn1   Zn    Zn3+2 0.413190 0.000000 0.218630 0.944010
Zn2   Zn    Zn3+2 0.086810 0.500000 0.281370 0.944010
Zn3   Zn    Zn3+2 0.500000 0.913190 0.718630 0.944010
Zn4   Zn    Zn3+2 0.500000 0.086810 0.281370 0.944010
Zn5   Zn    Zn3+2 0.086810 0.500000 0.718630 0.944010
Zn6   Zn    Zn3+2 0.913190 0.500000 0.281370 0.944010
Zn7   Zn    Zn3+2 0.500000 0.086810 0.718630 0.944010
Zn8   Zn    Zn3+2 0.500000 0.913190 0.281370 0.944010
Zn9   Zn    Zn3+2 0.586810 0.000000 0.781370 0.944010
Zn10  Zn    Zn3+2 0.000000 0.413190 0.218630 0.944010
Zn11  Zn    Zn3+2 0.000000 0.586810 0.781370 0.944010
Zn12  Zn    Zn3+2 0.586810 0.000000 0.218630 0.944010
Zn13  Zn    Zn3+2 0.413190 0.000000 0.781370 0.944010
Zn14  Zn    Zn3+2 0.000000 0.586810 0.218630 0.944010
Zn15  Zn    Zn3+2 0.000000 0.413190 0.781370 0.944010
Zn16  Zn    Zn3+2 0.913190 0.500000 0.718630 0.944010

loop_
_geom_bond_atom_site_label_1
_geom_bond_atom_site_label_2
_ccdc_geom_bond_type
O23   Zn6   S    
O14   Zn4   S    
O45   Zn8   S    
C55   C85   A    
C39   O32   A    
C3    C23   T    
C59   C82   A    
C2    C10   S    
C20   C56   S    
C43   O30   A    
C2    C12   T    
O37   Zn14  S    
C48   H27   S    
C35   C81   S    
O36   Zn15  S    
C49   C57   A    
O51   Zn16  S    
C21   O4    A    
C32   O19   A    
O16   Zn6   S    
C49   H28   S    
C6    C56   T    
C32   O48   A    
C72   H19   S    
C76   H24   S    
C73   H20   S    
C30   O17   A    
C29   O40   A    
O18   Zn8   S    
C25   O11   A    
O29   Zn5   S    
C38   O31   A    
O2    Zn3   S    
C51   C90   A    
C63   C77   A    
C69   H16   S    
C42   O36   A    
C41   C96   S    
C61   C80   A    
C66   C74   A    
O1    Zn12  S    
C41   O39   A    
C27   O14   A    
O40   Zn10  S    
O43   Zn9   S    
C44   H1    S    
O28   Zn8   S    
C4    C13   S    
O7    Zn9   S    
C6    C15   S    
O9    Zn11  S    
C31   O18   A    
O44   Zn14  S    
O23   Zn10  S    
C46   C95   A    
C16   C17   T    
C46   H12   S    
O8    Zn1   S    
C23   C24   S    
C40   O27   A    
C19   C67   S    
O35   Zn12  S    
O48   Zn13  S    
O24   Zn4   S    
C60   H7    S    
O12   Zn13  S    
C19   O49   A    
C40   O38   A    
O12   Zn7   S    
C69   C87   A    
C18   C78   S    
C37   O35   A    
C41   O28   A    
C19   O2    A    
C47   H23   S    
C18   O52   A    
O46   Zn15  S    
C31   C86   S    
C28   C83   S    
C8    C78   T    
O12   Zn9   S    
C59   H6    S    
O10   Zn10  S    
O13   Zn12  S    
C66   C85   A    
C64   C83   A    
O30   Zn6   S    
O34   Zn11  S    
C72   C88   A    
C52   H31   S    
C21   C45   S    
C63   C80   A    
C43   O37   A    
C70   H17   S    
C22   C34   S    
C79   H26   S    
C4    C34   T    
O12   Zn3   S    
C48   C93   A    
C22   O5    A    
C43   C90   S    
O31   Zn11  S    
C62   C79   A    
C52   C88   A    
C61   H8    S    
C26   O8    A    
C53   H32   S    
C29   C84   S    
C9    C89   S    
O47   Zn12  S    
C62   H9    S    
C77   H25   S    
C31   O47   A    
C39   O26   A    
O19   Zn7   S    
C68   C73   A    
C29   O16   A    
C5    C45   T    
C71   H18   S    
O17   Zn5   S    
C30   C85   S    
C68   H15   S    
C68   C84   A    
C74   C91   A    
O34   Zn15  S    
C69   C72   A    
C18   O45   A    
C30   O41   A    
C79   C95   A    
C44   C96   A    
C33   O20   A    
C76   C93   A    
C60   C81   A    
C28   O43   A    
O23   Zn2   S    
C22   O9    A    
O6    Zn14  S    
O5    Zn15  S    
C64   C76   A    
C57   C84   A    
O33   Zn13  S    
C53   C87   A    
C58   H5    S    
C66   H14   S    
C63   H10   S    
C27   O42   A    
C65   H13   S    
C5    C14   S    
O50   Zn2   S    
C36   C91   S    
C7    C16   S    
C62   C81   A    
C39   C94   S    
O42   Zn1   S    
C75   H22   S    
C1    C26   S    
C42   O29   A    
C42   C88   S    
O41   Zn11  S    
C37   O24   A    
O34   Zn16  S    
C26   O13   A    
C49   C92   A    
C70   C71   A    
C52   C53   A    
O23   Zn14  S    
C64   H11   S    
C54   C86   A    
C50   H29   S    
C9    C10   T    
C24   O6    A    
C74   H21   S    
O1    Zn1   S    
C1    C89   T    
C37   C92   S    
C46   C60   A    
C35   O46   A    
O1    Zn4   S    
C27   C82   S    
C50   C55   A    
C73   C92   A    
C57   H4    S    
C51   H30   S    
C65   C75   A    
O4    Zn5   S    
O34   Zn5   S    
C20   O50   A    
C33   C80   S    
C48   C58   A    
O22   Zn3   S    
C44   C61   A    
C35   O21   A    
C77   C96   A    
C8    C17   S    
O49   Zn7   S    
C12   C25   S    
O38   Zn9   S    
C24   O10   A    
C51   C54   A    
O32   Zn10  S    
O21   Zn16  S    
O27   Zn7   S    
C58   C83   A    
C32   C87   S    
C11   C13   T    
C36   O22   A    
C65   C82   A    
O39   Zn1   S    
O25   Zn16  S    
C28   O15   A    
O26   Zn2   S    
C38   C93   S    
C47   C94   A    
C71   C90   A    
C47   C59   A    
C25   O7    A    
C20   O3    A    
C3    C11   S    
C7    C67   T    
O3    Zn6   S    
O11   Zn13  S    
C50   C91   A    
C21   O51   A    
C36   O33   A    
O20   Zn2   S    
O1    Zn8   S    
C55   H3    S    
C14   C15   T    
C54   H2    S    
C40   C95   S    
C38   O25   A    
C33   O44   A    
O52   Zn4   S    
C75   C94   A    
O15   Zn3   S    
C70   C86   A    
