data_mof_unit_6501.cif
_audit_creation_date              2012-12-11T16:57:09-0500
_audit_creation_method            fapswitch 2.2
_symmetry_space_group_name_H-M    P1
_symmetry_Int_Tables_number       1
_space_group_crystal_system       triclinic
_cell_length_a                    14.493038
_cell_length_b                    16.210799
_cell_length_c                    6.941885
_cell_angle_alpha                 89.968558
_cell_angle_beta                  98.953764
_cell_angle_gamma                 90.01778
_cell_volume                      1611.07767651

loop_
_atom_site_label
_atom_site_type_symbol
_atom_type_description
_atom_site_fract_x
_atom_site_fract_y
_atom_site_fract_z
_atom_type_partial_charge
O1    O     O_R   0.584990 0.413650 0.534420 -0.539460
O2    O     O_R   0.584990 0.586350 0.534420 -0.539847
O3    O     O_R   0.596190 0.585230 0.208380 -0.539755
O4    O     O_R   0.596190 0.414770 0.208380 -0.541122
O5    O     O_R   0.415010 0.586420 0.976930 -0.537677
O6    O     O_R   0.415010 0.413580 0.976930 -0.538006
C1    C     C_R   0.618596 0.614547 0.384167 0.699446
C2    C     C_R   0.618549 0.385407 0.384568 0.702919
O7    O     O_3   0.440560 0.500000 0.319140 -0.367651
V1    V     V_3+5 0.511030 0.500000 0.068070 1.381188
O8    O     O_R   0.403810 0.414840 0.643540 -0.542550
O9    O     O_R   0.403810 0.585160 0.643540 -0.542374
C3    C     C_R   0.381559 0.385973 0.805767 0.758765
C4    C     C_R   0.381550 0.614033 0.805728 0.759458
V2    V     V_3+5 0.488970 0.500000 0.560620 1.386662
O10   O     O_3   0.559440 0.500000 0.859420 -0.382454
H1    H     H_    0.188267 0.806147 0.805927 0.155006
H2    H     H_    0.188296 0.193882 0.805896 0.154958
H3    H     H_    0.318811 0.693232 0.101917 0.154646
H4    H     H_    0.318804 0.306722 0.101952 0.154585
C5    C     C_2   0.312363 0.681910 0.796106 -0.347897
C6    C     C_2   0.312380 0.318105 0.796156 -0.347482
C7    C     C_2   0.287863 0.715738 0.958873 -0.128995
C8    C     C_2   0.287872 0.284250 0.958910 -0.129167
H5    H     H_    0.225537 0.795343 0.254413 0.125270
H6    H     H_    0.225515 0.204608 0.254358 0.125189
C9    C     C_2   0.194641 0.818029 0.111520 -0.346672
C10   C     C_2   0.194634 0.181947 0.111474 -0.346481
C11   C     C_2   0.219216 0.783859 0.949174 -0.127217
C12   C     C_2   0.219227 0.216139 0.949141 -0.127110
H7    H     H_    0.281449 0.704962 0.653558 0.125915
H8    H     H_    0.281479 0.295081 0.653617 0.125859
C13   C     C_R   0.753913 0.688740 0.587280 0.107335
C14   C     C_R   0.753084 0.310477 0.590211 0.106056
C15   C     C_R   0.689665 0.681909 0.414716 -0.143526
C16   C     C_R   0.689140 0.317657 0.416605 -0.141651
C17   C     C_R   0.697470 0.740582 0.267607 -0.176554
C18   C     C_R   0.696717 0.259061 0.269440 -0.179423
H9    H     H_    0.650158 0.738004 0.131098 0.126760
H10   H     H_    0.649113 0.261676 0.133365 0.130251
C19   C     C_R   0.762421 0.806336 0.299744 -0.174349
C20   C     C_R   0.762153 0.193734 0.300201 -0.178484
H11   H     H_    0.763642 0.851971 0.186506 0.123830
H12   H     H_    0.763379 0.148365 0.186508 0.125585
C21   C     C_R   0.820584 0.816235 0.481179 -0.109402
C22   C     C_R   0.820759 0.183858 0.480899 -0.109285
C23   C     C_R   0.816806 0.754259 0.619798 0.063695
C24   C     C_R   0.816398 0.244997 0.620877 0.064062
C25   C     C_3   0.806928 0.760843 0.829534 -0.396878
C26   C     C_3   0.805885 0.235368 0.829018 -0.395281
C27   C     C_3   0.739027 0.688550 0.795153 -0.032636
C28   C     C_3   0.736931 0.306711 0.798109 -0.029382
H13   H     H_    0.772598 0.819497 0.860995 0.147668
H14   H     H_    0.772419 0.175736 0.856517 0.147516
H15   H     H_    0.873491 0.747288 0.927485 0.178186
H16   H     H_    0.872172 0.248722 0.928137 0.178264
H17   H     H_    0.665977 0.704260 0.811362 0.138569
H18   H     H_    0.664162 0.288670 0.811389 0.134853
O11   O     O_R   0.921430 0.915960 0.371040 -0.536956
O12   O     O_R   0.921430 0.084040 0.371040 -0.537247
O13   O     O_R   0.910450 0.087500 0.697310 -0.543845
O14   O     O_R   0.910450 0.912500 0.697310 -0.543635
O15   O     O_R   0.091710 0.087460 0.928430 -0.539926
O16   O     O_R   0.091710 0.912540 0.928430 -0.539874
C29   C     C_R   0.887456 0.113778 0.518809 0.696770
C30   C     C_R   0.887428 0.886224 0.518954 0.696651
O17   O     O_3   0.065970 1.000000 0.586140 -0.369790
V3    V     V_3+5 0.995640 0.000000 0.837400 1.399221
O18   O     O_R   0.103020 0.915700 0.261710 -0.541698
O19   O     O_R   0.103020 0.084300 0.261710 -0.541754
C31   C     C_R   0.125333 0.885897 0.100365 0.758592
C32   C     C_R   0.125328 0.114093 0.100327 0.758525
V4    V     V_3+5 0.017940 0.000000 0.344880 1.392508
O20   O     O_3   0.947330 0.000000 0.046180 -0.374702
C33   C     C_3   0.775508 0.609554 0.899680 -0.729505
H19   H     H_    0.848362 0.595948 0.877914 0.201896
H20   H     H_    0.773191 0.614702 0.058084 0.219890
H21   H     H_    0.730139 0.558216 0.839030 0.220232
C34   C     C_3   0.771725 0.383361 0.915438 -0.741837
H22   H     H_    0.794039 0.367337 0.071034 0.219142
H23   H     H_    0.831553 0.412720 0.859159 0.203354
H24   H     H_    0.713526 0.427477 0.907789 0.230259

loop_
_geom_bond_atom_site_label_1
_geom_bond_atom_site_label_2
_ccdc_geom_bond_type
C9    C11   D    
O1    C2    A    
H1    C11   S    
V4    O20   S    
O2    C1    A    
O4    C2    A    
C23   C25   S    
C5    H7    S    
C26   H14   S    
C6    H8    S    
C7    C11   S    
C4    C5    S    
C15   C17   A    
C27   C33   S    
C18   C20   A    
O3    C1    A    
O11   C30   A    
C20   C22   A    
V3    O20   S    
V2    O10   S    
O12   V4    S    
C2    C16   S    
O16   C31   A    
O18   C31   A    
O8    V2    S    
H4    C8    S    
C25   C27   S    
C26   C28   S    
O18   V4    S    
O1    V2    S    
C28   C34   S    
O7    V1    S    
O11   V4    S    
C24   C26   S    
C19   H11   S    
C10   C32   S    
C20   H12   S    
H6    C10   S    
C21   C23   A    
C22   C24   A    
O14   C30   A    
O17   V3    S    
C22   C29   S    
C34   H23   S    
C25   H15   S    
C26   H16   S    
H3    C7    S    
C33   H19   S    
O9    V2    S    
O19   V4    S    
O2    V2    S    
C33   H20   S    
O5    C4    A    
C28   H18   S    
C27   H17   S    
O17   V4    S    
O9    C4    A    
O12   C29   A    
C5    C7    D    
H2    C12   S    
C13   C23   A    
C6    C8    D    
C14   C24   A    
O4    V1    S    
O16   V3    S    
C9    C31   S    
O15   V3    S    
C1    C15   S    
O6    V1    S    
C34   H24   S    
C13   C27   S    
C14   C28   S    
O14   V3    S    
C16   C18   A    
O7    V2    S    
O5    V1    S    
C17   H9    S    
O3    V1    S    
V1    O10   S    
O6    C3    A    
C18   H10   S    
O8    C3    A    
O13   V3    S    
C25   H13   S    
C10   C12   D    
C13   C15   A    
C3    C6    S    
C14   C16   A    
C17   C19   A    
C33   H21   S    
C8    C12   S    
C34   H22   S    
O13   C29   A    
O15   C32   A    
C21   C30   S    
C19   C21   A    
O19   C32   A    
H5    C9    S    
