data_mof_unit_44395.cif
_audit_creation_date              2012-12-10T19:30:39-0500
_audit_creation_method            fapswitch 2.2
_symmetry_space_group_name_H-M    P1
_symmetry_Int_Tables_number       1
_space_group_crystal_system       triclinic
_cell_length_a                    14.928852
_cell_length_b                    15.761747
_cell_length_c                    16.245247
_cell_angle_alpha                 89.481408
_cell_angle_beta                  83.848566
_cell_angle_gamma                 89.556071
_cell_volume                      3800.33054277

loop_
_atom_site_label
_atom_site_type_symbol
_atom_type_description
_atom_site_fract_x
_atom_site_fract_y
_atom_site_fract_z
_atom_type_partial_charge
C1    C     C_R   0.499740 0.662354 0.500080 0.914253
C2    C     C_R   0.500316 0.337749 0.499989 0.903243
C3    C     C_3   0.503306 0.031273 0.428462 0.043996
C4    C     C_3   0.498717 0.969258 0.581021 0.044102
C5    C     C_3   0.578539 0.975521 0.459392 -0.026271
C6    C     C_3   0.423610 0.025275 0.550210 -0.022834
C7    C     C_1   0.499587 0.750799 0.500716 -0.205068
C8    C     C_1   0.500638 0.249522 0.502337 -0.194037
C9    C     C_3   0.430512 0.972287 0.470229 0.045071
C10   C     C_3   0.571461 0.028538 0.539280 0.045137
C11   C     C_3   0.504536 0.916092 0.501752 0.064961
C12   C     C_3   0.497567 0.084502 0.507675 0.063184
C13   C     C_1   0.501423 0.825727 0.501216 -0.038857
C14   C     C_1   0.499688 0.174707 0.505027 -0.035324
C15   C     C_3   0.036800 0.565216 0.448614 -0.198280
C16   C     C_3   0.963884 0.440936 0.548426 -0.196482
C17   C     C_3   0.978603 0.491155 0.420982 -0.210577
C18   C     C_3   0.021684 0.515277 0.576019 -0.224643
C19   C     C_3   0.967825 0.578026 0.525787 0.082996
C20   C     C_3   0.032661 0.428639 0.471126 0.083067
C21   C     C_3   0.910433 0.504330 0.498649 0.075859
C22   C     C_3   0.089759 0.501980 0.498569 0.061207
C23   C     C_R   0.486471 0.496858 0.655081 0.852234
C24   C     C_R   0.513519 0.497544 0.345121 0.894035
C25   C     C_1   0.810268 0.501480 0.499288 0.018030
C26   C     C_1   0.189863 0.500883 0.499329 0.041313
C27   C     C_R   0.475306 0.466018 0.740518 -0.086170
C28   C     C_R   0.524198 0.465816 0.261031 -0.040061
C29   C     C_R   0.527231 0.496592 0.800860 0.080369
C30   C     C_R   0.478647 0.502881 0.199083 0.081923
C31   C     C_R   0.519214 0.458512 0.878841 -0.151176
C32   C     C_R   0.482315 0.463524 0.122367 -0.212117
C33   C     C_R   0.463466 0.387483 0.897071 0.046446
C34   C     C_R   0.526018 0.384462 0.108277 0.071747
C35   C     C_R   0.410357 0.357776 0.836712 0.021026
C36   C     C_R   0.573127 0.348014 0.170872 0.020338
C37   C     C_R   0.416141 0.397960 0.759453 -0.270354
C38   C     C_R   0.572755 0.389978 0.246193 -0.287718
C39   C     C_2   0.454554 0.352901 0.983009 -0.091418
C40   C     C_2   0.529145 0.347327 0.024252 -0.096969
H1    H     H_    0.066659 0.616635 0.407550 0.137961
H2    H     H_    0.934420 0.389234 0.589347 0.137183
H3    H     H_    0.606579 0.360853 0.295283 0.161341
H4    H     H_    0.376804 0.373558 0.712570 0.157761
H5    H     H_    0.450823 0.495281 0.073476 0.137269
H6    H     H_    0.556346 0.485416 0.925930 0.148604
H7    H     H_    0.960188 0.483072 0.357155 0.125207
H8    H     H_    0.038943 0.525258 0.640002 0.134195
N1    N     N_1   0.731990 0.500000 0.499970 -0.091733
N2    N     N_1   0.268010 0.500000 0.500030 -0.086932
O1    O     O_R   0.425540 0.623220 0.500000 -0.599969
O2    O     O_R   0.574460 0.376780 0.500000 -0.603341
O3    O     O_R   0.574480 0.623220 0.499990 -0.619329
O4    O     O_R   0.425520 0.376780 0.500010 -0.613461
O5    O     O_R   0.416730 0.500010 0.615810 -0.611259
O6    O     O_R   0.583270 0.499990 0.384190 -0.620079
O7    O     O_R   0.565670 0.500010 0.615790 -0.606134
O8    O     O_R   0.434330 0.499990 0.384210 -0.583932
Zn1   Zn    Zn3+2 0.400550 0.500000 0.500010 0.972840
Zn2   Zn    Zn3+2 0.599450 0.500000 0.499990 0.956373
N3    N     N_3   0.586477 0.567397 0.785459 -0.470451
H9    H     H_    0.550049 0.618101 0.763355 0.170699
H10   H     H_    0.638101 0.550659 0.739816 0.212244
N4    N     N_3   0.429535 0.580666 0.213743 -0.471278
H11   H     H_    0.456120 0.625422 0.170083 0.172525
H12   H     H_    0.362625 0.569946 0.203425 0.194612
C41   C     C_R   0.071027 0.344062 0.442201 0.111623
C42   C     C_R   0.062270 0.315061 0.361894 -0.145656
C43   C     C_R   0.099769 0.237065 0.335523 -0.138284
C44   C     C_R   0.146393 0.187607 0.388849 -0.110008
C45   C     C_R   0.155289 0.215923 0.468769 -0.124044
C46   C     C_R   0.117719 0.293790 0.495529 -0.156423
H13   H     H_    0.026957 0.352435 0.319338 0.109739
H14   H     H_    0.092759 0.215015 0.273656 0.112771
H15   H     H_    0.175602 0.127356 0.368278 0.115034
H16   H     H_    0.191387 0.177470 0.509829 0.148434
H17   H     H_    0.125378 0.315102 0.557577 0.119449
C47   C     C_R   0.940581 0.666088 0.554969 0.101129
C48   C     C_R   0.004450 0.717433 0.587719 -0.158808
C49   C     C_R   0.982148 0.800203 0.613028 -0.134675
C50   C     C_R   0.896058 0.832660 0.605486 -0.104951
C51   C     C_R   0.832277 0.782471 0.572383 -0.128646
C52   C     C_R   0.854372 0.699702 0.546838 -0.163935
H18   H     H_    0.071723 0.693446 0.593365 0.128027
H19   H     H_    0.031748 0.839273 0.638222 0.121194
H20   H     H_    0.878905 0.896803 0.624908 0.120190
H21   H     H_    0.765784 0.807913 0.566021 0.130484
H22   H     H_    0.804305 0.663426 0.519700 0.136469
C53   C     C_R   0.618942 0.326435 0.979307 0.159373
C54   C     C_R   0.693674 0.379088 0.985066 -0.163606
C55   C     C_R   0.777808 0.357764 0.943981 -0.137933
C56   C     C_R   0.788232 0.283723 0.897198 -0.108011
C57   C     C_R   0.714556 0.230781 0.891575 -0.136638
C58   C     C_R   0.630314 0.251900 0.932533 -0.120897
H23   H     H_    0.686765 0.436745 0.020993 0.124823
H24   H     H_    0.834979 0.398609 0.948514 0.122554
H25   H     H_    0.853465 0.267216 0.865565 0.114172
H26   H     H_    0.722836 0.173066 0.855891 0.119821
H27   H     H_    0.574464 0.209275 0.929391 0.110011
C59   C     C_R   0.362636 0.348165 0.029079 0.170148
C60   C     C_R   0.299388 0.414011 0.023204 -0.174191
C61   C     C_R   0.213478 0.408489 0.066511 -0.146343
C62   C     C_R   0.189719 0.337153 0.115465 -0.102569
C63   C     C_R   0.251705 0.271014 0.120839 -0.129926
C64   C     C_R   0.337685 0.276345 0.077706 -0.116210
H28   H     H_    0.316769 0.469787 0.985644 0.122593
H29   H     H_    0.165281 0.459526 0.062065 0.122355
H30   H     H_    0.123152 0.332951 0.148881 0.111710
H31   H     H_    0.232994 0.215349 0.158043 0.116336
H32   H     H_    0.384068 0.223739 0.080632 0.107208
C65   C     C_R   0.348653 0.285162 0.852475 0.125858
C66   C     C_R   0.382934 0.202740 0.860651 -0.159820
C67   C     C_R   0.324289 0.134791 0.878887 -0.124112
C68   C     C_R   0.231204 0.148775 0.888982 -0.095329
C69   C     C_R   0.196581 0.230522 0.879515 -0.148331
C70   C     C_R   0.255031 0.298497 0.860608 -0.152452
H33   H     H_    0.454755 0.191104 0.852393 0.114852
H34   H     H_    0.350995 0.071308 0.885201 0.123280
H35   H     H_    0.185886 0.096148 0.903273 0.115361
H36   H     H_    0.124475 0.241187 0.886730 0.119383
H37   H     H_    0.227544 0.361699 0.854038 0.125352
C71   C     C_R   0.621504 0.265882 0.160771 0.129124
C72   C     C_R   0.573952 0.190475 0.152847 -0.141579
C73   C     C_R   0.619832 0.112825 0.145052 -0.129760
C74   C     C_R   0.713344 0.109936 0.145604 -0.104256
C75   C     C_R   0.761070 0.184674 0.154310 -0.143035
C76   C     C_R   0.715362 0.262417 0.162271 -0.141137
H38   H     H_    0.501477 0.191612 0.154334 0.114300
H39   H     H_    0.582800 0.054823 0.139204 0.119735
H40   H     H_    0.748742 0.049749 0.139829 0.124306
H41   H     H_    0.833443 0.182331 0.155143 0.117798
H42   H     H_    0.753018 0.319934 0.169066 0.122438
C77   C     C_R   0.667460 0.957052 0.409459 0.129734
C78   C     C_R   0.717001 0.024514 0.370644 -0.091663
C79   C     C_R   0.800560 0.009495 0.325448 -0.162018
C80   C     C_R   0.835667 0.927133 0.319079 -0.117584
C81   C     C_R   0.787270 0.859736 0.357985 -0.125162
C82   C     C_R   0.703497 0.874474 0.403001 -0.187027
H43   H     H_    0.690985 0.088825 0.375532 0.158327
H44   H     H_    0.838206 0.061771 0.295582 0.130033
H45   H     H_    0.900507 0.915587 0.284305 0.121551
H46   H     H_    0.814868 0.796022 0.353626 0.133012
H47   H     H_    0.668332 0.821393 0.433346 0.138770
C83   C     C_R   0.336491 0.045143 0.602588 0.131864
C84   C     C_R   0.277072 0.978758 0.627360 -0.107880
C85   C     C_R   0.195606 0.995369 0.675528 -0.165683
C86   C     C_R   0.172906 0.078313 0.699591 -0.111658
C87   C     C_R   0.232014 0.144600 0.676123 -0.128382
C88   C     C_R   0.313688 0.128203 0.628259 -0.186257
H48   H     H_    0.293775 0.914116 0.609165 0.151730
H49   H     H_    0.150072 0.943919 0.694164 0.121130
H50   H     H_    0.109796 0.091179 0.736803 0.117597
H51   H     H_    0.214576 0.208847 0.694975 0.136304
H52   H     H_    0.358170 0.180653 0.612025 0.140407
N5    N     N_3   0.504150 0.066381 0.345080 -0.455545
H53   H     H_    0.505665 0.015388 0.304297 0.176566
H54   H     H_    0.442868 0.098055 0.341806 0.181292
N6    N     N_3   0.497743 0.934208 0.664382 -0.458502
H55   H     H_    0.496283 0.985272 0.705094 0.178916
H56   H     H_    0.559068 0.902596 0.667615 0.176294
N7    N     N_3   0.647703 0.060476 0.578385 -0.451315
H57   H     H_    0.684750 0.007938 0.595631 0.175237
H58   H     H_    0.621924 0.090650 0.632959 0.179704
N8    N     N_3   0.354189 0.940697 0.430998 -0.459645
H59   H     H_    0.317113 0.993389 0.414170 0.174380
H60   H     H_    0.379858 0.910893 0.376195 0.182505

loop_
_geom_bond_atom_site_label_1
_geom_bond_atom_site_label_2
_ccdc_geom_bond_type
C7    C13   T    
C81   H46   S    
C16   C21   S    
C30   N4    S    
N5    H54   S    
C32   H5    S    
C20   C41   S    
C65   C66   A    
C64   H32   S    
C6    C9    S    
N7    H57   S    
C54   C55   A    
C79   C80   A    
C15   C19   S    
C59   C64   A    
C57   C58   A    
N1    Zn2   S    
C34   C40   S    
N2    Zn1   S    
C75   H41   S    
C56   C57   A    
N8    H59   S    
C35   C37   A    
C5    C11   S    
O5    Zn1   S    
C82   H47   S    
C26   N2    T    
C6    C12   S    
C63   H31   S    
C27   C29   A    
C69   C70   A    
C53   C58   A    
C17   C20   S    
C15   C17   S    
C18   C19   S    
C39   C59   S    
C71   C76   A    
N3    H10   S    
C1    O3    A    
C76   H42   S    
C63   C64   A    
C3    C12   S    
O2    Zn2   S    
C61   C62   A    
C55   H24   S    
C67   C68   A    
C47   C52   A    
C15   C22   S    
C4    N6    S    
C86   C87   A    
C42   C43   A    
C31   H6    S    
C31   C33   A    
C62   H30   S    
C23   C27   S    
C40   C53   S    
C62   C63   A    
C84   H48   S    
C52   H22   S    
C77   C82   A    
C1    C7    S    
N6    H56   S    
C48   H18   S    
C49   H19   S    
C43   C44   A    
C74   C75   A    
C74   H40   S    
C66   C67   A    
N7    H58   S    
O3    Zn2   S    
C56   H25   S    
C84   C85   A    
C10   C12   S    
O4    Zn1   S    
C79   H44   S    
C29   N3    S    
C70   H37   S    
C41   C42   A    
C60   C61   A    
C17   H7    S    
C72   C73   A    
C87   C88   A    
C15   H1    S    
C4    C6    S    
C2    O4    A    
C78   H43   S    
C47   C48   A    
C83   C84   A    
O7    Zn2   S    
C42   H13   S    
C50   C51   A    
C48   C49   A    
C85   H49   S    
C32   C34   A    
C9    N8    S    
C36   C71   S    
C88   H52   S    
C46   H17   S    
C3    C9    S    
C9    C11   S    
C28   C38   A    
C16   C20   S    
C3    N5    S    
C5    C77   S    
C50   H20   S    
C43   H14   S    
C33   C39   S    
C4    C11   S    
C23   O5    A    
C1    O1    A    
C65   C70   A    
C2    O2    A    
C16   C18   S    
C12   C14   S    
C69   H36   S    
C10   N7    S    
N6    H55   S    
O1    Zn1   S    
C87   H51   S    
C4    C10   S    
C36   C38   A    
C53   C54   A    
C61   H29   S    
C45   H16   S    
C55   C56   A    
C41   C46   A    
C35   C65   S    
C85   C86   A    
C60   H28   S    
C23   O7    A    
C21   C25   S    
C8    C14   T    
C83   C88   A    
C19   C21   S    
C18   C22   S    
C16   H2    S    
C2    C8    S    
C24   C28   S    
C20   C22   S    
C49   C50   A    
C3    C5    S    
C18   H8    S    
C68   C69   A    
C78   C79   A    
C24   O6    A    
C81   C82   A    
C66   H33   S    
C19   C47   S    
N4    H11   S    
C37   H4    S    
N8    H60   S    
C86   H50   S    
O8    Zn1   S    
C5    C10   S    
C29   C31   A    
C30   C32   A    
C11   C13   S    
C72   H38   S    
C77   C78   A    
C68   H35   S    
C58   H27   S    
C27   C37   A    
C75   C76   A    
C28   C30   A    
C59   C60   A    
C33   C35   A    
C80   H45   S    
C73   H39   S    
C34   C36   A    
N3    H9    S    
C25   N1    T    
C44   C45   A    
C67   H34   S    
C39   C40   D    
O6    Zn2   S    
C38   H3    S    
C45   C46   A    
C44   H15   S    
C24   O8    A    
C51   C52   A    
C22   C26   S    
N5    H53   S    
C80   C81   A    
C71   C72   A    
C6    C83   S    
C57   H26   S    
C54   H23   S    
C51   H21   S    
N4    H12   S    
C73   C74   A    
C17   C21   S    
