data_mof_unit_45473.cif
_audit_creation_date              2012-12-11T17:07:58-0500
_audit_creation_method            fapswitch 2.2
_symmetry_space_group_name_H-M    P1
_symmetry_Int_Tables_number       1
_space_group_crystal_system       triclinic
_cell_length_a                    17.19129
_cell_length_b                    17.428113
_cell_length_c                    17.438666
_cell_angle_alpha                 89.999916
_cell_angle_beta                  90.446913
_cell_angle_gamma                 89.999902
_cell_volume                      5224.6702034

loop_
_atom_site_label
_atom_site_type_symbol
_atom_type_description
_atom_site_fract_x
_atom_site_fract_y
_atom_site_fract_z
_atom_type_partial_charge
Br1   Br    Br    0.731289 0.250847 0.589001 -0.585264
Br2   Br    Br    0.192582 0.460120 0.262990 -0.619751
Br3   Br    Br    0.629338 0.179613 0.106581 -0.626739
Br4   Br    Br    0.856031 0.535474 0.192624 -0.608150
Br5   Br    Br    0.370628 0.179627 0.893448 -0.626751
Br6   Br    Br    0.143988 0.535466 0.807342 -0.608151
Br7   Br    Br    0.768742 0.750850 0.911004 -0.585231
Br8   Br    Br    0.807606 0.460123 0.737138 -0.619688
Br9   Br    Br    0.692378 0.960109 0.762857 -0.619691
Br10  Br    Br    0.129382 0.679633 0.606546 -0.626748
Br11  Br    Br    0.356017 0.035467 0.692650 -0.608132
Br12  Br    Br    0.870664 0.679611 0.393423 -0.626742
Br13  Br    Br    0.643967 0.035475 0.307381 -0.608148
Br14  Br    Br    0.268796 0.250776 0.411054 -0.585233
Br15  Br    Br    0.307423 0.960121 0.237016 -0.619750
Br16  Br    Br    0.231206 0.750782 0.088942 -0.585243
C1    C     C_R   0.429316 0.336925 0.853922 -0.023034
C2    C     C_R   0.197539 0.897409 0.396242 -0.110694
C3    C     C_R   0.797388 0.858183 0.183493 0.248991
C4    C     C_R   0.248730 0.312278 0.635473 0.258161
C5    C     C_R   0.202602 0.858174 0.816503 0.248990
C6    C     C_R   0.735278 0.700699 0.631917 0.184786
C7    C     C_R   0.809867 0.153687 0.818582 0.265176
C8    C     C_R   0.764697 0.200685 0.868068 0.184740
C9    C     C_R   0.690128 0.653691 0.681413 0.265097
C10   C     C_R   0.251263 0.812276 0.864532 0.258153
C11   C     C_R   0.297393 0.358176 0.683501 0.249006
C12   C     C_R   0.748730 0.812285 0.135460 0.258111
C13   C     C_R   0.074813 0.167386 0.355785 -0.122530
C14   C     C_R   0.702613 0.358184 0.316509 0.248983
C15   C     C_R   0.235232 0.200738 0.131906 0.184828
C16   C     C_R   0.309901 0.653720 0.318590 0.265094
C17   C     C_3   0.869265 0.342468 0.620568 -0.913164
C18   C     C_3   0.832104 0.871298 0.795474 -0.911268
C19   C     C_3   0.032511 0.651067 0.736495 -0.771280
C20   C     C_3   0.243772 0.120516 0.785659 -0.944321
C21   C     C_3   0.967512 0.651089 0.263449 -0.771350
C22   C     C_3   0.756207 0.120519 0.214363 -0.944321
C23   C     C_3   0.130848 0.342438 0.379492 -0.913180
C24   C     C_R   0.801603 0.105192 0.400360 -0.101092
C25   C     C_3   0.167765 0.871189 0.204481 -0.911169
C26   C     C_3   0.369156 0.842440 0.120510 -0.913179
C27   C     C_3   0.332237 0.371187 0.295521 -0.911169
C28   C     C_3   0.532487 0.151091 0.236554 -0.771351
C29   C     C_3   0.743792 0.620520 0.285643 -0.944330
C30   C     C_3   0.467493 0.151072 0.763494 -0.771312
C31   C     C_3   0.256235 0.620520 0.714338 -0.944318
C32   C     C_3   0.630750 0.842452 0.879444 -0.913190
C33   C     C_3   0.667901 0.371281 0.704527 -0.911232
C34   C     C_3   0.241974 0.672396 0.446272 -0.842387
C35   C     C_R   0.925195 0.167382 0.644216 -0.122478
C36   C     C_3   0.160626 0.076514 0.154557 -0.928820
C37   C     C_3   0.802226 0.350378 0.424381 -0.908152
C38   C     C_3   0.798258 0.943512 0.174107 -0.985244
C39   C     C_3   0.197776 0.350370 0.575636 -0.908282
C40   C     C_3   0.201719 0.943503 0.825900 -0.985211
C41   C     C_3   0.758172 0.672309 0.553783 -0.842295
C42   C     C_3   0.839286 0.076455 0.845417 -0.929091
C43   C     C_3   0.741712 0.172255 0.946152 -0.842401
C44   C     C_3   0.660706 0.576460 0.654577 -0.928969
C45   C     C_3   0.302211 0.850367 0.924375 -0.908238
C46   C     C_R   0.198395 0.105188 0.599650 -0.101066
C47   C     C_3   0.298278 0.443504 0.674103 -0.985206
C48   C     C_3   0.697778 0.850379 0.075620 -0.908144
C49   C     C_3   0.701742 0.443513 0.325894 -0.985252
C50   C     C_3   0.258033 0.172394 0.053731 -0.842379
C51   C     C_3   0.339380 0.576516 0.345443 -0.928831
C52   C     C_R   0.070683 0.836926 0.646079 -0.023032
C53   C     C_R   0.802459 0.897406 0.603750 -0.110760
C54   C     C_3   0.798274 0.307597 0.660773 0.454765
C55   C     C_3   0.743999 0.861999 0.782780 0.427807
C56   C     C_3   0.116418 0.676780 0.718049 0.410683
C57   C     C_R   0.697540 0.397405 0.896248 -0.110756
C58   C     C_3   0.319411 0.131126 0.739630 0.444848
C59   C     C_3   0.883605 0.676786 0.281916 0.410710
C60   C     C_3   0.680572 0.131133 0.260398 0.444870
C61   C     C_3   0.201837 0.307560 0.339291 0.454801
C62   C     C_3   0.255880 0.861960 0.217154 0.427903
C63   C     C_3   0.298165 0.807562 0.160708 0.454800
C64   C     C_3   0.244122 0.361959 0.282848 0.427906
C65   C     C_3   0.616395 0.176787 0.218087 0.410715
C66   C     C_3   0.819427 0.631132 0.239606 0.444872
C67   C     C_3   0.383586 0.176781 0.781944 0.410691
C68   C     C_R   0.574809 0.667382 0.855783 -0.122499
C69   C     C_3   0.180593 0.631126 0.760365 0.444845
C70   C     C_3   0.701745 0.807593 0.839236 0.454782
C71   C     C_3   0.756008 0.361998 0.717226 0.427813
C72   C     C_R   0.392113 0.695462 0.894131 -0.158794
C73   C     C_R   0.330774 0.419300 0.854571 -0.126335
C74   C     C_R   0.609018 0.304227 0.896830 -0.137034
C75   C     C_R   0.670832 0.580491 0.856885 -0.051435
C76   C     C_R   0.390978 0.304226 0.103164 -0.136959
C77   C     C_R   0.329163 0.580493 0.143110 -0.051397
C78   C     C_R   0.607886 0.695463 0.105864 -0.158760
C79   C     C_R   0.301604 0.605187 0.900350 -0.101060
C80   C     C_R   0.669225 0.419302 0.145430 -0.126312
C81   C     C_R   0.892113 0.195464 0.394137 -0.158746
C82   C     C_R   0.830774 0.919302 0.354570 -0.126323
C83   C     C_R   0.109022 0.804226 0.396837 -0.136948
C84   C     C_R   0.170837 0.080493 0.356889 -0.051397
C85   C     C_R   0.890978 0.804226 0.603165 -0.137012
C86   C     C_R   0.829171 0.080491 0.643118 -0.051415
C87   C     C_R   0.107886 0.195462 0.605868 -0.158796
C88   C     C_R   0.169224 0.919300 0.645430 -0.126330
C89   C     C_R   0.368255 0.362332 0.811101 0.075497
C90   C     C_R   0.425185 0.667387 0.144214 -0.122525
C91   C     C_R   0.685122 0.322141 0.879065 0.096772
C92   C     C_R   0.635622 0.638435 0.814384 0.094249
C93   C     C_R   0.313785 0.680208 0.880139 0.125611
C94   C     C_R   0.364370 0.638438 0.185610 0.094267
C95   C     C_R   0.686216 0.680213 0.119850 0.125596
C96   C     C_R   0.631745 0.362336 0.188904 0.075487
C97   C     C_R   0.314877 0.322146 0.120933 0.096706
C98   C     C_R   0.868255 0.862335 0.311097 0.075488
C99   C     C_R   0.185123 0.822146 0.379068 0.096706
C100  C     C_R   0.135629 0.138437 0.314389 0.094267
C101  C     C_R   0.698397 0.605191 0.099642 -0.101091
C102  C     C_R   0.813783 0.180214 0.380152 0.125604
C103  C     C_R   0.864383 0.138436 0.685616 0.094249
C104  C     C_R   0.186214 0.180209 0.619861 0.125618
C105  C     C_R   0.131742 0.862333 0.688900 0.075492
C106  C     C_R   0.814875 0.822143 0.620931 0.096743
C107  C     C_R   0.778697 0.305888 0.778910 -0.015666
C108  C     C_R   0.681310 0.760445 0.769549 -0.075408
C109  C     C_R   0.188576 0.699472 0.812941 -0.038355
C110  C     C_R   0.360178 0.244132 0.731288 -0.091457
C111  C     C_R   0.811432 0.699483 0.187036 -0.038379
C112  C     C_R   0.570684 0.336928 0.146081 -0.023055
C113  C     C_R   0.639815 0.244142 0.268734 -0.091470
C114  C     C_R   0.221392 0.305877 0.221156 -0.015770
C115  C     C_R   0.318622 0.760438 0.230404 -0.075431
C116  C     C_R   0.278609 0.805877 0.278844 -0.015769
C117  C     C_R   0.181380 0.260437 0.269595 -0.075428
C118  C     C_R   0.688567 0.199484 0.312968 -0.038388
C119  C     C_R   0.860184 0.744141 0.231269 -0.091469
C120  C     C_R   0.311424 0.199474 0.687056 -0.038357
C121  C     C_R   0.139822 0.744130 0.768710 -0.091458
C122  C     C_R   0.721320 0.805882 0.721102 -0.015653
C123  C     C_R   0.302461 0.397410 0.103758 -0.110690
C124  C     C_R   0.818714 0.260453 0.730464 -0.075419
C125  C     C_R   0.742618 0.274996 0.842699 -0.019536
C126  C     C_R   0.670954 0.682690 0.754751 0.016023
C127  C     C_R   0.251167 0.731446 0.853985 0.005225
C128  C     C_R   0.343910 0.322744 0.740578 0.000954
C129  C     C_R   0.748834 0.731454 0.146000 0.005225
C130  C     C_R   0.656090 0.322752 0.259433 0.000977
C131  C     C_R   0.257394 0.275009 0.157318 -0.019511
C132  C     C_R   0.329022 0.682696 0.245230 0.016020
C133  C     C_R   0.242607 0.775009 0.342683 -0.019510
C134  C     C_R   0.929315 0.836927 0.353920 -0.023056
C135  C     C_R   0.170977 0.182696 0.254769 0.016021
C136  C     C_R   0.751165 0.231455 0.354004 0.005229
C137  C     C_R   0.843910 0.822751 0.240569 0.000970
C138  C     C_R   0.248830 0.231447 0.646016 0.005218
C139  C     C_R   0.156088 0.822743 0.759422 0.000964
C140  C     C_R   0.757382 0.774999 0.657300 -0.019540
C141  C     C_R   0.829059 0.182694 0.745255 0.016006
C142  C     C_R   0.264770 0.700738 0.368095 0.184828
C143  C     C_R   0.190101 0.153720 0.181411 0.265089
C144  C     C_R   0.751270 0.312285 0.364543 0.258113
H1    H     H_    0.472698 0.297048 0.836260 0.117117
H2    H     H_    0.252944 0.926727 0.398445 0.157296
H3    H     H_    0.781364 0.719586 0.518445 0.278360
H4    H     H_    0.802655 0.626446 0.559501 0.276144
H5    H     H_    0.881952 0.084854 0.892767 0.239562
H6    H     H_    0.790563 0.041186 0.867075 0.292598
H7    H     H_    0.868977 0.043987 0.799559 0.249484
H8    H     H_    0.793147 0.149540 0.977559 0.247854
H9    H     H_    0.718586 0.219535 0.981527 0.278375
H10   H     H_    0.697154 0.126487 0.940352 0.276147
H11   H     H_    0.618000 0.584863 0.607262 0.239554
H12   H     H_    0.709420 0.541207 0.632873 0.292545
H13   H     H_    0.037030 0.214116 0.339464 0.119053
H14   H     H_    0.631062 0.543970 0.700450 0.249492
H15   H     H_    0.267140 0.888873 0.961058 0.270166
H16   H     H_    0.328351 0.808511 0.964167 0.265077
H17   H     H_    0.348950 0.883885 0.896326 0.255222
H18   H     H_    0.312474 0.459263 0.614214 0.261732
H19   H     H_    0.239783 0.464861 0.688972 0.299856
H20   H     H_    0.343314 0.471288 0.710340 0.248204
H21   H     H_    0.732847 0.888885 0.038934 0.270164
H22   H     H_    0.671633 0.808527 0.035828 0.265065
H23   H     H_    0.651043 0.883899 0.103672 0.255207
H24   H     H_    0.746311 0.079621 0.413086 0.176408
H25   H     H_    0.687561 0.459283 0.385783 0.261738
H26   H     H_    0.760237 0.464859 0.311009 0.299848
H27   H     H_    0.656702 0.471296 0.289661 0.248211
H28   H     H_    0.206480 0.149857 0.022370 0.247774
H29   H     H_    0.281217 0.219683 0.018401 0.278358
H30   H     H_    0.302493 0.126504 0.059372 0.276192
H31   H     H_    0.382236 0.584975 0.392606 0.239514
H32   H     H_    0.290736 0.541303 0.367346 0.292462
H33   H     H_    0.368853 0.543946 0.299526 0.249602
H34   H     H_    0.962991 0.214100 0.660542 0.119055
H35   H     H_    0.253688 0.079616 0.586929 0.176409
H36   H     H_    0.027300 0.797049 0.663740 0.117113
H37   H     H_    0.747054 0.926722 0.601538 0.157349
H38   H     H_    0.420333 0.750795 0.892408 0.119159
H39   H     H_    0.281046 0.452931 0.837807 0.177605
H40   H     H_    0.583659 0.247463 0.898321 0.155031
H41   H     H_    0.752947 0.426719 0.898461 0.157340
H42   H     H_    0.722773 0.549103 0.843127 0.171186
H43   H     H_    0.416332 0.247460 0.101670 0.155090
H44   H     H_    0.277215 0.549113 0.156862 0.171181
H45   H     H_    0.579663 0.750794 0.107590 0.119149
H46   H     H_    0.718952 0.452936 0.162194 0.177593
H47   H     H_    0.920335 0.250795 0.392410 0.119147
H48   H     H_    0.781047 0.952935 0.337806 0.177593
H49   H     H_    0.083668 0.747460 0.398330 0.155090
H50   H     H_    0.222784 0.049112 0.343138 0.171183
H51   H     H_    0.916334 0.747460 0.601670 0.155048
H52   H     H_    0.537014 0.714102 0.839457 0.119058
H53   H     H_    0.777230 0.049105 0.656879 0.171182
H54   H     H_    0.079667 0.250795 0.607589 0.119159
H55   H     H_    0.218953 0.952931 0.662195 0.177600
H56   H     H_    0.915444 0.358872 0.662387 0.267873
H57   H     H_    0.894562 0.301171 0.579531 0.238819
H58   H     H_    0.851224 0.393963 0.587468 0.279551
H59   H     H_    0.862882 0.815429 0.791045 0.262744
H60   H     H_    0.856786 0.910752 0.752166 0.246976
H61   H     H_    0.843333 0.896453 0.852978 0.276195
H62   H     H_    0.022566 0.648375 0.799358 0.261993
H63   H     H_    0.246312 0.579615 0.913070 0.176406
H64   H     H_    0.988641 0.690686 0.712242 0.211831
H65   H     H_    0.020961 0.593719 0.711096 0.292752
H66   H     H_    0.218769 0.176697 0.803057 0.256985
H67   H     H_    0.199459 0.090010 0.751000 0.249462
H68   H     H_    0.254812 0.087554 0.838736 0.295691
H69   H     H_    0.977442 0.648398 0.200583 0.261984
H70   H     H_    0.011381 0.690718 0.287690 0.211832
H71   H     H_    0.979081 0.593742 0.288844 0.292757
H72   H     H_    0.781210 0.176699 0.196960 0.256982
H73   H     H_    0.800522 0.090012 0.249018 0.249462
H74   H     H_    0.462968 0.714118 0.160535 0.119051
H75   H     H_    0.745162 0.087556 0.161288 0.295689
H76   H     H_    0.084684 0.358874 0.337668 0.267868
H77   H     H_    0.105523 0.301130 0.420499 0.238820
H78   H     H_    0.148896 0.393916 0.412613 0.279564
H79   H     H_    0.137036 0.815293 0.208906 0.262715
H80   H     H_    0.143060 0.910613 0.247804 0.246935
H81   H     H_    0.156505 0.896349 0.146985 0.276201
H82   H     H_    0.415320 0.858875 0.162336 0.267867
H83   H     H_    0.394482 0.801134 0.079501 0.238819
H84   H     H_    0.351110 0.893920 0.087389 0.279564
H85   H     H_    0.753688 0.579620 0.086917 0.176408
H86   H     H_    0.362965 0.315290 0.291098 0.262718
H87   H     H_    0.356943 0.410609 0.252197 0.246938
H88   H     H_    0.343496 0.396349 0.353016 0.276201
H89   H     H_    0.522557 0.148400 0.299420 0.261985
H90   H     H_    0.488619 0.190720 0.212312 0.211831
H91   H     H_    0.520919 0.093744 0.211158 0.292757
H92   H     H_    0.718791 0.676700 0.303046 0.256979
H93   H     H_    0.699476 0.590015 0.250987 0.249463
H94   H     H_    0.754837 0.587556 0.338718 0.295692
H95   H     H_    0.477436 0.148381 0.700630 0.261996
H96   H     H_    0.527300 0.297052 0.163743 0.117129
H97   H     H_    0.511363 0.190693 0.787746 0.211827
H98   H     H_    0.479048 0.093724 0.788891 0.292755
H99   H     H_    0.281237 0.676702 0.696942 0.256984
H100  H     H_    0.300547 0.590014 0.748998 0.249462
H101  H     H_    0.245198 0.587559 0.661260 0.295689
H102  H     H_    0.584562 0.858845 0.837626 0.267862
H103  H     H_    0.605462 0.801151 0.920482 0.238827
H104  H     H_    0.648782 0.893954 0.912538 0.279552
H105  H     H_    0.637134 0.315405 0.708958 0.262737
H106  H     H_    0.643209 0.410732 0.747832 0.246962
H107  H     H_    0.247056 0.426727 0.101555 0.157291
H108  H     H_    0.656672 0.396431 0.647022 0.276199
H109  H     H_    0.293528 0.649859 0.477629 0.247771
H110  H     H_    0.218793 0.719685 0.481602 0.278363
H111  H     H_    0.197515 0.626506 0.440634 0.276199
H112  H     H_    0.117769 0.084970 0.107395 0.239516
H113  H     H_    0.209273 0.041304 0.132654 0.292459
H114  H     H_    0.131157 0.043942 0.200475 0.249602
H115  H     H_    0.767161 0.388890 0.461062 0.270163
H116  H     H_    0.828370 0.308528 0.464178 0.265076
H117  H     H_    0.848962 0.383892 0.396326 0.255205
H118  H     H_    0.972700 0.797051 0.336258 0.117128
H119  H     H_    0.812439 0.959281 0.114218 0.261739
H120  H     H_    0.739763 0.964858 0.188992 0.299842
H121  H     H_    0.843298 0.971295 0.210340 0.248209
H122  H     H_    0.232836 0.388892 0.538963 0.270160
H123  H     H_    0.171652 0.308516 0.535834 0.265081
H124  H     H_    0.151027 0.383867 0.603688 0.255224
H125  H     H_    0.187526 0.959262 0.885790 0.261739
H126  H     H_    0.260214 0.964857 0.811029 0.299843
H127  H     H_    0.156682 0.971287 0.789664 0.248207
H128  H     H_    0.706665 0.649721 0.522382 0.247776
N1    N     N_R   0.425360 0.368540 0.922560 -0.033294
N2    N     N_R   0.131460 0.925360 0.422560 -0.060461
N3    N     N_R   0.074640 0.131460 0.422560 -0.041234
N4    N     N_R   0.868540 0.074640 0.422560 -0.056097
N5    N     N_R   0.925360 0.131460 0.577440 -0.041226
N6    N     N_R   0.131460 0.074640 0.577440 -0.056097
N7    N     N_R   0.074640 0.868540 0.577440 -0.033292
N8    N     N_R   0.868540 0.925360 0.577440 -0.060462
N9    N     N_R   0.425340 0.631500 0.922560 -0.046379
N10   N     N_R   0.368500 0.425340 0.922560 -0.048862
N11   N     N_R   0.574660 0.368500 0.922560 -0.051938
N12   N     N_R   0.631460 0.425360 0.922560 -0.060459
N13   N     N_R   0.631500 0.574660 0.922560 -0.046705
N14   N     N_R   0.425340 0.368500 0.077440 -0.051961
N15   N     N_R   0.368500 0.574660 0.077440 -0.046705
N16   N     N_R   0.574660 0.631500 0.077440 -0.046376
N17   N     N_R   0.631500 0.425340 0.077440 -0.048856
N18   N     N_R   0.925340 0.131500 0.422560 -0.046376
N19   N     N_R   0.868500 0.925340 0.422560 -0.048857
N20   N     N_R   0.074660 0.868500 0.422560 -0.051962
N21   N     N_R   0.131500 0.074660 0.422560 -0.046704
N22   N     N_R   0.925340 0.868500 0.577440 -0.051945
N23   N     N_R   0.574640 0.631460 0.922560 -0.041229
N24   N     N_R   0.868500 0.074660 0.577440 -0.046703
N25   N     N_R   0.074660 0.131500 0.577440 -0.046381
N26   N     N_R   0.131500 0.925340 0.577440 -0.048860
N27   N     N_R   0.368540 0.574640 0.922560 -0.056097
N28   N     N_R   0.425360 0.631460 0.077440 -0.041234
N29   N     N_R   0.631460 0.574640 0.077440 -0.056097
N30   N     N_R   0.574640 0.368540 0.077440 -0.033295
N31   N     N_R   0.368540 0.425360 0.077440 -0.060461
N32   N     N_R   0.925360 0.868540 0.422560 -0.033298
Ni1   Ni    Ni4+2 0.500000 0.369720 0.000000 0.264567
Ni2   Ni    Ni4+2 0.630280 0.500000 0.000000 0.237717
Ni3   Ni    Ni4+2 0.500000 0.630280 0.000000 0.206990
Ni4   Ni    Ni4+2 0.369720 0.500000 0.000000 0.237708
Ni5   Ni    Ni4+2 0.000000 0.869720 0.500000 0.264568
Ni6   Ni    Ni4+2 0.130280 1.000000 0.500000 0.237710
Ni7   Ni    Ni4+2 0.000000 0.130280 0.500000 0.206992
Ni8   Ni    Ni4+2 0.869720 1.000000 0.500000 0.237714

loop_
_geom_bond_atom_site_label_1
_geom_bond_atom_site_label_2
_ccdc_geom_bond_type
C7    C42   S    
C5    C10   A    
C49   H27   S    
C54   C124  S    
C50   H28   S    
C44   H14   S    
C33   C71   S    
C45   H15   S    
C58   C67   S    
C92   C126  S    
C31   H101  S    
C45   H17   S    
C81   N18   A    
Br6   C69   S    
C74   C91   A    
C29   H92   S    
C82   C98   A    
Br15  C62   S    
C27   H86   S    
C50   H29   S    
C78   C95   A    
C88   N26   A    
C42   H5    S    
N20   Ni5   S    
N15   N28   A    
C48   H23   S    
C34   H110  S    
C58   C120  S    
C9    C44   S    
N8    Ni8   S    
N2    Ni6   S    
C77   C94   A    
C15   C131  A    
C21   C59   S    
C110  C120  A    
C39   H123  S    
C82   H48   S    
N21   Ni6   S    
C41   H128  S    
C123  N31   A    
N9    N27   A    
C28   C65   S    
C79   C93   A    
C22   H75   S    
C18   H59   S    
C57   H41   S    
C26   H82   S    
C52   C105  A    
N18   Ni7   S    
C86   H53   S    
C65   C113  S    
C31   H100  S    
N11   Ni1   S    
C86   N24   A    
C107  C125  A    
C12   C129  A    
C76   H43   S    
C111  C129  A    
C72   C93   A    
C33   H105  S    
C3    C137  A    
N19   Ni8   S    
C98   C134  A    
C67   C110  S    
C30   H95   S    
C123  H107  S    
N30   Ni1   S    
C82   N19   A    
C19   H65   S    
Br1   C54   S    
Br11  C58   S    
C2    C99   A    
N23   Ni3   S    
C17   H57   S    
N2    N20   A    
C85   C106  A    
N16   N29   A    
C36   H112  S    
C46   N6    A    
C59   C119  S    
C28   H89   S    
Br12  C59   S    
C40   H126  S    
C43   H9    S    
C86   C103  A    
C117  C135  A    
C25   H80   S    
C30   H98   S    
N12   Ni2   S    
C9    C126  A    
C22   H73   S    
C56   C69   S    
N1    Ni1   S    
N9    Ni3   S    
C22   C60   S    
C33   H106  S    
C34   C142  S    
C21   H69   S    
C2    N2    A    
N27   Ni4   S    
Br7   C70   S    
C55   C70   S    
C101  N29   A    
C121  C139  A    
C84   H50   S    
C62   C116  S    
N5    N24   A    
N29   Ni2   S    
C27   H87   S    
N24   Ni8   S    
C6    C9    A    
Br3   C65   S    
C35   C103  A    
C7    C8    A    
C97   C123  A    
C91   C125  S    
C133  C142  A    
C48   H22   S    
C26   C63   S    
N10   Ni4   S    
C94   C132  S    
C54   C71   S    
N14   Ni1   S    
C25   C62   S    
C51   H32   S    
C36   H114  S    
C27   C64   S    
C79   H63   S    
C47   H20   S    
C30   C67   S    
C25   H81   S    
C135  C143  A    
C80   N17   A    
N6    N25   A    
C28   H91   S    
C41   H3    S    
C103  C141  S    
C63   C115  S    
C99   C133  S    
C104  C138  S    
C5    C139  A    
C53   N8    A    
N25   Ni7   S    
C102  C136  S    
C3    C12   A    
C87   H54   S    
C1    H1    S    
C16   C51   S    
C3    C38   S    
C20   H67   S    
C112  N30   A    
N5    Ni7   S    
C70   C108  S    
C32   C70   S    
C10   C127  A    
C23   H77   S    
C83   H49   S    
C33   H108  S    
C21   H71   S    
C49   H26   S    
N17   N30   A    
C90   H74   S    
C114  C131  A    
C44   H11   S    
C59   C66   S    
C32   H103  S    
C87   N25   A    
C95   C101  A    
C19   H64   S    
C71   C107  S    
C53   C106  A    
C109  C127  A    
C8    C43   S    
C7    C141  A    
C110  C128  A    
C112  H96   S    
N16   Ni3   S    
C42   H6    S    
C75   H42   S    
C34   H111  S    
C75   N13   A    
C73   C89   A    
N13   Ni2   S    
C68   N23   A    
Br10  C56   S    
C24   C102  A    
C38   H119  S    
N3    N21   A    
C87   C104  A    
C84   C100  A    
C89   C128  S    
N6    Ni6   S    
C85   H51   S    
C37   H117  S    
C47   H18   S    
C31   C69   S    
C108  C122  A    
C10   C45   S    
C111  C119  A    
C83   C99   A    
C23   H76   S    
C18   H60   S    
C57   C91   A    
C52   N7    A    
C26   H83   S    
Br14  C61   S    
C72   H38   S    
C37   H116  S    
C85   N22   A    
C31   H99   S    
C76   C97   A    
C46   C104  A    
C18   H61   S    
C29   H94   S    
C38   H121  S    
N3    Ni7   S    
C116  C133  A    
C45   H16   S    
C46   H35   S    
C73   N10   A    
C55   C122  S    
C73   H39   S    
N17   Ni2   S    
C19   H62   S    
C78   N16   A    
C60   C118  S    
N26   Ni6   S    
C22   H72   S    
C109  C121  A    
N7    N26   A    
N11   N12   A    
C120  C138  A    
C34   H109  S    
C118  C136  A    
C11   C128  A    
N7    Ni5   S    
C83   N20   A    
C52   H36   S    
N32   Ni5   S    
C113  C130  A    
C20   C58   S    
C17   C54   S    
C12   C48   S    
C28   H90   S    
C19   C56   S    
N8    N22   A    
C39   H124  S    
C114  C117  A    
C115  C116  A    
N15   Ni4   S    
N4    N18   A    
C41   H4    S    
C25   H79   S    
C61   C64   S    
N31   Ni4   S    
C37   C144  S    
C20   H66   S    
C105  C139  S    
C106  C140  S    
C75   C92   A    
N19   N32   A    
Br9   C55   S    
C88   H55   S    
C5    C40   S    
C68   H52   S    
C16   C132  A    
C4    C11   A    
C101  H85   S    
N14   N31   A    
Br16  C63   S    
C97   C131  S    
C79   N27   A    
C84   N21   A    
C2    H2    S    
C32   H102  S    
C68   C92   A    
C96   C130  S    
C24   N4    A    
C96   C112  A    
C113  C118  A    
C43   H8    S    
C24   H24   S    
C74   N11   A    
C15   C50   S    
C136  C144  A    
C69   C109  S    
C29   C66   S    
C6    C41   S    
C90   N28   A    
C6    C140  A    
C17   H58   S    
C14   C144  A    
C80   C96   A    
C4    C138  A    
N1    N10   A    
C23   C61   S    
C95   C129  S    
Br5   C67   S    
C51   H31   S    
C74   H40   S    
C134  N32   A    
C50   H30   S    
C47   H19   S    
C81   C102  A    
C77   H44   S    
N28   Ni3   S    
C39   H122  S    
C40   H125  S    
C43   H10   S    
C13   N3    A    
C98   C137  S    
C36   C143  S    
C20   H68   S    
C57   N12   A    
C53   H37   S    
C108  C126  A    
C78   H45   S    
C61   C117  S    
C4    C39   S    
C17   H56   S    
C14   C130  A    
C16   C142  A    
C21   H70   S    
C49   H25   S    
C64   C114  S    
C44   H12   S    
C93   C127  S    
C62   C63   S    
C88   C105  A    
C107  C124  A    
C32   H104  S    
C134  H118  S    
C1    C89   A    
C124  C141  A    
C80   H46   S    
Br13  C60   S    
C27   H88   S    
C115  C132  A    
C81   H47   S    
C42   H7    S    
C11   C47   S    
C48   H21   S    
C56   C121  S    
C13   C100  A    
C14   C49   S    
C90   C94   A    
C122  C140  A    
C38   H120  S    
C76   N14   A    
C77   N15   A    
C13   H13   S    
C35   H34   S    
C60   C65   S    
C8    C125  A    
C36   H113  S    
C119  C137  A    
Br8   C71   S    
N22   Ni5   S    
C1    N1    A    
C30   H97   S    
C26   H84   S    
C40   H127  S    
C100  C135  S    
C66   C111  S    
C35   N5    A    
Br2   C64   S    
C37   H115  S    
Br4   C66   S    
N13   N23   A    
C72   N9    A    
C51   H33   S    
C18   C55   S    
C23   H78   S    
C15   C143  A    
N4    Ni8   S    
C29   H93   S    
