data_mof_unit_38138.cif
_audit_creation_date              2012-12-10T17:39:24-0500
_audit_creation_method            fapswitch 2.2
_symmetry_space_group_name_H-M    P1
_symmetry_Int_Tables_number       1
_space_group_crystal_system       triclinic
_cell_length_a                    12.311673
_cell_length_b                    13.16245
_cell_length_c                    27.761588
_cell_angle_alpha                 77.81148
_cell_angle_beta                  101.067136
_cell_angle_gamma                 116.53472
_cell_volume                      3909.59861806

loop_
_atom_site_label
_atom_site_type_symbol
_atom_type_description
_atom_site_fract_x
_atom_site_fract_y
_atom_site_fract_z
_atom_type_partial_charge
C1    C     C_R   0.854899 0.286521 0.504265 0.778890
C2    C     C_R   0.090821 0.487287 0.730562 -0.107775
C3    C     C_R   0.994221 0.495458 0.746512 0.359045
C4    C     C_R   0.000794 0.486933 0.899620 -0.048653
C5    C     C_R   0.914664 0.393638 0.875768 -0.021689
C6    C     C_R   0.833601 0.297011 0.903534 -0.142386
C7    C     C_R   0.081040 0.585076 0.871520 -0.017755
C8    C     C_R   0.997326 0.498494 0.645431 -0.039461
C9    C     C_R   0.001815 0.498529 0.354751 -0.071918
C10   C     C_R   0.918469 0.389437 0.029738 0.070051
C11   C     C_R   0.112464 0.563571 0.028031 -0.081842
C12   C     C_R   0.999168 0.499595 0.592438 0.797497
C13   C     C_R   0.015908 0.477738 0.054195 0.034339
C14   C     C_R   0.821969 0.307681 0.056823 -0.203385
C15   C     C_R   0.821703 0.312069 0.106288 -0.152691
C16   C     C_R   0.917438 0.398042 0.130670 -0.006511
C17   C     C_R   0.016235 0.480512 0.105038 -0.056903
C18   C     C_R   0.114068 0.566166 0.130117 -0.149864
C19   C     C_R   0.103980 0.571916 0.179368 0.558588
C20   C     C_R   0.916035 0.403455 0.180358 0.593084
C21   C     C_R   0.088623 0.468454 0.290580 -0.211576
C22   C     C_R   0.087496 0.470936 0.340308 -0.216191
C23   C     C_R   0.145083 0.713462 0.492746 0.804934
C24   C     C_R   0.917593 0.524316 0.318414 -0.332889
C25   C     C_R   0.918633 0.522356 0.268012 0.478496
C26   C     C_R   0.004578 0.493697 0.254386 0.338786
C27   C     C_R   0.919577 0.387025 0.978912 0.041343
C28   C     C_R   0.006583 0.482281 0.951524 0.081586
C29   C     C_R   0.098977 0.573506 0.975504 0.038042
C30   C     C_R   0.835442 0.293756 0.954099 -0.210520
C31   C     C_R   0.163398 0.679533 0.894867 -0.153608
C32   C     C_R   0.219785 0.635418 0.055585 0.331462
C33   C     C_R   0.218717 0.640691 0.105502 -0.036231
C34   C     C_R   0.000569 0.499895 0.407575 0.814127
C35   C     C_R   0.170968 0.674471 0.945866 -0.210229
C36   C     C_R   0.275794 0.021503 0.433820 -0.183354
C37   C     C_R   0.227994 0.834652 0.482503 -0.049642
C38   C     C_R   0.815343 0.084970 0.536503 -0.183081
C39   C     C_R   0.736464 0.969979 0.546165 -0.137529
C40   C     C_R   0.613157 0.932339 0.528767 -0.177521
C41   C     C_R   0.566560 0.009263 0.499367 0.080407
C42   C     C_R   0.650183 0.123688 0.484681 0.080783
C43   C     C_R   0.439958 0.976112 0.483578 0.074207
C44   C     C_R   0.400473 0.053373 0.449720 0.164019
C45   C     C_R   0.912906 0.398776 0.824602 0.533998
C46   C     C_R   0.485947 0.160445 0.431146 -0.232288
C47   C     C_R   0.609029 0.194511 0.447729 -0.190959
C48   C     C_R   0.350980 0.868588 0.500773 -0.246114
C49   C     C_R   0.189854 0.912168 0.449864 -0.189954
C50   C     C_R   0.773083 0.163417 0.506961 -0.102720
C51   C     C_R   0.346479 0.328635 0.578989 -0.293602
C52   C     C_R   0.759635 0.645260 0.433007 0.071774
C53   C     C_R   0.663059 0.676861 0.418443 -0.252445
C54   C     C_R   0.559515 0.622067 0.443630 -0.191295
C55   C     C_R   0.551392 0.534479 0.484000 -0.007717
C56   C     C_R   0.075675 0.586880 0.820423 0.534595
C57   C     C_R   0.653001 0.505262 0.497659 0.289422
C58   C     C_R   0.446992 0.475108 0.511361 -0.036709
C59   C     C_R   0.446687 0.388232 0.551529 0.174309
C60   C     C_R   0.546466 0.361383 0.564263 -0.280075
C61   C     C_R   0.647275 0.418753 0.538075 -0.191148
C62   C     C_R   0.342057 0.497744 0.500877 0.016206
C63   C     C_R   0.246557 0.355173 0.566815 0.070690
C64   C     C_R   0.898949 0.504997 0.711962 -0.101969
C65   C     C_R   0.900511 0.506782 0.661657 -0.224686
C66   C     C_R   0.092366 0.488522 0.680393 -0.214745
Cu1   Cu    Cu3+1 0.098270 0.475420 0.511360 0.936994
Cu2   Cu    Cu3+1 0.901730 0.524580 0.488640 0.925527
H1    H     H_    0.168146 0.482028 0.669032 0.160459
H2    H     H_    0.824042 0.511401 0.724119 0.140726
H3    H     H_    0.222484 0.757956 0.873827 0.190157
H4    H     H_    0.851415 0.546191 0.329108 0.151249
H5    H     H_    0.232006 0.751814 0.961507 0.196267
H6    H     H_    0.094728 0.886813 0.435238 0.149031
H7    H     H_    0.457592 0.218312 0.403621 0.147616
H8    H     H_    0.245218 0.080037 0.407878 0.136370
H9    H     H_    0.164558 0.479638 0.757169 0.140085
H10   H     H_    0.374742 0.808350 0.528145 0.149500
H11   H     H_    0.909245 0.112935 0.553234 0.154122
H12   H     H_    0.557591 0.841988 0.538057 0.130876
H13   H     H_    0.770381 0.910036 0.568633 0.146906
H14   H     H_    0.671291 0.275959 0.430038 0.177592
H15   H     H_    0.168788 0.309567 0.587827 0.124718
H16   H     H_    0.546977 0.295278 0.595050 0.161567
H17   H     H_    0.345564 0.262057 0.609713 0.145319
H18   H     H_    0.334174 0.562081 0.471033 0.124522
H19   H     H_    0.839692 0.688284 0.413274 0.124670
H20   H     H_    0.767678 0.223330 0.886233 0.187878
H21   H     H_    0.487574 0.650028 0.430763 0.139758
H22   H     H_    0.668471 0.744052 0.387527 0.149355
H23   H     H_    0.718946 0.392227 0.551161 0.208476
H24   H     H_    0.153594 0.450763 0.367428 0.168431
H25   H     H_    0.154873 0.446495 0.280017 0.150864
H26   H     H_    0.744769 0.248109 0.125232 0.177790
H27   H     H_    0.742728 0.241260 0.040334 0.139395
H28   H     H_    0.771538 0.215559 0.973032 0.144459
H29   H     H_    0.825825 0.514135 0.635594 0.161278
N1    N     N_R   0.993415 0.494049 0.798210 -0.468655
N2    N     N_R   0.007535 0.490187 0.203339 -0.441609
N3    N     N_R   0.246290 0.438210 0.528570 -0.180728
N4    N     N_R   0.754320 0.561170 0.471730 -0.206079
O1    O     O_R   0.972510 0.318140 0.514280 -0.578705
O2    O     O_2   0.823819 0.322751 0.205616 -0.538150
O3    O     O_2   0.152106 0.680478 0.793117 -0.538445
O4    O     O_2   0.187697 0.659405 0.203024 -0.539481
O5    O     O_R   0.806530 0.359640 0.495100 -0.604024
O6    O     O_R   0.082990 0.479270 0.579320 -0.582878
O7    O     O_R   0.917010 0.520770 0.560140 -0.598917
O8    O     O_R   0.193470 0.640360 0.504900 -0.585823
O9    O     O_R   0.027490 0.681860 0.485720 -0.584591
O10   O     O_R   0.082990 0.479230 0.439860 -0.586401
O11   O     O_R   0.917010 0.520730 0.420680 -0.593916
O12   O     O_2   0.832448 0.308913 0.801497 -0.540713
O13   O     O_3   0.331085 0.692577 0.036602 -0.747569
H30   H     H_    0.334267 0.645299 0.013894 0.334476
C67   C     C_R   0.333974 0.717287 0.131893 0.242109
C68   C     C_R   0.376241 0.836921 0.120349 -0.056402
C69   C     C_R   0.486191 0.909050 0.144518 -0.137234
C70   C     C_R   0.554704 0.862225 0.180098 -0.098668
C71   C     C_R   0.513598 0.743185 0.191468 -0.123492
C72   C     C_R   0.403802 0.670746 0.167340 -0.086054
H31   H     H_    0.323955 0.874019 0.092758 0.125885
H32   H     H_    0.518396 0.001237 0.135620 0.135154
H33   H     H_    0.639782 0.918182 0.198759 0.139310
H34   H     H_    0.566949 0.707056 0.218896 0.130289
H35   H     H_    0.372988 0.578643 0.176235 0.115370
O14   O     O_3   0.837980 0.548700 0.231518 -0.710724
H36   H     H_    0.784089 0.566874 0.247195 0.313658

loop_
_geom_bond_atom_site_label_1
_geom_bond_atom_site_label_2
_ccdc_geom_bond_type
C10   C27   A    
C58   C62   A    
C21   C26   A    
C8    C66   A    
C34   O11   A    
C41   C42   A    
C56   N1    A    
C68   H31   S    
C51   H17   S    
C15   H26   S    
O13   H30   S    
C20   O2    S    
C53   C54   A    
C52   C53   A    
C62   H18   S    
C28   C29   A    
C45   N1    A    
C5    C6    A    
C9    C22   A    
C66   H1    S    
C38   H11   S    
C15   C16   A    
C11   C13   A    
C6    H20   S    
C67   C68   A    
C18   C19   A    
Cu2   O11   S    
C47   H14   S    
C48   H10   S    
C69   C70   A    
C30   H28   S    
C36   H8    S    
C54   C55   A    
Cu1   O8    S    
C16   C17   A    
C40   H12   S    
C64   H2    S    
C43   C48   A    
C16   C20   A    
C26   N2    S    
C69   H32   S    
C31   H3    S    
C8    C65   A    
C70   H33   S    
C21   C22   A    
C27   C30   A    
C34   O10   A    
C41   C43   A    
Cu2   O5    S    
C7    C56   A    
C4    C7    A    
C46   H7    S    
C4    C28   A    
C44   C46   A    
C23   O8    A    
C52   N4    A    
C7    C31   A    
C67   C72   A    
Cu1   Cu2   S    
C51   C63   A    
C24   C25   A    
C56   O3    S    
C54   H21   S    
C10   C14   A    
C39   C40   A    
C12   O7    A    
C19   N2    A    
C71   H34   S    
C25   C26   A    
C23   C37   S    
C5    C45   A    
C63   H15   S    
C60   C61   A    
C43   C44   A    
C63   N3    A    
C37   C49   A    
C8    C12   S    
C17   C18   A    
Cu2   O9    S    
Cu2   N4    S    
C37   C48   A    
C39   H13   S    
Cu1   N3    S    
C42   C50   A    
C62   N3    A    
C19   O4    S    
Cu1   O10   S    
C40   C41   A    
C6    C30   A    
C11   C32   A    
C55   C57   A    
C9    C34   S    
C1    O5    A    
C31   C35   A    
C36   C44   A    
C51   C59   A    
O14   H36   S    
C14   H27   S    
C53   H22   S    
C71   C72   A    
C24   H4    S    
C1    C50   S    
C23   O9    A    
C46   C47   A    
C35   H5    S    
C33   C67   S    
C14   C15   A    
C52   H19   S    
C4    C5    A    
C2    C66   A    
C10   C13   A    
C12   O6    A    
C70   C71   A    
C9    C24   A    
C57   C61   A    
C38   C50   A    
C3    C64   A    
C57   N4    A    
C29   C35   A    
C13   C17   A    
C32   C33   A    
C2    C3    A    
C58   C59   A    
C65   H29   S    
C72   H35   S    
C2    H9    S    
C68   C69   A    
C64   C65   A    
C60   H16   S    
C3    N1    S    
Cu1   O6    S    
C38   C39   A    
C20   N2    A    
C21   H25   S    
C42   C47   A    
C25   O14   S    
C18   C33   A    
C45   O12   S    
C59   C60   A    
C11   C29   A    
C55   C58   A    
C27   C28   A    
C22   H24   S    
C49   H6    S    
Cu2   O7    S    
C32   O13   S    
C1    O1    A    
C36   C49   A    
C61   H23   S    
Cu1   O1    S    
