data_mof_unit_6741.cif
_audit_creation_date              2012-12-10T20:27:58-0500
_audit_creation_method            fapswitch 2.2
_symmetry_space_group_name_H-M    P1
_symmetry_Int_Tables_number       1
_space_group_crystal_system       triclinic
_cell_length_a                    12.848862
_cell_length_b                    10.65324
_cell_length_c                    9.853745
_cell_angle_alpha                 90.050945
_cell_angle_beta                  97.31778
_cell_angle_gamma                 89.798967
_cell_volume                      1337.80603208

loop_
_atom_site_label
_atom_site_type_symbol
_atom_type_description
_atom_site_fract_x
_atom_site_fract_y
_atom_site_fract_z
_atom_type_partial_charge
C1    C     C_R   0.496896 0.259817 0.499566 0.885135
C2    C     C_R   0.434568 0.937197 0.372132 -0.048446
C3    C     C_R   0.467387 0.870957 0.495478 -0.185557
C4    C     C_R   0.298343 0.500042 0.472892 0.883629
C5    C     C_R   0.480101 0.936024 0.619324 0.125191
C6    C     C_3   0.562027 0.925215 0.741281 -0.451120
C7    C     C_3   0.566461 0.067377 0.742050 -0.456966
C8    C     C_R   0.458224 0.401411 0.064346 0.218937
C9    C     C_R   0.549341 0.591752 0.080303 -0.051944
C10   C     C_R   0.549781 0.591424 0.936363 -0.122360
C11   C     C_R   0.458008 0.401590 0.921672 0.219891
C12   C     C_R   0.027130 0.474679 0.550164 0.181058
C13   C     C_3   0.346989 0.358303 0.897830 -0.511980
C14   C     C_3   0.347372 0.357659 0.051963 -0.497836
C15   C     C_R   0.491513 0.739796 0.498386 0.938383
C16   C     C_R   0.701656 0.504498 0.526952 0.918930
C17   C     C_R   0.814043 0.509847 0.543914 -0.118388
C18   C     C_R   0.186768 0.509123 0.455527 -0.047194
C19   C     C_R   0.029468 0.608760 0.349580 -0.182004
C20   C     C_R   0.135485 0.584851 0.352487 -0.197031
C21   C     C_R   0.133062 0.452825 0.552497 -0.263996
C22   C     C_2   0.806659 0.663868 0.349605 0.901268
C23   C     C_R   0.973426 0.553492 0.447713 0.093656
C24   C     C_2   0.394802 0.876380 0.240168 0.930067
C25   C     C_R   0.865796 0.574483 0.447325 -0.087331
C26   C     C_R   0.868756 0.437010 0.647339 -0.206753
C27   C     C_R   0.975286 0.419920 0.650863 -0.201513
C28   C     C_R   0.484339 0.063632 0.620361 0.124718
C29   C     C_R   0.477673 0.128756 0.497701 -0.122926
C30   C     C_R   0.442919 0.067457 0.374556 -0.265605
H1    H     H_    0.635689 0.880211 0.716959 0.217187
H2    H     H_    0.828149 0.388200 0.721417 0.168361
H3    H     H_    0.993444 0.671773 0.271441 0.186076
H4    H     H_    0.016625 0.360994 0.729901 0.148320
H5    H     H_    0.178204 0.629849 0.278157 0.203845
H6    H     H_    0.174463 0.393547 0.631303 0.140668
H7    H     H_    0.425279 0.120228 0.280427 0.192574
H8    H     H_    0.529734 0.886191 0.831735 0.209500
H9    H     H_    0.709234 0.813342 0.324247 0.340496
H10   H     H_    0.389398 0.876469 0.034561 0.335462
H11   H     H_    0.536647 0.110113 0.832669 0.215124
H12   H     H_    0.642511 0.105233 0.717754 0.203484
H13   H     H_    0.587180 0.667277 0.140966 0.173778
H14   H     H_    0.588772 0.666042 0.888580 0.155083
H15   H     H_    0.293220 0.430140 0.845537 0.221331
H16   H     H_    0.340045 0.263030 0.851508 0.205506
H17   H     H_    0.293637 0.428660 0.088412 0.226386
H18   H     H_    0.340869 0.261893 0.094553 0.206462
N1    N     N_R   0.499290 0.499140 0.142710 -0.113704
N2    N     N_R   0.499290 0.499180 0.857070 -0.114432
O1    O     O_R   0.500010 0.316790 0.614690 -0.622215
O2    O     O_R   0.748263 0.760441 0.399874 -0.815928
O3    O     O_2   0.335797 0.786414 0.237835 -0.643780
O4    O     O_R   0.421558 0.925445 0.117670 -0.833123
O5    O     O_R   0.500000 0.316760 0.385350 -0.622549
O6    O     O_R   0.346360 0.499990 0.595720 -0.626113
O7    O     O_R   0.346350 0.499960 0.366370 -0.609455
O8    O     O_R   0.500000 0.683240 0.614650 -0.625430
O9    O     O_R   0.499990 0.683210 0.385310 -0.597856
O10   O     O_R   0.653650 0.500040 0.633630 -0.618967
O11   O     O_R   0.653640 0.500010 0.404280 -0.605481
O12   O     O_2   0.805434 0.649789 0.226226 -0.648739
Zn1   Zn    Zn3+2 0.500010 0.500020 0.653130 0.954117
Zn2   Zn    Zn3+2 0.499990 0.499980 0.346870 0.992099

loop_
_geom_bond_atom_site_label_1
_geom_bond_atom_site_label_2
_ccdc_geom_bond_type
C4    O7    A    
O11   Zn2   S    
C19   C23   A    
C6    H8    S    
C5    C28   A    
C26   H2    S    
C6    C7    S    
C14   H18   S    
C22   O12   D    
C18   C21   A    
C11   C13   S    
C9    C10   A    
H10   O4    S    
C19   C20   A    
O1    Zn1   S    
C2    C30   A    
C4    C18   S    
O5    Zn2   S    
C1    C29   S    
C2    C3    A    
C1    O5    A    
O6    Zn1   S    
C17   C25   A    
C21   H6    S    
C13   C14   S    
C4    O6    A    
C13   H15   S    
N2    Zn1   S    
C1    O1    A    
C12   C23   A    
C26   C27   A    
C29   C30   A    
C15   O9    A    
C8    C11   A    
C17   C26   A    
C8    N1    A    
C28   C29   A    
H9    O2    S    
C18   C20   A    
C7    H11   S    
C27   H4    S    
C2    C24   S    
C5    C6    S    
C15   O8    A    
O10   Zn1   S    
C9    H13   S    
C16   O11   A    
C12   C27   A    
C10   H14   S    
C10   N2    A    
O9    Zn2   S    
C23   C25   A    
C9    N1    A    
O7    Zn2   S    
C22   O2    S    
C16   O10   A    
C7    H12   S    
O8    Zn1   S    
N1    Zn2   S    
C6    H1    S    
C11   N2    A    
C13   H16   S    
C3    C15   S    
C8    C14   S    
C24   O3    D    
C14   H17   S    
C24   O4    S    
C12   C21   A    
C20   H5    S    
C7    C28   S    
C30   H7    S    
C19   H3    S    
C16   C17   S    
C3    C5    A    
C22   C25   S    
