data_mof_unit_37052.cif
_audit_creation_date              2012-12-11T14:23:07-0500
_audit_creation_method            fapswitch 2.2
_symmetry_space_group_name_H-M    P1
_symmetry_Int_Tables_number       1
_space_group_crystal_system       triclinic
_cell_length_a                    11.027736
_cell_length_b                    10.94842
_cell_length_c                    18.810342
_cell_angle_alpha                 90.745599
_cell_angle_beta                  89.558325
_cell_angle_gamma                 61.023588
_cell_volume                      1986.37077308

loop_
_atom_site_label
_atom_site_type_symbol
_atom_type_description
_atom_site_fract_x
_atom_site_fract_y
_atom_site_fract_z
_atom_type_partial_charge
C1    C     C_R   0.243627 0.642495 0.612294 0.514331
C2    C     C_R   0.541338 0.243407 0.724918 -0.149376
C3    C     C_R   0.557773 0.230347 0.797353 -0.165514
C4    C     C_R   0.654809 0.623530 0.599914 0.545626
C5    C     C_R   0.936922 0.041833 0.802547 0.310968
C6    C     C_R   0.045657 0.049856 0.768634 0.442016
C7    C     C_R   0.035174 0.078379 0.696623 -0.089855
C8    C     C_R   0.908706 0.119517 0.664141 -0.141367
C9    C     C_R   0.654766 0.202819 0.678731 0.009675
C10   C     C_R   0.210063 0.643629 0.841492 0.003746
C11   C     C_R   0.204799 0.535703 0.801611 0.029322
C12   C     C_3   0.601344 0.615075 0.800008 -0.226514
C13   C     C_R   0.196238 0.543299 0.725956 0.023865
C14   C     C_R   0.248191 0.734564 0.732289 -0.109206
C15   C     C_R   0.249991 0.729143 0.806273 -0.114671
C16   C     C_R   0.623976 0.235927 0.604300 0.549023
C17   C     C_R   0.210735 0.418967 0.835465 -0.104757
C18   C     C_R   0.208348 0.312013 0.795888 -0.056314
C19   C     C_R   0.183132 0.327204 0.723356 -0.082339
C20   C     C_R   0.171045 0.444534 0.689110 -0.133100
C21   C     C_R   0.216286 0.646833 0.690475 0.010678
C22   C     C_R   0.669536 0.655199 0.170121 -0.001398
C23   C     C_3   0.702567 0.672250 0.811535 0.021551
C24   C     C_R   0.784360 0.556882 0.211081 0.038446
C25   C     C_R   0.785222 0.582008 0.284177 0.017659
C26   C     C_R   0.536043 0.731673 0.278822 -0.132108
C27   C     C_R   0.544510 0.740702 0.205255 -0.173511
C28   C     C_R   0.221452 0.647168 0.402336 0.524889
C29   C     C_R   0.900530 0.436808 0.181904 -0.083555
C30   C     C_R   0.023878 0.370847 0.218323 -0.143695
C31   C     C_R   0.029371 0.408069 0.288413 -0.116300
C32   C     C_R   0.912007 0.515720 0.320899 -0.076332
C33   C     C_R   0.656885 0.658655 0.319375 0.019068
C34   C     C_3   0.673252 0.648499 0.675204 0.046885
C35   C     C_R   0.634635 0.166714 0.175467 0.025504
C36   C     C_R   0.545594 0.136269 0.218909 -0.028437
C37   C     C_R   0.572994 0.117176 0.291796 -0.028957
C38   C     C_R   0.711425 0.234837 0.279113 -0.161329
C39   C     C_R   0.713382 0.219959 0.206327 -0.153648
C40   C     C_R   0.642388 0.623061 0.392582 0.556721
C41   C     C_R   0.430342 0.125224 0.193333 -0.177468
C42   C     C_R   0.356941 0.081794 0.237456 -0.192899
C43   C     C_R   0.395399 0.048618 0.307499 0.396422
C44   C     C_R   0.509498 0.055717 0.333198 0.430837
C45   C     C_3   0.829744 0.579030 0.693766 -0.257637
C46   C     C_R   0.648227 0.177235 0.322497 0.015043
C47   C     C_R   0.129620 0.695275 0.188555 0.011578
C48   C     C_R   0.092998 0.813689 0.235436 0.037337
C49   C     C_R   0.081079 0.796766 0.308309 0.025586
C50   C     C_R   0.210260 0.545600 0.288419 -0.150700
C51   C     C_R   0.187439 0.562045 0.216208 -0.151940
C52   C     C_R   0.617498 0.228672 0.395182 0.593161
C53   C     C_R   0.076070 0.945436 0.214758 -0.087276
C54   C     C_R   0.031550 0.055940 0.263502 -0.110557
C55   C     C_R   0.999268 0.041786 0.333067 -0.055090
C56   C     C_3   0.604702 0.578562 0.720291 -0.180343
C57   C     C_R   0.018224 0.913904 0.354920 -0.059588
C58   C     C_R   0.155754 0.662783 0.334610 -0.002396
C59   C     C_R   0.702698 0.103690 0.896876 0.565453
C60   C     C_R   0.724877 0.687236 0.888176 0.563661
C61   C     C_R   0.127873 0.699154 0.909002 0.575543
C62   C     C_R   0.672640 0.107951 0.103824 0.544745
C63   C     C_R   0.697205 0.686938 0.097344 0.539756
C64   C     C_3   0.638333 0.818046 0.774592 -0.208949
C65   C     C_R   0.088172 0.714822 0.114382 0.537687
C66   C     C_3   0.607699 0.805254 0.695714 0.223592
C67   C     C_R   0.688980 0.166451 0.826235 0.017219
C68   C     C_3   0.844516 0.570917 0.774635 0.103712
C69   C     C_R   0.804436 0.134051 0.781109 0.042810
C70   C     C_R   0.787865 0.156467 0.706831 0.006265
Cl1   Cl    Cl    0.902295 0.393668 0.801817 -0.667797
Cl2   Cl    Cl    0.939973 0.880429 0.793754 -0.710810
Cr1   Cr    Cr6+3 0.392940 0.397950 0.502230 1.051070
Cr2   Cr    Cr6+3 0.398400 0.708500 0.501260 1.126045
Cr3   Cr    Cr6+3 0.708640 0.393530 0.496460 0.995163
Cr4   Cr    Cr6+3 0.937880 0.938320 0.007620 1.053492
Cr5   Cr    Cr6+3 0.625560 0.937220 0.994510 1.021240
Cr6   Cr    Cr6+3 0.938080 0.625010 0.001190 1.042556
F1    F     F_    0.158693 0.031117 0.804748 -0.665781
F2    F     F_    0.465613 0.873150 0.685759 -0.636343
F3    F     F_    0.320340 0.011933 0.351118 -0.623427
F4    F     F_    0.555331 0.006214 0.399110 -0.598805
H1    H     H_    0.710265 0.861253 0.778136 0.149407
H2    H     H_    0.228943 0.403899 0.891926 0.122343
H3    H     H_    0.267970 0.802488 0.836904 0.207327
H4    H     H_    0.220535 0.219801 0.822281 0.219592
H5    H     H_    0.172371 0.248258 0.693466 0.161854
H6    H     H_    0.142901 0.454721 0.633898 0.141729
H7    H     H_    0.434430 0.779274 0.303661 0.211747
H8    H     H_    0.897935 0.391755 0.130793 0.134414
H9    H     H_    0.453380 0.809572 0.175733 0.130055
H10   H     H_    0.113566 0.287979 0.192075 0.096048
H11   H     H_    0.123630 0.351572 0.318051 0.138650
H12   H     H_    0.664641 0.463256 0.712708 0.162491
H13   H     H_    0.919762 0.543761 0.375429 0.139823
H14   H     H_    0.760271 0.291671 0.301334 0.148468
H15   H     H_    0.388599 0.158418 0.141090 0.160813
H16   H     H_    0.776116 0.249942 0.174077 0.116012
H17   H     H_    0.271605 0.070880 0.216778 0.118192
H18   H     H_    0.274958 0.441130 0.307737 0.140555
H19   H     H_    0.107071 0.965065 0.163666 0.139999
H20   H     H_    0.221706 0.470942 0.181655 0.126204
H21   H     H_    0.652628 0.856602 0.661959 0.139729
H22   H     H_    0.018705 0.154062 0.246674 0.113618
H23   H     H_    0.891411 0.472219 0.670438 0.196121
H24   H     H_    0.962480 0.129020 0.370341 0.139013
H25   H     H_    0.996847 0.903242 0.410153 0.123113
H26   H     H_    0.924210 0.600488 0.789613 0.194222
H27   H     H_    0.875567 0.641956 0.671944 0.088631
H28   H     H_    0.626651 0.522187 0.832803 0.162544
H29   H     H_    0.496765 0.696658 0.816546 0.126658
H30   H     H_    0.499796 0.609216 0.701613 0.137863
H31   H     H_    0.438387 0.286540 0.704703 0.167629
H32   H     H_    0.468870 0.257131 0.830858 0.138872
H33   H     H_    0.124208 0.065596 0.666061 0.148858
H34   H     H_    0.910389 0.120838 0.606989 0.154686
H35   H     H_    0.274436 0.807510 0.707671 0.219422
H36   H     H_    0.540251 0.894865 0.801872 0.202875
O1    O     O_R   0.507340 0.255690 0.581430 -0.495635
O2    O     O_R   0.837290 0.593240 0.915240 -0.454577
O3    O     O_R   0.065320 0.635310 0.931580 -0.500433
O4    O     O_R   0.280360 0.527380 0.578910 -0.526441
O5    O     O_R   0.068470 0.828620 0.091850 -0.550071
O6    O     O_R   0.799150 0.057200 0.079350 -0.508431
O7    O     O_R   0.585220 0.080180 0.076770 -0.534527
O8    O     O_R   0.627170 0.809480 0.067050 -0.495024
O9    O     O_R   0.816200 0.596410 0.076500 -0.531997
O10   O     O_R   0.045770 0.638240 0.081070 -0.504174
O11   O     O_3   0.833840 0.833520 0.001110 -0.250085
O12   O     O_R   0.524510 0.695820 0.424050 -0.448108
O13   O     O_R   0.260600 0.739610 0.584580 -0.507055
O14   O     O_R   0.532370 0.695050 0.573830 -0.434135
O15   O     O_R   0.744850 0.503430 0.576380 -0.547295
O16   O     O_R   0.699080 0.276500 0.571950 -0.522217
O17   O     O_R   0.498860 0.256520 0.419860 -0.459241
O18   O     O_R   0.272490 0.528150 0.429140 -0.521818
O19   O     O_R   0.252110 0.740440 0.423010 -0.489965
O20   O     O_R   0.736370 0.504260 0.414810 -0.543318
O21   O     O_R   0.691220 0.277270 0.422180 -0.530555
O22   O     O_3   0.499990 0.499990 0.499980 -0.283985
O23   O     O_R   0.089570 0.825450 0.930590 -0.467767
O24   O     O_R   0.818700 0.054260 0.929860 -0.465976
O25   O     O_R   0.606310 0.077010 0.915520 -0.530147
O26   O     O_R   0.646730 0.806540 0.917560 -0.516458

loop_
_geom_bond_atom_site_label_1
_geom_bond_atom_site_label_2
_ccdc_geom_bond_type
C34   C56   S    
Cr1   O1    S    
Cr2   O14   S    
C41   C42   A    
Cr6   O2    S    
C19   C20   A    
C16   O16   A    
C34   C66   S    
C12   H28   S    
Cr3   O16   S    
C64   H36   S    
C7    C8    A    
C4    O14   A    
C53   C54   A    
C51   H20   S    
C1    C21   S    
C12   C23   S    
C26   C27   A    
C18   H4    S    
C14   C21   A    
C54   H22   S    
C36   C37   A    
C9    C16   S    
C5    Cl2   S    
C44   F4    S    
C10   C15   A    
C30   C31   A    
C2    H31   S    
C45   H27   S    
C46   C52   S    
C52   O21   A    
C49   C57   A    
C61   O3    A    
C18   C19   A    
C7    H33   S    
Cr6   O3    S    
C1    O4    A    
C5    C69   A    
C59   C67   S    
C22   C63   S    
C24   C29   A    
C56   H12   S    
C35   C36   A    
C59   O24   A    
C53   H19   S    
C40   O20   A    
C27   H9    S    
C15   H3    S    
Cr4   O23   S    
C25   C32   A    
C59   O25   A    
Cr6   O10   S    
Cr2   O13   S    
C36   C41   A    
C23   C60   S    
Cr6   O9    S    
C62   O6    A    
C29   H8    S    
C45   H23   S    
C50   C51   A    
C48   C53   A    
Cr2   O19   S    
C4    C34   S    
C33   C40   S    
C38   C46   A    
C55   H24   S    
C50   C58   A    
C65   O10   A    
Cr1   O17   S    
C38   C39   A    
C9    C70   A    
C30   H10   S    
C16   O1    A    
C39   H16   S    
C47   C51   A    
C31   H11   S    
Cr2   O22   S    
Cr3   O20   S    
C49   C58   A    
C67   C69   A    
Cr4   O6    S    
C23   C68   S    
C35   C39   A    
C43   C44   A    
Cr5   O25   S    
C64   H1    S    
C29   C30   A    
Cr4   O11   S    
C26   C33   A    
C47   C48   A    
Cr1   O18   S    
C14   H35   S    
C45   C68   S    
C17   C18   A    
C13   C21   A    
C34   C45   S    
Cr5   O11   S    
C24   C25   A    
C64   C66   S    
C12   C56   S    
C61   O23   A    
C48   C49   A    
C57   H25   S    
C22   C27   A    
Cr2   O12   S    
C43   F3    S    
C41   H15   S    
C10   C61   S    
C42   C43   A    
Cr5   O7    S    
C40   O12   A    
C54   C55   A    
C11   C17   A    
C13   C20   A    
C28   O18   A    
Cr4   O5    S    
C8    C70   A    
C66   H21   S    
Cr6   O11   S    
C31   C32   A    
C3    C67   A    
C28   O19   A    
C1    O13   A    
C3    H32   S    
C62   O7    A    
Cr3   O15   S    
C6    C7    A    
Cr1   O22   S    
C28   C58   S    
C66   F2    S    
C19   H5    S    
Cr3   O22   S    
C17   H2    S    
C37   C44   A    
C55   C57   A    
C2    C3    A    
C23   C64   S    
C26   H7    S    
Cr3   O21   S    
C42   H17   S    
C60   O26   A    
C11   C13   A    
C6    F1    S    
C5    C6    A    
C68   Cl1   S    
C20   H6    S    
C47   C65   S    
C60   O2    A    
C35   C62   S    
C22   C24   A    
C65   O5    A    
C69   C70   A    
C50   H18   S    
Cr5   O26   S    
C63   O8    A    
C10   C11   A    
C8    H34   S    
C32   H13   S    
Cr1   O4    S    
C38   H14   S    
C52   O17   A    
C14   C15   A    
C68   H26   S    
C37   C46   A    
C2    C9    A    
C56   H30   S    
C12   H29   S    
C63   O9    A    
Cr5   O8    S    
C25   C33   A    
C4    O15   A    
Cr4   O24   S    
