data_mof_unit_23200.cif
_audit_creation_date              2012-10-26T20:24:20-0400
_audit_creation_method            fapswitch 2.2
_symmetry_space_group_name_H-M    P1
_symmetry_Int_Tables_number       1
_space_group_crystal_system       triclinic
_cell_length_a                    15.868298
_cell_length_b                    10.841129
_cell_length_c                    9.455931
_cell_angle_alpha                 89.711994
_cell_angle_beta                  91.004137
_cell_angle_gamma                 89.566404
_cell_volume                      1626.38828535

loop_
_atom_site_label
_atom_site_type_symbol
_atom_type_description
_atom_site_fract_x
_atom_site_fract_y
_atom_site_fract_z
_atom_type_partial_charge
C1    C     C_R   0.498763 0.260002 0.500245 0.556984
C2    C     C_3   0.582803 0.925223 0.554715 -0.228715
C3    C     C_3   0.433552 0.070800 0.605703 -0.250495
C4    C     C_R   0.340018 0.500270 0.498923 0.549615
C5    C     C_3   0.480105 0.073570 0.345812 0.092050
C6    C     C_3   0.498839 0.121981 0.499355 0.060477
C7    C     C_3   0.496703 0.878069 0.495858 0.016572
C8    C     C_3   0.426642 0.929168 0.592602 -0.252535
C9    C     C_3   0.485180 0.930829 0.340853 0.073712
C10   C     C_3   0.546728 0.609327 0.084873 -0.126611
C11   C     C_3   0.544305 0.612661 0.917845 -0.122400
C12   C     C_3   0.083657 0.503046 0.497515 0.007869
C13   C     C_3   0.547246 0.391712 0.084154 -0.119608
C14   C     C_3   0.412282 0.499963 0.077945 0.399256
C15   C     C_3   0.544908 0.392209 0.917111 -0.117437
C16   C     C_R   0.497768 0.740076 0.499047 0.551466
C17   C     C_3   0.415044 0.503415 0.910274 -0.011820
C18   C     C_R   0.660076 0.499991 0.501004 0.549081
C19   C     C_3   0.974017 0.390918 0.520719 0.154637
C20   C     C_3   0.027418 0.429261 0.393363 -0.130521
C21   C     C_1   0.250533 0.501413 0.496691 -0.052176
C22   C     C_1   0.749748 0.501192 0.502719 -0.043794
C23   C     C_3   0.974394 0.576411 0.601518 0.167544
C24   C     C_3   0.031092 0.461365 0.625966 -0.069942
C25   C     C_3   0.320935 0.125124 0.335083 -0.291898
C26   C     C_3   0.410226 0.903400 0.108760 -0.325814
C27   C     C_3   0.005737 0.174588 0.571214 -0.322607
C28   C     C_3   0.287159 0.347930 0.065390 -0.348980
C29   C     C_3   0.276333 0.628067 0.098125 -0.324375
C30   C     C_3   0.998720 0.834274 0.417849 -0.321301
C31   C     C_3   0.004766 0.705908 0.807479 -0.316717
C32   C     C_3   0.739792 0.094348 0.519356 -0.327454
C33   C     C_3   0.916904 0.504215 0.499741 0.037986
C34   C     C_3   0.027157 0.617332 0.476043 0.176982
C35   C     C_3   0.969922 0.545555 0.371782 -0.130489
C36   C     C_1   0.175112 0.502424 0.496244 -0.076942
C37   C     C_1   0.825253 0.502581 0.502121 -0.053289
C38   C     C_3   0.586914 0.069183 0.550194 -0.020004
Cu1   Cu    Cu3+1 0.500040 0.499860 0.642410 0.860313
Cu2   Cu    Cu3+1 0.499960 0.500140 0.357590 0.883712
H1    H     H_    0.592491 0.893224 0.665935 0.098553
H2    H     H_    0.311551 0.207477 0.402352 0.142476
H3    H     H_    0.308971 0.039699 0.394767 0.142151
H4    H     H_    0.273238 0.129382 0.247981 0.115659
H5    H     H_    0.533407 0.105400 0.280052 0.107365
H6    H     H_    0.544055 0.905587 0.284475 0.117838
H7    H     H_    0.359556 0.861007 0.309645 0.249461
H8    H     H_    0.405539 0.817860 0.046790 0.149285
H9    H     H_    0.466673 0.953263 0.071391 0.118220
H10   H     H_    0.352735 0.958980 0.084281 0.140233
H11   H     H_    0.370934 0.115488 0.595470 0.113739
H12   H     H_    0.610345 0.386927 0.877259 0.125091
H13   H     H_    0.363448 0.902780 0.551643 0.103110
H14   H     H_    0.613463 0.609079 0.123000 0.114255
H15   H     H_    0.899625 0.242539 0.464882 0.240728
H16   H     H_    0.974768 0.085222 0.593259 0.130187
H17   H     H_    0.044538 0.199680 0.665457 0.149383
H18   H     H_    0.046981 0.163500 0.478285 0.127511
H19   H     H_    0.519615 0.696238 0.124729 0.143348
H20   H     H_    0.511792 0.698899 0.882380 0.112156
H21   H     H_    0.609676 0.617815 0.877827 0.125827
H22   H     H_    0.613870 0.390107 0.122866 0.112608
H23   H     H_    0.944270 0.580310 0.269013 0.104716
H24   H     H_    0.385289 0.347849 0.215835 0.318790
H25   H     H_    0.239714 0.351586 0.150226 0.142315
H26   H     H_    0.292519 0.251224 0.028668 0.122406
H27   H     H_    0.263986 0.404248 0.974851 0.129897
H28   H     H_    0.387364 0.652669 0.214034 0.316623
H29   H     H_    0.258926 0.609999 0.986262 0.120395
H30   H     H_    0.259609 0.725783 0.119351 0.129722
H31   H     H_    0.239204 0.570164 0.170802 0.177594
H32   H     H_    0.381311 0.586196 0.867591 0.121521
H33   H     H_    0.382555 0.422755 0.863445 0.132541
H34   H     H_    0.512842 0.306991 0.880620 0.115173
H35   H     H_    0.519798 0.304166 0.122081 0.120103
H36   H     H_    0.105708 0.765564 0.523617 0.240566
H37   H     H_    0.031509 0.920098 0.386819 0.129412
H38   H     H_    0.959914 0.854013 0.511636 0.131896
H39   H     H_    0.957309 0.805863 0.328106 0.148694
H40   H     H_    0.897276 0.717110 0.677682 0.241631
H41   H     H_    0.972748 0.752199 0.896404 0.136607
H42   H     H_    0.043204 0.775139 0.751418 0.131436
H43   H     H_    0.046423 0.632176 0.852181 0.145643
H44   H     H_    0.599666 0.103294 0.659578 0.134439
H45   H     H_    0.056518 0.426224 0.728721 0.093050
H46   H     H_    0.647612 0.194541 0.413251 0.259439
H47   H     H_    0.786192 0.105030 0.433843 0.138354
H48   H     H_    0.749155 0.001433 0.567245 0.143949
H49   H     H_    0.751573 0.165630 0.601259 0.153852
H50   H     H_    0.634447 0.883400 0.492341 0.131649
H51   H     H_    0.050317 0.366753 0.309459 0.099642
H52   H     H_    0.454744 0.092948 0.715520 0.100407
H53   H     H_    0.432818 0.887838 0.700340 0.118580
H54   H     H_    0.408395 0.143180 0.169723 0.237737
N1    N     N_3   0.501840 0.500250 0.143650 -0.225601
N2    N     N_2   0.655545 0.109080 0.460010 -0.546477
N3    N     N_3   0.501160 0.503300 0.856280 -0.260349
N4    N     N_2   0.404779 0.126789 0.276886 -0.506250
N5    N     N_2   0.415690 0.876536 0.259860 -0.504245
N6    N     N_2   0.942095 0.267915 0.542803 -0.513766
N7    N     N_2   0.368564 0.387176 0.121272 -0.502663
N8    N     N_2   0.365844 0.609619 0.124853 -0.506418
N9    N     N_2   0.060475 0.739246 0.450541 -0.515296
N10   N     N_2   0.942183 0.654302 0.712463 -0.514352
O1    O     O_R   0.500050 0.317570 0.620260 -0.523181
O2    O     O_R   0.499980 0.317810 0.379740 -0.521046
O3    O     O_R   0.379110 0.499870 0.620240 -0.522827
O4    O     O_R   0.379040 0.500110 0.379720 -0.501425
O5    O     O_R   0.500020 0.682190 0.620260 -0.516660
O6    O     O_R   0.499950 0.682430 0.379740 -0.512069
O7    O     O_R   0.620960 0.499890 0.620280 -0.496699
O8    O     O_R   0.620890 0.500130 0.379760 -0.510972

loop_
_geom_bond_atom_site_label_1
_geom_bond_atom_site_label_2
_ccdc_geom_bond_type
C2    C7    S    
C3    C6    S    
C25   H3    S    
C16   O6    A    
C7    C8    S    
Cu2   O8    S    
C21   C36   T    
Cu1   O3    S    
C4    O4    A    
C31   H42   S    
H40   N10   S    
H28   N8    S    
C26   H10   S    
C5    C6    S    
C14   N8    S    
H54   N4    S    
C2    H1    S    
C32   H48   S    
H7    N5    S    
Cu1   O1    S    
C34   C35   S    
C2    H50   S    
C30   H37   S    
C28   N7    S    
C13   H22   S    
C13   H35   S    
C23   C33   S    
C30   N9    S    
C23   C24   S    
C6    C38   S    
C12   C36   S    
C24   H45   S    
C26   H8    S    
C1    O2    A    
Cu2   O4    S    
H36   N9    S    
Cu1   O7    S    
C9    H6    S    
C9    N5    S    
C17   H33   S    
C20   C35   S    
C14   C17   S    
C15   N3    S    
C25   H4    S    
C20   H51   S    
C16   O5    A    
C29   H29   S    
H24   N7    S    
C4    O3    A    
C27   N6    S    
C1    C6    S    
C28   H27   S    
C18   O7    A    
C3    C8    S    
C27   H17   S    
C26   H9    S    
Cu1   Cu2   S    
C3    H11   S    
C27   H16   S    
C14   N7    S    
Cu2   O6    S    
C32   H47   S    
C5    H5    S    
C33   C37   S    
C3    H52   S    
C8    H13   S    
C28   H26   S    
C5    C9    S    
C2    C38   S    
C32   H49   S    
C23   C34   S    
C12   C20   S    
C31   H43   S    
C15   H12   S    
H46   N2    S    
C30   H39   S    
C7    C16   S    
C32   N2    S    
C13   N1    S    
C13   C15   S    
C19   C33   S    
Cu2   N1    S    
C12   C34   S    
C11   H20   S    
C14   N1    S    
Cu2   O2    S    
C29   H30   S    
C7    C9    S    
C12   C24   S    
C38   H44   S    
C18   C22   S    
C8    H53   S    
C18   O8    A    
C11   H21   S    
C27   H18   S    
C25   H2    S    
C19   N6    S    
H15   N6    S    
C26   N5    S    
C34   N9    S    
C31   H41   S    
C11   N3    S    
C31   N10   S    
C19   C20   S    
C19   C24   S    
C4    C21   S    
C22   C37   T    
C17   N3    S    
C10   N1    S    
C33   C35   S    
C29   N8    S    
C28   H25   S    
C23   N10   S    
C10   H14   S    
Cu1   N3    S    
C10   C11   S    
C30   H38   S    
C25   N4    S    
Cu1   O5    S    
C15   H34   S    
C5    N4    S    
C17   H32   S    
C38   N2    S    
C35   H23   S    
C10   H19   S    
C1    O1    A    
C29   H31   S    
