data_mof_unit_7748.cif
_audit_creation_date              2012-12-11T15:26:34-0500
_audit_creation_method            fapswitch 2.2
_symmetry_space_group_name_H-M    P1
_symmetry_Int_Tables_number       1
_space_group_crystal_system       triclinic
_cell_length_a                    7.257947
_cell_length_b                    12.402815
_cell_length_c                    28.662076
_cell_angle_alpha                 90.003435
_cell_angle_beta                  89.995157
_cell_angle_gamma                 90.071952
_cell_volume                      2580.12862365

loop_
_atom_site_label
_atom_site_type_symbol
_atom_type_description
_atom_site_fract_x
_atom_site_fract_y
_atom_site_fract_z
_atom_type_partial_charge
O1    O     O_R   0.647170 0.849180 0.201220 -0.526546
O2    O     O_R   0.352830 0.150820 0.798780 -0.537827
O3    O     O_R   0.352830 0.150820 0.701220 -0.526495
O4    O     O_R   0.647170 0.849180 0.298780 -0.537836
O5    O     O_R   0.147170 0.650820 0.298780 -0.538457
O6    O     O_R   0.852830 0.349180 0.701220 -0.533692
O7    O     O_R   0.852830 0.349180 0.798780 -0.538438
O8    O     O_R   0.147170 0.650820 0.201220 -0.533662
O9    O     O_R   0.317430 0.862210 0.298450 -0.534570
O10   O     O_R   0.682570 0.137790 0.701550 -0.534058
O11   O     O_R   0.682570 0.137790 0.798450 -0.534601
O12   O     O_R   0.317430 0.862210 0.201550 -0.533927
O13   O     O_R   0.817430 0.637790 0.201550 -0.540684
O14   O     O_R   0.182570 0.362210 0.798450 -0.534539
O15   O     O_R   0.182570 0.362210 0.701550 -0.540665
O16   O     O_R   0.817430 0.637790 0.298450 -0.534550
H1    H     H_    0.985483 0.223138 0.453572 0.164635
H2    H     H_    0.233085 0.742559 0.543273 0.154816
H3    H     H_    0.015064 0.776836 0.953595 0.164639
H4    H     H_    0.766301 0.257597 0.043283 0.154743
H5    H     H_    0.253565 0.238080 0.042783 0.155788
H6    H     H_    0.513222 0.722089 0.952481 0.176485
H7    H     H_    0.745765 0.761646 0.542774 0.155864
H8    H     H_    0.487383 0.277876 0.452549 0.176468
C1    C     C_R   0.486456 0.889193 0.312939 0.657998
C2    C     C_R   0.514695 0.110362 0.687154 0.679634
C3    C     C_R   0.513536 0.110822 0.812941 0.658033
C4    C     C_R   0.485308 0.889604 0.187143 0.679736
C5    C     C_R   0.985326 0.609903 0.187402 0.693611
C6    C     C_R   0.013652 0.389162 0.812984 0.656805
C7    C     C_R   0.014685 0.390090 0.687399 0.693588
C8    C     C_R   0.986340 0.610823 0.312975 0.656687
H9    H     H_    0.967381 0.259968 0.372009 0.156336
H10   H     H_    0.190132 0.721012 0.624536 0.151604
H11   H     H_    0.033032 0.739998 0.872037 0.156328
H12   H     H_    0.809284 0.279104 0.124540 0.151567
H13   H     H_    0.295686 0.216843 0.124020 0.152357
H14   H     H_    0.533095 0.759623 0.871292 0.156053
H15   H     H_    0.703720 0.782939 0.624027 0.152377
H16   H     H_    0.467332 0.240385 0.371348 0.156058
H17   H     H_    0.898057 0.367020 0.600851 0.174817
H18   H     H_    0.022703 0.650327 0.402002 0.133695
H19   H     H_    0.102375 0.632818 0.100870 0.174896
H20   H     H_    0.977006 0.349663 0.902012 0.133759
H21   H     H_    0.476925 0.149488 0.902075 0.133137
H22   H     H_    0.610780 0.870108 0.100173 0.187171
H23   H     H_    0.522784 0.850477 0.402069 0.133056
H24   H     H_    0.389399 0.129900 0.600190 0.187292
O17   O     O_3   0.480630 0.680630 0.250000 -0.378928
O18   O     O_3   0.519370 0.319370 0.750000 -0.378908
O19   O     O_3   0.980630 0.819370 0.250000 -0.371115
O20   O     O_3   0.019370 0.180630 0.750000 -0.371157
V1    V     V_3+5 0.205800 0.762860 0.250000 1.498901
V2    V     V_3+5 0.794200 0.237140 0.750000 1.498642
V3    V     V_3+5 0.705800 0.737140 0.250000 1.491800
V4    V     V_3+5 0.294200 0.262860 0.750000 1.491838
C9    C     C_R   0.997304 0.529292 0.350596 -0.153270
C10   C     C_R   0.015262 0.473380 0.650370 -0.156599
C11   C     C_R   0.002673 0.470690 0.850610 -0.153287
C12   C     C_R   0.984758 0.526587 0.150383 -0.156595
C13   C     C_R   0.483686 0.972842 0.150015 -0.143829
C14   C     C_R   0.502315 0.029012 0.850401 -0.153793
C15   C     C_R   0.516295 0.027108 0.650027 -0.143759
C16   C     C_R   0.497660 0.970987 0.350413 -0.153774
C17   C     C_R   0.982122 0.345412 0.379167 -0.142061
C18   C     C_R   0.130243 0.641917 0.618784 -0.134170
C19   C     C_R   0.018123 0.654563 0.879191 -0.142077
C20   C     C_R   0.869364 0.358152 0.118792 -0.134195
C21   C     C_R   0.358725 0.138659 0.118304 -0.134111
C22   C     C_R   0.517974 0.844954 0.878609 -0.136547
C23   C     C_R   0.640853 0.861170 0.618312 -0.134083
C24   C     C_R   0.482279 0.155041 0.378651 -0.136630
C25   C     C_R   0.989132 0.417371 0.341682 0.372975
C26   C     C_R   0.099885 0.575396 0.657148 0.374030
C27   C     C_R   0.011047 0.582606 0.841704 0.372934
C28   C     C_R   0.899892 0.424637 0.157159 0.374107
C29   C     C_R   0.393888 0.073320 0.156723 0.377143
C30   C     C_R   0.510844 0.917227 0.841269 0.373451
C31   C     C_R   0.605910 0.926575 0.656731 0.377054
C32   C     C_R   0.489327 0.082783 0.341300 0.373434
C33   C     C_R   0.019700 0.564726 0.396543 -0.153322
C34   C     C_R   0.968548 0.441843 0.604887 -0.238803
C35   C     C_R   0.980134 0.435268 0.896555 -0.153437
C36   C     C_R   0.031618 0.558075 0.104902 -0.239247
C37   C     C_R   0.531332 0.941978 0.104408 -0.170619
C38   C     C_R   0.479469 0.063951 0.896396 -0.150436
C39   C     C_R   0.468656 0.057963 0.604424 -0.170579
C40   C     C_R   0.520367 0.936015 0.396404 -0.150374
C41   C     C_R   0.036281 0.491713 0.434325 0.124927
C42   C     C_R   0.036176 0.498022 0.565516 0.068829
C43   C     C_R   0.963644 0.508299 0.934342 0.124803
C44   C     C_R   0.963782 0.501981 0.065532 0.068839
C45   C     C_R   0.457308 0.995727 0.065126 0.115342
C46   C     C_R   0.461749 0.990460 0.933967 0.123331
C47   C     C_R   0.542573 0.004149 0.565142 0.115324
C48   C     C_R   0.538184 0.009469 0.433987 0.123447
C49   C     C_R   0.003062 0.381865 0.425261 0.016329
C50   C     C_R   0.105865 0.603071 0.573321 0.024880
C51   C     C_R   0.997082 0.618124 0.925283 0.016376
C52   C     C_R   0.893823 0.396990 0.073333 0.025006
C53   C     C_R   0.383666 0.099779 0.072904 0.012542
C54   C     C_R   0.495868 0.880894 0.924739 0.008528
C55   C     C_R   0.615970 0.900042 0.572913 0.012467
C56   C     C_R   0.504300 0.119066 0.424777 0.008572
C57   C     C_R   0.077141 0.525414 0.480947 0.051596
C58   C     C_R   0.040306 0.453503 0.519078 0.015911
C59   C     C_R   0.922704 0.474633 0.980964 0.051673
C60   C     C_R   0.959725 0.546520 0.019100 0.016171
C61   C     C_R   0.454753 0.951279 0.018638 0.033788
C62   C     C_R   0.418467 0.023376 0.980529 0.026193
C63   C     C_R   0.545265 0.048602 0.518660 0.033620
C64   C     C_R   0.581364 0.976492 0.480544 0.026240
C65   C     C_R   0.021330 0.340567 0.508468 -0.077677
C66   C     C_R   0.161906 0.626514 0.490757 0.024993
C67   C     C_R   0.979007 0.659448 0.008497 -0.077763
C68   C     C_R   0.837745 0.373585 0.990771 0.025126
C69   C     C_R   0.331346 0.123699 0.990259 0.030149
C70   C     C_R   0.473551 0.838381 0.007833 0.002530
C71   C     C_R   0.668264 0.876104 0.490262 0.030081
C72   C     C_R   0.526854 0.161517 0.507872 0.002419
C73   C     C_R   0.000082 0.308131 0.461826 -0.193713
C74   C     C_R   0.167749 0.665408 0.536270 -0.207707
C75   C     C_R   0.000247 0.691856 0.961851 -0.193712
C76   C     C_R   0.831796 0.334703 0.036282 -0.207647
C77   C     C_R   0.321047 0.161628 0.035839 -0.203034
C78   C     C_R   0.497699 0.806768 0.961115 -0.223163
C79   C     C_R   0.678448 0.838148 0.535839 -0.203134
C80   C     C_R   0.502686 0.193179 0.461165 -0.223195
O21   O     O_3   0.159861 0.612913 0.699840 -0.607944
H25   H     H_    0.164299 0.552864 0.722321 0.299599
O22   O     O_3   0.992053 0.375023 0.297319 -0.607239
H26   H     H_    0.054556 0.427580 0.276668 0.282936
O23   O     O_3   0.839826 0.387159 0.199851 -0.607944
H27   H     H_    0.835795 0.447169 0.222359 0.299566
O24   O     O_3   0.008281 0.624952 0.797342 -0.607229
H28   H     H_    0.945679 0.572438 0.776689 0.283013
O25   O     O_3   0.507944 0.875315 0.796831 -0.608194
H29   H     H_    0.444323 0.927695 0.776363 0.282100
O26   O     O_3   0.333779 0.110570 0.199447 -0.606953
H30   H     H_    0.337487 0.051710 0.222488 0.301381
O27   O     O_3   0.492368 0.124715 0.296869 -0.608272
H31   H     H_    0.556118 0.072356 0.276407 0.281984
O28   O     O_3   0.665996 0.889318 0.699450 -0.606995
H32   H     H_    0.663093 0.948309 0.722439 0.301438
C81   C     C_2   0.048505 0.250311 0.542528 0.805358
O29   O     O_2   0.971270 0.164032 0.536029 -0.519175
O30   O     O_R   0.166804 0.258478 0.580731 -0.671958
H33   H     H_    0.243254 0.326437 0.581283 0.278017
C82   C     C_2   0.278044 0.683891 0.456390 0.733893
O31   O     O_2   0.278410 0.782348 0.455365 -0.571208
O32   O     O_R   0.388507 0.624813 0.425616 -0.644860
H34   H     H_    0.456488 0.671639 0.402377 0.296737
C83   C     C_2   0.952333 0.749771 0.042566 0.805662
O33   O     O_2   0.029844 0.835951 0.036026 -0.519278
O34   O     O_R   0.834206 0.741815 0.080817 -0.671813
H35   H     H_    0.757514 0.673952 0.081422 0.277924
C84   C     C_2   0.721582 0.316232 0.956401 0.733917
O35   O     O_2   0.721125 0.217774 0.955381 -0.571304
O36   O     O_R   0.611180 0.375323 0.925628 -0.644869
H36   H     H_    0.543084 0.328487 0.902412 0.296776
C85   C     C_2   0.218244 0.181536 0.955491 0.734656
O37   O     O_2   0.220332 0.279971 0.954394 -0.571291
O38   O     O_R   0.108397 0.123024 0.924326 -0.645310
H37   H     H_    0.042517 0.170251 0.900883 0.295347
C86   C     C_2   0.440787 0.748060 0.041531 0.743673
O39   O     O_2   0.488957 0.656341 0.031533 -0.572026
O40   O     O_R   0.346724 0.764589 0.083313 -0.656129
H38   H     H_    0.372471 0.705270 0.106739 0.278556
C87   C     C_2   0.781349 0.818256 0.455488 0.734674
O41   O     O_2   0.779181 0.719823 0.454373 -0.571195
O42   O     O_R   0.891256 0.876766 0.424334 -0.645280
H39   H     H_    0.957029 0.829559 0.400860 0.295293
C88   C     C_2   0.560158 0.251747 0.541582 0.744059
O43   O     O_2   0.512570 0.343568 0.531601 -0.571972
O44   O     O_R   0.654100 0.234991 0.583358 -0.656052
H40   H     H_    0.628418 0.294237 0.606827 0.278553

loop_
_geom_bond_atom_site_label_1
_geom_bond_atom_site_label_2
_ccdc_geom_bond_type
O14   V4    S    
O42   H39   S    
H14   C22   S    
C86   O39   D    
H13   C21   S    
C22   C30   A    
C16   C32   A    
C87   O41   D    
C21   C29   A    
O30   H33   S    
H20   C35   S    
H10   C18   S    
C25   O22   S    
O4    C1    A    
H9    C17   S    
O24   H28   S    
C15   C31   A    
C88   O43   D    
C14   C38   A    
H3    C75   S    
C84   O35   D    
O12   C4    A    
O8    C5    A    
C60   C67   A    
O13   C5    A    
C11   C35   A    
C82   O32   S    
C81   O29   D    
C27   O24   S    
H6    C78   S    
C82   O31   D    
C9    C25   A    
O28   H32   S    
C18   C26   A    
C17   C25   A    
C65   C81   S    
O16   C8    A    
C49   C73   A    
C38   C46   A    
C85   O38   S    
C37   C45   A    
C44   C60   A    
C31   O28   S    
O38   H37   S    
C47   C55   A    
C39   C47   A    
O1    C4    A    
C53   C77   A    
O32   H34   S    
O2    C3    A    
H11   C19   S    
C83   O34   S    
C55   C79   A    
O12   V1    S    
C19   C51   A    
H22   C37   S    
C33   C41   A    
C4    C13   S    
O10   C2    A    
O6    C7    A    
C84   O36   S    
O7    C6    A    
H16   C24   S    
C67   C83   S    
H19   C36   S    
C87   O42   S    
H18   C33   S    
C8    C9    S    
O6    V2    S    
C62   C69   A    
C23   C31   A    
C81   O30   S    
O20   V2    S    
C61   C70   A    
C85   O37   D    
C88   O44   S    
C67   C75   A    
C58   C65   A    
O9    C1    A    
C43   C59   A    
C57   C66   A    
C42   C58   A    
C45   C53   A    
O40   H38   S    
C44   C52   A    
C24   C56   A    
C69   C85   S    
O17   V3    S    
C46   C62   A    
O18   V4    S    
C41   C49   A    
C40   C48   A    
O19   V1    S    
C1    C16   S    
C7    C10   S    
C2    C15   S    
C20   C52   A    
C3    C14   S    
C48   C64   A    
O3    V4    S    
O36   H36   S    
C56   C80   A    
C5    C12   S    
O11   C3    A    
C59   C60   A    
C6    C11   S    
C72   C80   A    
H24   C39   S    
C65   C73   A    
C36   C44   A    
O11   V2    S    
C13   C37   A    
C71   C87   S    
H1    C73   S    
H2    C74   S    
C13   C29   A    
C48   C56   A    
O4    V3    S    
O23   H27   S    
C28   O23   S    
C9    C33   A    
O9    V1    S    
H5    C77   S    
O22   H26   S    
C30   O25   S    
C11   C27   A    
C10   C26   A    
H7    C79   S    
O21   H25   S    
C57   C58   A    
C51   C75   A    
O5    V1    S    
C50   C74   A    
C23   C55   A    
C16   C40   A    
C68   C76   A    
C63   C64   A    
C15   C39   A    
C14   C30   A    
O3    C2    A    
C29   O26   S    
C54   C78   A    
O8    V1    S    
C64   C71   A    
O26   H30   S    
H12   C20   S    
O15   C7    A    
C21   C53   A    
C20   C28   A    
C35   C43   A    
O25   H29   S    
C70   C86   S    
C34   C42   A    
C66   C82   S    
C43   C51   A    
H23   C40   S    
O5    C8    A    
C10   C34   A    
H21   C38   S    
O1    V3    S    
O16   V3    S    
C17   C49   A    
C68   C84   S    
C24   C32   A    
O44   H40   S    
O2    V4    S    
O27   H31   S    
O15   V4    S    
C12   C36   A    
C18   C50   A    
C22   C54   A    
H17   C34   S    
C12   C28   A    
O10   V2    S    
C59   C68   A    
H4    C76   S    
C66   C74   A    
C72   C88   S    
C19   C27   A    
C46   C54   A    
C86   O40   S    
C32   O27   S    
C26   O21   S    
C41   C57   A    
O34   H35   S    
H8    C80   S    
H15   C23   S    
C63   C72   A    
C47   C63   A    
C70   C78   A    
O7    V2    S    
C52   C76   A    
C83   O33   D    
C61   C62   A    
C69   C77   A    
C42   C50   A    
O14   C6    A    
C45   C61   A    
O13   V3    S    
C71   C79   A    
