data_mof_unit_29081.cif
_audit_creation_date              2012-12-11T16:21:30-0500
_audit_creation_method            fapswitch 2.2
_symmetry_space_group_name_H-M    P1
_symmetry_Int_Tables_number       1
_space_group_crystal_system       triclinic
_cell_length_a                    7.207889
_cell_length_b                    37.130135
_cell_length_c                    41.169265
_cell_angle_alpha                 90.000016
_cell_angle_beta                  90.000423
_cell_angle_gamma                 90.0
_cell_volume                      11018.1259303

loop_
_atom_site_label
_atom_site_type_symbol
_atom_type_description
_atom_site_fract_x
_atom_site_fract_y
_atom_site_fract_z
_atom_type_partial_charge
O1    O     O_R   0.564240 0.782760 0.216890 -0.535577
O2    O     O_R   0.435760 0.217240 0.783110 -0.539341
O3    O     O_R   0.435760 0.217240 0.716890 -0.535578
O4    O     O_R   0.564240 0.782760 0.283110 -0.539342
O5    O     O_R   0.064240 0.717240 0.283110 -0.535578
O6    O     O_R   0.935760 0.282760 0.716890 -0.539342
O7    O     O_R   0.935760 0.282760 0.783110 -0.535577
O8    O     O_R   0.064240 0.717240 0.216890 -0.539341
O9    O     O_R   0.234510 0.787070 0.282870 -0.538753
O10   O     O_R   0.765490 0.212930 0.717130 -0.542033
O11   O     O_R   0.765490 0.212930 0.782870 -0.538753
O12   O     O_R   0.234510 0.787070 0.217130 -0.542033
O13   O     O_R   0.734510 0.712930 0.217130 -0.538753
O14   O     O_R   0.265490 0.287070 0.782870 -0.542033
O15   O     O_R   0.265490 0.287070 0.717130 -0.538753
O16   O     O_R   0.734510 0.712930 0.282870 -0.542033
C1    C     C_R   0.403097 0.795769 0.293638 0.704133
C2    C     C_R   0.596823 0.204180 0.706436 0.703673
C3    C     C_R   0.596904 0.204231 0.793638 0.704133
C4    C     C_R   0.403177 0.795820 0.206436 0.703671
C5    C     C_R   0.903096 0.704231 0.206362 0.704134
C6    C     C_R   0.096823 0.295820 0.793564 0.703671
C7    C     C_R   0.096903 0.295769 0.706361 0.704134
C8    C     C_R   0.903177 0.704180 0.293564 0.703672
O17   O     O_3   0.397750 0.727090 0.250000 -0.375926
O18   O     O_3   0.602250 0.272910 0.750000 -0.375927
O19   O     O_3   0.897750 0.772910 0.250000 -0.375927
O20   O     O_3   0.102250 0.227090 0.750000 -0.375926
V1    V     V_3+5 0.122890 0.754250 0.250000 1.407318
V2    V     V_3+5 0.877110 0.245750 0.750000 1.407318
V3    V     V_3+5 0.622890 0.745750 0.250000 1.407318
V4    V     V_3+5 0.377110 0.254250 0.750000 1.407318
C9    C     C_R   0.956815 0.612512 0.428931 0.624709
C10   C     C_R   0.052283 0.387240 0.570509 0.627089
C11   C     C_R   0.043189 0.387488 0.928931 0.624709
C12   C     C_R   0.947712 0.612760 0.070509 0.627089
C13   C     C_R   0.456810 0.887488 0.071069 0.624710
C14   C     C_R   0.552288 0.112760 0.929491 0.627089
C15   C     C_R   0.543196 0.112512 0.571068 0.624709
C16   C     C_R   0.447706 0.887240 0.429490 0.627089
O21   O     O_2   0.965459 0.648190 0.434972 -0.514974
O22   O     O_2   0.069834 0.351753 0.564150 -0.514206
O23   O     O_2   0.034545 0.351810 0.934972 -0.514973
O24   O     O_2   0.930163 0.648247 0.064150 -0.514205
O25   O     O_2   0.465454 0.851810 0.065028 -0.514974
O26   O     O_2   0.569839 0.148247 0.935850 -0.514206
O27   O     O_2   0.534562 0.148190 0.565027 -0.514973
O28   O     O_2   0.430145 0.851754 0.435850 -0.514207
N1    N     N_R   0.941129 0.600561 0.397585 -0.538794
N2    N     N_R   0.053387 0.399039 0.602024 -0.538434
N3    N     N_R   0.058877 0.399439 0.897585 -0.538794
N4    N     N_R   0.946607 0.600961 0.102024 -0.538434
N5    N     N_R   0.441123 0.899439 0.102414 -0.538794
N6    N     N_R   0.553393 0.100961 0.897976 -0.538434
N7    N     N_R   0.558872 0.100561 0.602414 -0.538794
N8    N     N_R   0.446613 0.899039 0.397975 -0.538435
C17   C     C_R   0.929985 0.564508 0.390824 0.648989
C18   C     C_R   0.034304 0.434887 0.609134 0.643315
C19   C     C_R   0.070021 0.435492 0.890824 0.648989
C20   C     C_R   0.965689 0.565113 0.109134 0.643315
C21   C     C_R   0.429980 0.935492 0.109175 0.648989
C22   C     C_R   0.534310 0.065113 0.890866 0.643316
C23   C     C_R   0.570005 0.064508 0.609176 0.648990
C24   C     C_R   0.465707 0.934886 0.390866 0.643317
C25   C     C_R   0.094346 0.633607 0.351990 0.018991
C26   C     C_R   0.238289 0.368324 0.645392 0.019215
C27   C     C_R   0.905658 0.366393 0.851990 0.018990
C28   C     C_R   0.761706 0.631676 0.145392 0.019216
C29   C     C_R   0.594342 0.866392 0.148010 0.018989
C30   C     C_R   0.738293 0.131676 0.854608 0.019216
C31   C     C_R   0.405654 0.133608 0.648010 0.018993
C32   C     C_R   0.261711 0.868324 0.354608 0.019214
C33   C     C_R   0.080738 0.658817 0.326587 -0.274307
C34   C     C_R   0.244620 0.343225 0.671013 -0.275337
C35   C     C_R   0.919265 0.341184 0.826587 -0.274307
C36   C     C_R   0.755378 0.656775 0.171012 -0.275337
C37   C     C_R   0.580735 0.841183 0.173413 -0.274306
C38   C     C_R   0.744622 0.156775 0.828988 -0.275337
C39   C     C_R   0.419262 0.158817 0.673413 -0.274308
C40   C     C_R   0.255381 0.843225 0.328987 -0.275337
C41   C     C_R   0.757573 0.669301 0.339349 -0.199910
C42   C     C_R   0.922136 0.328005 0.662197 -0.194081
C43   C     C_R   0.242430 0.330699 0.839349 -0.199910
C44   C     C_R   0.077860 0.671995 0.162197 -0.194081
C45   C     C_R   0.257570 0.830699 0.160651 -0.199910
C46   C     C_R   0.422139 0.171995 0.837803 -0.194080
C47   C     C_R   0.742427 0.169301 0.660651 -0.199910
C48   C     C_R   0.577864 0.828005 0.337803 -0.194080
C49   C     C_R   0.769520 0.644496 0.364805 -0.121595
C50   C     C_R   0.914123 0.352749 0.636696 -0.128906
C51   C     C_R   0.230485 0.355504 0.864805 -0.121594
C52   C     C_R   0.085872 0.647250 0.136696 -0.128907
C53   C     C_R   0.269515 0.855504 0.135195 -0.121595
C54   C     C_R   0.414128 0.147251 0.863304 -0.128907
C55   C     C_R   0.730480 0.144496 0.635195 -0.121595
C56   C     C_R   0.585876 0.852750 0.363304 -0.128907
C57   C     C_R   0.935980 0.626349 0.371343 0.378241
C58   C     C_R   0.069970 0.373210 0.628097 0.379419
C59   C     C_R   0.064024 0.373651 0.871343 0.378242
C60   C     C_R   0.930025 0.626790 0.128097 0.379418
C61   C     C_R   0.435976 0.873651 0.128657 0.378242
C62   C     C_R   0.569974 0.126790 0.871903 0.379418
C63   C     C_R   0.564020 0.126349 0.628656 0.378240
C64   C     C_R   0.430031 0.873210 0.371902 0.379420
C65   C     C_R   0.959001 0.550568 0.448427 -0.039245
C66   C     C_R   0.017444 0.448966 0.551410 -0.037819
C67   C     C_R   0.041001 0.449432 0.948426 -0.039245
C68   C     C_R   0.982552 0.551033 0.051410 -0.037819
C69   C     C_R   0.458999 0.949432 0.051573 -0.039245
C70   C     C_R   0.517448 0.051033 0.948590 -0.037818
C71   C     C_R   0.540999 0.050568 0.551573 -0.039245
C72   C     C_R   0.482556 0.948967 0.448589 -0.037819
C73   C     C_R   0.965443 0.587796 0.454875 -0.033813
C74   C     C_R   0.033696 0.411911 0.544695 -0.033387
C75   C     C_R   0.034559 0.412204 0.954875 -0.033813
C76   C     C_R   0.966301 0.588089 0.044695 -0.033388
C77   C     C_R   0.465440 0.912204 0.045125 -0.033813
C78   C     C_R   0.533700 0.088089 0.955305 -0.033388
C79   C     C_R   0.534568 0.087796 0.545125 -0.033813
C80   C     C_R   0.466293 0.911911 0.455305 -0.033388
C81   C     C_R   0.982583 0.599566 0.486963 -0.120972
C82   C     C_R   0.032448 0.400276 0.512427 -0.119389
C83   C     C_R   0.017418 0.400434 0.986963 -0.120972
C84   C     C_R   0.967551 0.599724 0.012427 -0.119388
C85   C     C_R   0.482580 0.900434 0.013037 -0.120973
C86   C     C_R   0.532450 0.099724 0.987573 -0.119389
C87   C     C_R   0.517441 0.099566 0.513036 -0.120971
C88   C     C_R   0.467529 0.900277 0.487573 -0.119389
C89   C     C_R   0.940504 0.538901 0.416035 -0.029944
C90   C     C_R   0.017873 0.460479 0.584006 -0.026527
C91   C     C_R   0.059500 0.461099 0.916035 -0.029944
C92   C     C_R   0.982121 0.539520 0.084006 -0.026527
C93   C     C_R   0.440500 0.961099 0.083965 -0.029944
C94   C     C_R   0.517879 0.039520 0.915994 -0.026527
C95   C     C_R   0.559485 0.038901 0.583966 -0.029944
C96   C     C_R   0.482138 0.960479 0.415994 -0.026526
C97   C     C_R   0.913325 0.676934 0.320022 -0.033630
C98   C     C_R   0.087571 0.322806 0.679665 -0.035526
C99   C     C_R   0.086678 0.323066 0.820022 -0.033630
C100  C     C_R   0.912427 0.677194 0.179665 -0.035526
C101  C     C_R   0.413322 0.823066 0.179978 -0.033630
C102  C     C_R   0.587573 0.177194 0.820335 -0.035527
C103  C     C_R   0.586675 0.176934 0.679978 -0.033630
C104  C     C_R   0.412429 0.822806 0.320335 -0.035526
H1    H     H_    0.626815 0.682892 0.335142 0.132085
H2    H     H_    0.798645 0.312674 0.667965 0.136145
H3    H     H_    0.373188 0.317108 0.835143 0.132085
H4    H     H_    0.201352 0.687326 0.167965 0.136146
H5    H     H_    0.126812 0.817108 0.164857 0.132085
H6    H     H_    0.298648 0.187327 0.832034 0.136146
H7    H     H_    0.873185 0.182892 0.664858 0.132086
H8    H     H_    0.701354 0.812673 0.332035 0.136145
H9    H     H_    0.648601 0.639332 0.379671 0.150207
H10   H     H_    0.785622 0.356088 0.623432 0.135422
H11   H     H_    0.351405 0.360668 0.879671 0.150208
H12   H     H_    0.214372 0.643912 0.123432 0.135422
H13   H     H_    0.148595 0.860668 0.120329 0.150208
H14   H     H_    0.285628 0.143912 0.876568 0.135421
H15   H     H_    0.851400 0.139332 0.620329 0.150211
H16   H     H_    0.714377 0.856088 0.376568 0.135419
H17   H     H_    0.989669 0.628032 0.492613 0.171665
H18   H     H_    0.046666 0.371974 0.506529 0.171503
H19   H     H_    0.010332 0.371968 0.992613 0.171664
H20   H     H_    0.953333 0.628026 0.006529 0.171503
H21   H     H_    0.489666 0.871968 0.007387 0.171665
H22   H     H_    0.546669 0.128026 0.993471 0.171503
H23   H     H_    0.510363 0.128032 0.507386 0.171665
H24   H     H_    0.453302 0.871974 0.493471 0.171503
C105  C     C_R   0.991213 0.511840 0.532808 0.035888
C106  C     C_R   0.971738 0.487603 0.467193 0.035970
C107  C     C_R   0.008784 0.488160 0.032808 0.035888
C108  C     C_R   0.028263 0.512397 0.967193 0.035970
C109  C     C_R   0.491215 0.988160 0.967192 0.035888
C110  C     C_R   0.471738 0.012397 0.032807 0.035970
C111  C     C_R   0.508799 0.011839 0.467192 0.035888
C112  C     C_R   0.528250 0.987603 0.532807 0.035970
C113  C     C_R   0.994484 0.462205 0.492891 0.036483
C114  C     C_R   0.984324 0.537362 0.506926 0.036214
C115  C     C_R   0.005516 0.537794 0.992891 0.036483
C116  C     C_R   0.015675 0.462638 0.006926 0.036214
C117  C     C_R   0.494484 0.037795 0.007109 0.036483
C118  C     C_R   0.484325 0.962638 0.993074 0.036214
C119  C     C_R   0.505505 0.962205 0.507109 0.036483
C120  C     C_R   0.515688 0.037362 0.493073 0.036214
C121  C     C_R   0.000857 0.474440 0.525598 0.068806
C122  C     C_R   0.971522 0.525074 0.474292 0.068351
C123  C     C_R   0.999140 0.525560 0.025598 0.068806
C124  C     C_R   0.028479 0.474926 0.974292 0.068350
C125  C     C_R   0.500860 0.025560 0.974402 0.068806
C126  C     C_R   0.471521 0.974926 0.025708 0.068351
C127  C     C_R   0.499143 0.974440 0.474402 0.068805
C128  C     C_R   0.528478 0.025074 0.525708 0.068350
C129  C     C_R   0.988239 0.522343 0.565884 -0.167517
C130  C     C_R   0.948399 0.476890 0.434422 -0.167851
C131  C     C_R   0.011755 0.477656 0.065884 -0.167518
C132  C     C_R   0.051604 0.523110 0.934422 -0.167850
C133  C     C_R   0.488244 0.977656 0.934116 -0.167518
C134  C     C_R   0.448397 0.023110 0.065577 -0.167850
C135  C     C_R   0.511784 0.022343 0.434116 -0.167517
C136  C     C_R   0.551578 0.976889 0.565578 -0.167850
C137  C     C_R   0.001222 0.497187 0.590847 -0.116014
C138  C     C_R   0.933161 0.502016 0.409476 -0.117358
C139  C     C_R   0.998771 0.502813 0.090847 -0.116014
C140  C     C_R   0.066844 0.497984 0.909476 -0.117357
C141  C     C_R   0.501228 0.002813 0.909153 -0.116015
C142  C     C_R   0.433157 0.997984 0.090524 -0.117358
C143  C     C_R   0.498801 0.997187 0.409153 -0.116013
C144  C     C_R   0.566817 0.002016 0.590525 -0.117359
O29   O     O_2   0.031759 0.445745 0.640407 -0.519471
O30   O     O_2   0.910293 0.553468 0.359791 -0.516686
O31   O     O_2   0.968233 0.554254 0.140407 -0.519471
O32   O     O_2   0.089714 0.446532 0.859791 -0.516686
O33   O     O_2   0.531766 0.054255 0.859593 -0.519471
O34   O     O_2   0.410288 0.946532 0.140209 -0.516686
O35   O     O_2   0.468262 0.945745 0.359593 -0.519470
O36   O     O_2   0.589687 0.053468 0.640210 -0.516688
C145  C     C_R   0.991773 0.574993 0.512442 -0.168121
C146  C     C_R   0.013278 0.424783 0.487069 -0.167520
C147  C     C_R   0.008226 0.425007 0.012442 -0.168121
C148  C     C_R   0.986723 0.575217 0.987069 -0.167520
C149  C     C_R   0.491772 0.925007 0.987558 -0.168120
C150  C     C_R   0.513278 0.075217 0.012931 -0.167520
C151  C     C_R   0.508251 0.074993 0.487558 -0.168120
C152  C     C_R   0.486699 0.924783 0.512931 -0.167521
H25   H     H_    0.373465 0.339545 0.684174 0.129503
H26   H     H_    0.202099 0.664340 0.311856 0.130154
H27   H     H_    0.626533 0.660455 0.184174 0.129502
H28   H     H_    0.797903 0.335660 0.811856 0.130154
H29   H     H_    0.873467 0.160455 0.815826 0.129502
H30   H     H_    0.702097 0.835660 0.188144 0.130154
H31   H     H_    0.126536 0.839545 0.315825 0.129503
H32   H     H_    0.297901 0.164341 0.688143 0.130154
H33   H     H_    0.998674 0.506773 0.615699 0.170391
H34   H     H_    0.916357 0.492276 0.384844 0.170830
H35   H     H_    0.001317 0.493227 0.115699 0.170391
H36   H     H_    0.083649 0.507724 0.884844 0.170830
H37   H     H_    0.498681 0.993227 0.884301 0.170391
H38   H     H_    0.416353 0.007724 0.115156 0.170830
H39   H     H_    0.501358 0.006773 0.384301 0.170391
H40   H     H_    0.583612 0.992276 0.615156 0.170830
H41   H     H_    0.972833 0.549911 0.573500 0.124552
H42   H     H_    0.938253 0.449128 0.427111 0.124757
H43   H     H_    0.027161 0.450089 0.073500 0.124552
H44   H     H_    0.061751 0.550872 0.927111 0.124757
H45   H     H_    0.472837 0.950089 0.926500 0.124552
H46   H     H_    0.438251 0.050872 0.072888 0.124758
H47   H     H_    0.527200 0.049910 0.426499 0.124552
H48   H     H_    0.561716 0.949128 0.572889 0.124757
H49   H     H_    0.008748 0.586556 0.536229 0.124885
H50   H     H_    0.017647 0.413400 0.463038 0.124791
H51   H     H_    0.991250 0.413444 0.036229 0.124884
H52   H     H_    0.982355 0.586600 0.963038 0.124790
H53   H     H_    0.508748 0.913444 0.963771 0.124884
H54   H     H_    0.517647 0.086599 0.036962 0.124790
H55   H     H_    0.491285 0.086556 0.463770 0.124884
H56   H     H_    0.482320 0.913401 0.536962 0.124790
C153  C     C_2   0.410771 0.388348 0.637529 0.409036
H57   H     H_    0.528229 0.386955 0.653983 0.040409
O37   O     O_2   0.426237 0.405991 0.612664 -0.520325
C154  C     C_2   0.276586 0.615973 0.357394 0.401637
H58   H     H_    0.387179 0.619750 0.339824 0.040685
O38   O     O_2   0.307552 0.597627 0.381386 -0.522169
C155  C     C_2   0.589224 0.611652 0.137529 0.409036
H59   H     H_    0.471767 0.613045 0.153982 0.040408
O39   O     O_2   0.573757 0.594009 0.112663 -0.520324
C156  C     C_2   0.723418 0.384027 0.857394 0.401636
H60   H     H_    0.612823 0.380250 0.839824 0.040685
O40   O     O_2   0.692453 0.402373 0.881385 -0.522169
C157  C     C_2   0.910776 0.111652 0.862471 0.409037
H61   H     H_    0.028233 0.113045 0.846017 0.040408
O41   O     O_2   0.926242 0.094009 0.887337 -0.520325
C158  C     C_2   0.776582 0.884027 0.142606 0.401638
H62   H     H_    0.887177 0.880250 0.160176 0.040685
O42   O     O_2   0.807547 0.902373 0.118615 -0.522170
C159  C     C_2   0.089230 0.888349 0.362470 0.409034
H63   H     H_    0.971771 0.886955 0.346016 0.040411
O43   O     O_2   0.073766 0.905993 0.387335 -0.520324
C160  C     C_2   0.223413 0.115974 0.642605 0.401638
H64   H     H_    0.112820 0.119750 0.660176 0.040683
O44   O     O_2   0.192445 0.097629 0.618613 -0.522171

loop_
_geom_bond_atom_site_label_1
_geom_bond_atom_site_label_2
_ccdc_geom_bond_type
O17   V3    S    
C120  C151  A    
C48   C56   A    
O18   V4    S    
C115  C148  A    
C134  C142  A    
C32   C159  S    
C146  H50   S    
C29   C37   A    
O16   C8    A    
C68   C123  A    
C133  C141  A    
C159  H63   S    
C10   O22   S    
C86   H22   S    
C113  C146  A    
C26   C153  S    
C84   H20   S    
C136  H48   S    
C31   C39   A    
C113  C121  A    
C155  H59   S    
C38   H29   S    
C41   C97   A    
C88   C152  A    
C34   C98   A    
C19   C91   A    
C37   H30   S    
C145  H49   S    
O12   C4    A    
C132  H44   S    
C1    C104  S    
C55   H15   S    
O8    V1    S    
C141  H37   S    
O2    V4    S    
C17   C89   A    
C30   C38   A    
C159  O43   D    
O10   C2    A    
C34   H25   S    
C22   C94   A    
C46   H6    S    
C111  C127  A    
C33   H26   S    
O12   V1    S    
C2    C103  S    
C112  C128  A    
C131  C139  A    
C9    N1    A    
O7    C6    A    
C130  C138  A    
N7    C63   S    
C86   C150  A    
O1    V3    S    
N1    C17   A    
O19   V1    S    
O3    C2    A    
C71   C79   A    
C153  H57   S    
C94   C141  A    
C133  H45   S    
C137  H33   S    
C140  H36   S    
C31   C63   A    
C7    C98   S    
C17   O30   S    
C117  C125  A    
C116  C147  A    
C39   C103  A    
O11   V2    S    
N5    C61   S    
C158  H62   S    
C40   C104  A    
N7    C23   A    
C65   C73   A    
C24   O35   S    
C120  C128  A    
C73   C81   A    
C30   C62   A    
C84   C148  A    
C23   O36   S    
C50   H10   S    
C11   O23   S    
C129  C137  A    
C12   N4    A    
C27   C59   A    
C13   N5    A    
C29   C158  S    
O15   C7    A    
O2    C3    A    
C81   H17   S    
C71   C128  A    
C136  C144  A    
O7    V2    S    
C147  H51   S    
C157  H61   S    
C36   H27   S    
N3    C59   S    
C48   H8    S    
C52   C60   A    
C144  H40   S    
N5    C21   A    
C112  C136  A    
C110  C117  A    
C43   C99   A    
C42   H2    S    
C55   C63   A    
N3    C19   A    
O5    V1    S    
C44   H4    S    
C46   C54   A    
C10   C74   A    
C149  H53   S    
C110  C134  A    
C31   C160  S    
N2    C58   S    
C72   C96   A    
C106  C113  A    
C69   C93   A    
N2    C18   A    
C12   C76   A    
O15   V4    S    
C25   C154  S    
C75   C83   A    
C143  H39   S    
N8    C64   S    
C154  O38   D    
C87   C151  A    
C21   C93   A    
C25   C33   A    
C53   C61   A    
C106  C130  A    
C27   C156  S    
C66   C90   A    
C119  C152  A    
C30   C157  S    
C105  C129  A    
C36   C100  A    
C32   C64   A    
C107  C131  A    
C16   N8    A    
C93   C142  A    
C68   C92   A    
C114  C145  A    
C109  C133  A    
C67   C124  A    
N4    C60   S    
C152  H56   S    
C49   C57   A    
C153  O37   D    
C114  C122  A    
C65   C122  A    
C69   C77   A    
C85   H21   S    
C28   C60   A    
C139  H35   S    
C91   C140  A    
C151  H55   S    
C138  H34   S    
C26   C34   A    
C83   H19   S    
O10   V2    S    
C44   C52   A    
C49   H9    S    
C45   C53   A    
C14   N6    A    
C108  C132  A    
C69   C126  A    
O11   C3    A    
C106  C122  A    
C135  C143  A    
O8    C5    A    
C150  H54   S    
O13   C5    A    
C47   H7    S    
C142  H38   S    
C87   H23   S    
C135  H47   S    
C53   H13   S    
C70   C78   A    
O14   C6    A    
C111  C135  A    
C90   C137  A    
C156  O40   D    
C110  C126  A    
C43   H3    S    
O4    C1    A    
C15   O27   S    
C108  C115  A    
C158  O42   D    
O6    V2    S    
C66   C74   A    
C109  C118  A    
C3    C102  S    
C41   H1    S    
C148  H52   S    
C68   C76   A    
C11   N3    A    
C16   C80   A    
C22   O33   S    
C18   C90   A    
C107  C116  A    
C12   O24   S    
C132  C140  A    
C51   H11   S    
C89   C138  A    
C40   H31   S    
C45   C101  A    
C52   H12   S    
C116  C124  A    
C105  C114  A    
C129  H41   S    
C19   O32   S    
C46   C102  A    
C72   C80   A    
O16   V3    S    
C18   O29   S    
O9    C1    A    
C16   O28   S    
C56   C64   A    
C83   C147  A    
C47   C55   A    
C35   H28   S    
O1    C4    A    
C20   C92   A    
C82   C146  A    
C56   H16   S    
C117  C150  A    
C112  C119  A    
C81   C145  A    
C4    C101  S    
O13   V3    S    
C33   C97   A    
C66   C121  A    
O14   V4    S    
C154  H58   S    
C118  C149  A    
C38   C102  A    
C119  C127  A    
C54   H14   S    
C10   N2    A    
C65   C89   A    
C80   C88   A    
C95   C144  A    
C130  H42   S    
C85   C149  A    
C8    C97   S    
C15   N7    A    
C96   C143  A    
C43   C51   A    
C70   C125  A    
C9    C73   A    
C42   C50   A    
C107  C123  A    
C82   H18   S    
N6    C62   S    
C26   C58   A    
C67   C91   A    
C157  O41   D    
C9    O21   S    
C105  C121  A    
O20   V2    S    
C32   C40   A    
C155  O39   D    
C42   C98   A    
C72   C127  A    
O9    V1    S    
C28   C36   A    
C71   C95   A    
N8    C24   A    
O5    C8    A    
C131  H43   S    
C134  H46   S    
C15   C79   A    
O6    C7    A    
C6    C99   S    
C109  C125  A    
C92   C139  A    
C13   C77   A    
C50   C58   A    
C67   C75   A    
C160  O44   D    
C41   C49   A    
O3    V4    S    
C78   C86   A    
C20   O31   S    
C45   H5    S    
C39   H32   S    
C14   O26   S    
O4    V3    S    
C70   C94   A    
C156  H60   S    
N1    C57   S    
C74   C82   A    
C25   C57   A    
C27   C35   A    
C11   C75   A    
C44   C100  A    
C37   C101  A    
N4    C20   A    
C21   O34   S    
C115  C123  A    
C88   H24   S    
C160  H64   S    
N6    C22   A    
C14   C78   A    
C35   C99   A    
C24   C96   A    
C118  C126  A    
C5    C100  S    
C47   C103  A    
C51   C59   A    
C76   C84   A    
C77   C85   A    
C13   O25   S    
C48   C104  A    
C28   C155  S    
C108  C124  A    
C54   C62   A    
C23   C95   A    
C111  C120  A    
C29   C61   A    
C79   C87   A    
