data_mof_unit_58935.cif
_audit_creation_date              2012-12-10T18:11:05-0500
_audit_creation_method            fapswitch 2.2
_symmetry_space_group_name_H-M    P1
_symmetry_Int_Tables_number       1
_space_group_crystal_system       triclinic
_cell_length_a                    10.769441
_cell_length_b                    9.552828
_cell_length_c                    10.619042
_cell_angle_alpha                 90.32731
_cell_angle_beta                  90.346874
_cell_angle_gamma                 90.54286
_cell_volume                      1092.3851187

loop_
_atom_site_label
_atom_site_type_symbol
_atom_type_description
_atom_site_fract_x
_atom_site_fract_y
_atom_site_fract_z
_atom_type_partial_charge
C1    C     C_R   0.259954 0.499436 0.493894 0.814564
C2    C     C_3   0.499277 0.498737 0.123169 0.005404
C3    C     C_3   0.071799 0.648454 0.457203 -0.380502
C4    C     C_3   0.071196 0.462209 0.619665 -0.384043
C5    C     C_3   0.929014 0.650089 0.459247 -0.358728
C6    C     C_3   0.928911 0.456248 0.619694 -0.339277
C7    C     C_3   0.066110 0.393798 0.381587 -0.027589
C8    C     C_3   0.120843 0.498390 0.486730 0.005563
C9    C     C_3   0.876865 0.502325 0.490826 0.094785
C10   C     C_3   0.920388 0.399481 0.387267 -0.440831
C11   C     C_3   0.621376 0.083937 0.548455 0.271786
C12   C     C_3   0.620642 0.918415 0.550054 0.264715
C13   C     C_3   0.393348 0.082052 0.575914 -0.123936
C14   C     C_3   0.391462 0.915953 0.573147 -0.106319
C15   C     C_3   0.485636 0.082573 0.373040 -0.334756
C16   C     C_3   0.486799 0.915636 0.372803 -0.331377
C17   C     C_R   0.499618 0.499594 0.259918 0.845858
C18   C     C_R   0.739296 0.500910 0.496476 0.782603
C19   C     C_R   0.501841 0.500447 0.740546 0.839848
C20   C     C_3   0.423689 0.599391 0.042123 -0.125405
C21   C     C_3   0.461671 0.373710 0.039828 -0.053029
C22   C     C_3   0.386138 0.474544 0.956293 -0.162210
C23   C     C_3   0.503012 0.501357 0.878052 -0.000435
C24   C     C_3   0.540651 0.626194 0.962031 -0.092505
C25   C     C_3   0.578629 0.400761 0.959655 -0.116103
C26   C     C_3   0.615988 0.525535 0.045447 -0.260954
Cu1   Cu    Cu3+1 0.499860 0.642410 0.500060 0.962125
Cu2   Cu    Cu3+1 0.499860 0.357590 0.500060 0.980570
H1    H     H_    0.291511 0.455811 0.917477 0.126849
H2    H     H_    0.876620 0.429804 0.296737 0.188940
H3    H     H_    0.879946 0.293935 0.406085 0.183904
H4    H     H_    0.694209 0.114475 0.479439 0.082558
H5    H     H_    0.694543 0.886163 0.483173 0.077768
H6    H     H_    0.398488 0.119851 0.328818 0.218200
H7    H     H_    0.400297 0.875059 0.327110 0.181080
H8    H     H_    0.561229 0.121382 0.310953 0.170191
H9    H     H_    0.563823 0.879150 0.311795 0.174351
H10   H     H_    0.307608 0.112739 0.524846 0.155933
H11   H     H_    0.306566 0.887430 0.517547 0.112820
H12   H     H_    0.360004 0.680590 0.078717 0.151345
H13   H     H_    0.429094 0.270243 0.074287 0.173368
H14   H     H_    0.575900 0.729997 0.932637 0.232653
H15   H     H_    0.643646 0.319688 0.926455 0.210453
H16   H     H_    0.710119 0.546244 0.084997 0.165948
H17   H     H_    0.105724 0.685536 0.364385 0.171756
H18   H     H_    0.107879 0.362100 0.653745 0.255108
H19   H     H_    0.106648 0.725454 0.528119 0.234567
H20   H     H_    0.103364 0.542592 0.689075 0.187210
H21   H     H_    0.898356 0.727661 0.530862 0.216214
H22   H     H_    0.892931 0.524951 0.696003 0.181637
H23   H     H_    0.893095 0.684654 0.366063 0.178363
H24   H     H_    0.898578 0.347545 0.640311 0.236877
N1    N     N_3   0.500250 0.143650 0.502780 -0.207868
N2    N     N_3   0.500250 0.856350 0.502780 -0.202560
O1    O     O_R   0.317570 0.620260 0.500070 -0.585531
O2    O     O_R   0.317570 0.379740 0.500070 -0.573523
O3    O     O_R   0.499850 0.620240 0.316900 -0.607710
O4    O     O_R   0.499850 0.379760 0.316900 -0.587474
O5    O     O_R   0.682190 0.620260 0.500030 -0.579921
O6    O     O_R   0.682190 0.379740 0.500030 -0.579020
O7    O     O_R   0.499910 0.620280 0.683200 -0.541701
O8    O     O_R   0.499910 0.379720 0.683200 -0.544850
Br1   Br    Br    0.695124 0.169847 0.699487 -0.443468
Br2   Br    Br    0.688872 0.836363 0.704167 -0.442250
C27   C     C_2   0.371347 0.143210 0.706408 0.944735
O9    O     O_2   0.448407 0.133534 0.790512 -0.523371
O10   O     O_R   0.256056 0.200832 0.733632 -0.782831
H25   H     H_    0.248298 0.230150 0.825076 0.319892
C28   C     C_2   0.363046 0.848968 0.699551 0.944076
O11   O     O_2   0.433165 0.863749 0.789292 -0.548893
O12   O     O_R   0.251561 0.775265 0.715429 -0.799597
H26   H     H_    0.242310 0.736143 0.803486 0.314933
C29   C     C_2   0.113489 0.439072 0.251463 0.817786
O13   O     O_2   0.224217 0.431390 0.228182 -0.618314
O14   O     O_R   0.033192 0.491122 0.159141 -0.781627
H27   H     H_    0.077855 0.517497 0.078767 0.330891
C30   C     C_2   0.102603 0.240493 0.402000 0.819509
O15   O     O_2   0.073546 0.180358 0.499002 -0.591561
O16   O     O_R   0.161271 0.164651 0.306493 -0.756553
H28   H     H_    0.174118 0.062863 0.329389 0.308883

loop_
_geom_bond_atom_site_label_1
_geom_bond_atom_site_label_2
_ccdc_geom_bond_type
C7    C10   S    
C22   H1    S    
C1    C8    S    
C24   H14   S    
C29   O13   D    
C4    C8    S    
C25   H15   S    
C6    C9    S    
Cu2   O2    S    
Cu1   N2    S    
C26   H16   S    
C7    C8    S    
C7    C29   S    
C4    H18   S    
C30   O15   D    
C15   N1    S    
C1    O2    A    
C24   C26   S    
C11   Br1   S    
C16   H7    S    
C20   H12   S    
Cu1   O1    S    
C19   O8    A    
C15   C16   S    
C28   O12   S    
Cu1   O7    S    
C14   H11   S    
C10   H3    S    
C20   C24   S    
C27   O10   S    
C23   C24   S    
C9    C10   S    
C15   H6    S    
C11   N1    S    
C16   H9    S    
C7    C30   S    
Cu2   O6    S    
C21   C22   S    
C2    C17   S    
C29   O14   S    
C5    H21   S    
C13   N1    S    
C30   O16   S    
C2    C20   S    
O10   H25   S    
C4    C6    S    
C3    C8    S    
Cu1   O3    S    
C13   C27   S    
C25   C26   S    
C3    H17   S    
C19   C23   S    
O14   H27   S    
C5    C9    S    
C10   H2    S    
C11   C12   S    
C2    C21   S    
C2    C26   S    
C6    H22   S    
C13   H10   S    
C18   O5    A    
C21   H13   S    
C18   O6    A    
C14   N2    S    
C20   C22   S    
C11   H4    S    
C14   C28   S    
C15   H8    S    
C4    H20   S    
C21   C25   S    
C3    C5    S    
Cu2   N1    S    
Cu2   O4    S    
C17   O4    A    
C1    O1    A    
O12   H26   S    
Cu1   O5    S    
C19   O7    A    
C12   Br2   S    
C3    H19   S    
C23   C25   S    
C28   O11   D    
C16   N2    S    
O16   H28   S    
C9    C18   S    
C27   O9    D    
Cu1   Cu2   S    
C22   C23   S    
C5    H23   S    
C6    H24   S    
C12   H5    S    
C13   C14   S    
C12   N2    S    
C17   O3    A    
Cu2   O8    S    
