data_mof_unit_41424.cif
_audit_creation_date              2012-12-10T17:18:56-0500
_audit_creation_method            fapswitch 2.2
_symmetry_space_group_name_H-M    P1
_symmetry_Int_Tables_number       1
_space_group_crystal_system       triclinic
_cell_length_a                    10.167816
_cell_length_b                    10.872912
_cell_length_c                    13.484151
_cell_angle_alpha                 91.67699
_cell_angle_beta                  99.031573
_cell_angle_gamma                 97.414252
_cell_volume                      1458.06475162

loop_
_atom_site_label
_atom_site_type_symbol
_atom_type_description
_atom_site_fract_x
_atom_site_fract_y
_atom_site_fract_z
_atom_type_partial_charge
C1    C     C_R   0.056254 0.733060 0.494941 0.895014
C2    C     C_2   0.009333 0.065797 0.513124 -0.220968
C3    C     C_2   0.430963 0.510941 0.508784 -0.146896
C4    C     C_2   0.569050 0.488820 0.491444 -0.147938
C5    C     C_R   0.093120 0.516407 0.686313 0.879928
C6    C     C_R   0.907492 0.486507 0.313255 0.878896
C7    C     C_R   0.144524 0.539411 0.793931 -0.093570
C8    C     C_R   0.860802 0.482168 0.203959 -0.090891
C9    C     C_R   0.155340 0.642071 0.957739 -0.195069
C10   C     C_R   0.873657 0.434646 0.028903 -0.193485
C11   C     C_R   0.086630 0.612637 0.859780 0.177456
C12   C     C_R   0.943798 0.266912 0.505229 0.897049
C13   C     C_R   0.934420 0.443682 0.130142 0.182482
C14   C     C_R   0.266643 0.497643 0.827618 -0.319722
C15   C     C_R   0.734007 0.517516 0.173875 -0.320829
C16   C     C_R   0.343768 0.541096 0.919404 0.091992
C17   C     C_R   0.675311 0.513720 0.073291 0.091330
C18   C     C_R   0.284005 0.609207 0.987021 0.124270
C19   C     C_R   0.743920 0.465589 0.000740 0.130338
C20   C     C_R   0.478844 0.518816 0.945029 0.082548
C21   C     C_R   0.546238 0.549666 0.044298 0.078884
C22   C     C_3   0.074088 0.408825 0.156122 -0.868711
C23   C     C_R   0.483492 0.617295 0.110712 -0.228760
C24   C     C_3   0.957341 0.665054 0.827243 -0.870995
C25   C     C_3   0.661656 0.141266 0.443752 -0.766125
C26   C     C_3   0.337627 0.858210 0.560280 -0.763169
C27   C     C_R   0.550418 0.471520 0.873579 -0.228285
C28   C     C_R   0.354901 0.647035 0.081988 -0.233336
C29   C     C_R   0.681256 0.446809 0.901124 -0.238725
C30   C     C_2   0.093969 0.867412 0.497497 0.030688
C31   C     C_2   0.906316 0.132495 0.503182 0.031236
C32   C     C_2   0.991100 0.934261 0.486987 -0.221887
H1    H     H_    0.311123 0.700596 0.134269 0.147458
H2    H     H_    0.888816 0.889137 0.462921 0.184017
H3    H     H_    0.578153 0.416049 0.437141 0.165293
H4    H     H_    0.421877 0.583521 0.563259 0.165235
H5    H     H_    0.665177 0.621995 0.590214 0.162570
H6    H     H_    0.334829 0.378140 0.409676 0.162680
H7    H     H_    0.073091 0.329504 0.206126 0.245874
H8    H     H_    0.114028 0.380435 0.088086 0.231618
H9    H     H_    0.143852 0.489731 0.193552 0.251530
H10   H     H_    0.968616 0.727032 0.764247 0.246326
H11   H     H_    0.874104 0.588854 0.803061 0.249706
H12   H     H_    0.732298 0.409804 0.844482 0.148280
H13   H     H_    0.928989 0.720332 0.889225 0.230655
H14   H     H_    0.744967 0.005662 0.531909 0.228750
H15   H     H_    0.570352 0.074871 0.414688 0.226990
H16   H     H_    0.688708 0.197249 0.380486 0.245458
H17   H     H_    0.637522 0.201504 0.504473 0.247749
H18   H     H_    0.256797 0.993316 0.469998 0.227551
H19   H     H_    0.428454 0.924522 0.590704 0.228188
H20   H     H_    0.363658 0.797891 0.500403 0.245960
H21   H     H_    0.308329 0.802260 0.622951 0.246416
H22   H     H_    0.678045 0.542198 0.231075 0.174650
H23   H     H_    0.301773 0.432691 0.779253 0.167819
H24   H     H_    0.111516 0.695994 0.009796 0.144966
H25   H     H_    0.926591 0.401333 0.971850 0.147733
H26   H     H_    0.533658 0.654036 0.184001 0.149527
H27   H     H_    0.509787 0.456812 0.794700 0.149982
H28   H     H_    0.111697 0.111045 0.536490 0.184109
N1    N     N_2   0.322180 0.446120 0.460900 -0.189675
N2    N     N_2   0.677820 0.553880 0.539100 -0.191115
N3    N     N_2   0.769680 0.072763 0.482942 -0.308932
N4    N     N_2   0.230635 0.926838 0.519055 -0.309061
O1    O     O_R   0.935190 0.693030 0.507870 -0.625303
O2    O     O_R   0.064810 0.306970 0.492130 -0.624860
O3    O     O_R   0.142080 0.658430 0.482770 -0.597986
O4    O     O_R   0.857920 0.341570 0.517230 -0.597596
O5    O     O_R   0.969700 0.527180 0.651960 -0.603918
O6    O     O_R   0.030300 0.472820 0.348040 -0.600736
O7    O     O_R   0.176600 0.492580 0.626860 -0.610913
O8    O     O_R   0.823400 0.507420 0.373140 -0.614227
Zn1   Zn    Zn3+2 0.861850 0.523100 0.516760 0.920766
Zn2   Zn    Zn3+2 0.138150 0.476900 0.483240 0.923717

loop_
_geom_bond_atom_site_label_1
_geom_bond_atom_site_label_2
_ccdc_geom_bond_type
O6    Zn2   S    
O7    Zn2   S    
C7    C11   A    
C15   H22   S    
N2    Zn1   S    
O5    Zn1   S    
C8    C13   A    
C20   C27   A    
C26   H20   S    
N1    Zn2   S    
C27   C29   A    
C31   N3    S    
C24   H10   S    
C10   C19   A    
C1    O1    A    
C12   C31   S    
C25   H15   S    
H14   N3    S    
C16   C20   A    
H6    N1    S    
C22   H8    S    
C9    C18   A    
C21   C23   A    
H5    N2    S    
O4    Zn1   S    
C4    H3    S    
O1    Zn1   S    
C5    O7    A    
C9    H24   S    
C27   H27   S    
C26   H19   S    
C15   C17   A    
C30   C32   D    
C12   O4    A    
C25   H16   S    
C9    C11   A    
C2    H28   S    
C12   O2    A    
C3    H4    S    
C22   H7    S    
C2    C32   S    
C1    C30   S    
C1    O3    A    
O2    Zn2   S    
C13   C22   S    
C14   H23   S    
C23   H26   S    
C30   N4    S    
C3    N1    D    
C29   H12   S    
C14   C16   A    
C22   H9    S    
C28   H1    S    
C24   H13   S    
C3    C4    S    
C19   C29   A    
C26   H21   S    
C4    N2    D    
C11   C24   S    
C10   H25   S    
C18   C28   A    
C20   C21   A    
C16   C18   A    
C25   N3    S    
H18   N4    S    
O3    Zn2   S    
C24   H11   S    
C26   N4    S    
C5    C7    S    
C2    C31   D    
C6    C8    S    
C8    C15   A    
C17   C19   A    
C6    O6    A    
C23   C28   A    
C5    O5    A    
C10   C13   A    
C7    C14   A    
C17   C21   A    
O8    Zn1   S    
C6    O8    A    
C25   H17   S    
C32   H2    S    
