data_mof_unit_65016.cif
_audit_creation_date              2012-12-10T18:24:24-0500
_audit_creation_method            fapswitch 2.2
_symmetry_space_group_name_H-M    P1
_symmetry_Int_Tables_number       1
_space_group_crystal_system       triclinic
_cell_length_a                    30.895197
_cell_length_b                    30.215407
_cell_length_c                    25.030844
_cell_angle_alpha                 90.460272
_cell_angle_beta                  129.401091
_cell_angle_gamma                 90.047497
_cell_volume                      18054.7344583

loop_
_atom_site_label
_atom_site_type_symbol
_atom_type_description
_atom_site_fract_x
_atom_site_fract_y
_atom_site_fract_z
_atom_type_partial_charge
C1    C     C_R   0.809809 0.810848 0.499009 0.878314
C2    C     C_R   0.537690 0.761478 0.070046 0.421728
C3    C     C_3   0.841243 0.155373 0.494943 -0.020919
C4    C     C_3   0.599145 0.593500 0.504400 -0.073296
C5    C     C_3   0.406809 0.596929 0.500684 -0.103323
C6    C     C_3   0.099145 0.093500 0.504400 -0.073296
C7    C     C_3   0.906809 0.096929 0.500684 -0.103323
C8    C     C_3   0.663172 0.591103 0.570894 -0.279999
C9    C     C_3   0.384823 0.631028 0.441064 -0.244212
C10   C     C_3   0.163172 0.091103 0.570894 -0.279999
C11   C     C_3   0.884823 0.131028 0.441064 -0.244212
C12   C     C_3   0.574296 0.640187 0.497254 -0.304323
C13   C     C_R   0.967042 0.261979 0.930850 0.420392
C14   C     C_3   0.436298 0.619588 0.574248 -0.237143
C15   C     C_3   0.074296 0.140187 0.497254 -0.304324
C16   C     C_3   0.936298 0.119588 0.574248 -0.237142
C17   C     C_R   0.060894 0.939019 0.500569 0.851780
C18   C     C_R   0.938925 0.938973 0.498976 0.850817
C19   C     C_R   0.560894 0.439020 0.500569 0.851780
C20   C     C_R   0.438926 0.438973 0.498976 0.850818
C21   C     C_R   0.440572 0.562242 0.500227 0.905986
C22   C     C_R   0.563527 0.558698 0.501292 0.902190
C23   C     C_R   0.940572 0.062242 0.500227 0.905986
C24   C     C_R   0.037690 0.261478 0.070046 0.421729
C25   C     C_R   0.063527 0.058698 0.501292 0.902189
C26   C     C_R   0.818464 0.750895 0.634474 0.871173
C27   C     C_R   0.181449 0.750517 0.365440 0.873156
C28   C     C_R   0.318464 0.250895 0.634474 0.871172
C29   C     C_R   0.681449 0.250517 0.365440 0.873156
C30   C     C_R   0.610539 0.788297 0.256424 -0.275490
C31   C     C_R   0.395697 0.786135 0.744759 -0.299480
C32   C     C_R   0.110539 0.288297 0.256424 -0.275489
C33   C     C_R   0.895698 0.286135 0.744759 -0.299480
C34   C     C_R   0.576569 0.792856 0.184994 -0.024775
C35   C     C_3   0.905233 0.837734 0.557280 -0.367207
C36   C     C_R   0.431757 0.790494 0.816532 -0.019880
C37   C     C_R   0.076570 0.292856 0.184994 -0.024775
C38   C     C_R   0.931757 0.290494 0.816532 -0.019880
C39   C     C_R   0.575446 0.758519 0.145326 -0.149262
C40   C     C_R   0.428556 0.759011 0.855469 -0.151716
C41   C     C_R   0.075446 0.258519 0.145326 -0.149261
C42   C     C_R   0.928556 0.259011 0.855469 -0.151716
C43   C     C_R   0.609029 0.720362 0.177964 -0.133287
C44   C     C_R   0.388872 0.723884 0.821925 -0.132410
C45   C     C_R   0.109029 0.220362 0.177964 -0.133287
C46   C     C_3   0.093654 0.834092 0.446965 -0.342442
C47   C     C_R   0.888872 0.223884 0.821925 -0.132410
C48   C     C_R   0.643283 0.716771 0.250258 0.501557
C49   C     C_R   0.353034 0.720136 0.749421 0.497790
C50   C     C_R   0.143283 0.216771 0.250258 0.501557
C51   C     C_R   0.853034 0.220136 0.749421 0.497790
C52   C     C_2   0.822375 0.962488 0.451988 0.868507
C53   C     C_2   0.164657 0.967072 0.519937 0.853687
C54   C     C_2   0.322375 0.462488 0.451988 0.868506
C55   C     C_2   0.664657 0.467072 0.519937 0.853687
C56   C     C_2   0.769373 0.852990 0.361694 0.920686
C57   C     C_3   0.405233 0.337734 0.557280 -0.367208
C58   C     C_2   0.236404 0.859207 0.635736 0.915478
C59   C     C_2   0.269372 0.352991 0.361694 0.920686
C60   C     C_2   0.736404 0.359207 0.635736 0.915478
C61   C     C_2   0.017257 0.753016 0.857061 0.949073
C62   C     C_2   0.985970 0.733188 0.136295 0.970525
C63   C     C_2   0.517256 0.253014 0.857061 0.949076
C64   C     C_2   0.485969 0.233188 0.136295 0.970526
C65   C     C_2   0.544748 0.834818 0.154494 0.951304
C66   C     C_2   0.470485 0.829419 0.848240 0.954080
C67   C     C_2   0.044748 0.334818 0.154494 0.951305
C68   C     C_3   0.593654 0.334092 0.446965 -0.342441
C69   C     C_2   0.970485 0.329419 0.848240 0.954079
C70   C     C_2   0.939774 0.745005 0.708365 0.960464
C71   C     C_2   0.059795 0.734204 0.287062 0.988056
C72   C     C_2   0.439774 0.245005 0.708365 0.960457
C73   C     C_2   0.559795 0.234204 0.287062 0.988057
C74   C     C_3   0.541150 0.731385 0.417041 -0.213721
C75   C     C_3   0.435200 0.696121 0.668218 -0.298493
C76   C     C_3   0.041150 0.231385 0.417041 -0.213723
C77   C     C_3   0.935200 0.196121 0.668218 -0.298492
C78   C     C_2   0.607650 0.683018 0.137684 0.956607
C79   C     C_3   0.940908 0.872478 0.556447 -0.384712
C80   C     C_2   0.385028 0.689840 0.861513 0.956246
C81   C     C_2   0.107650 0.183018 0.137684 0.956606
C82   C     C_2   0.885028 0.189840 0.861513 0.956246
C83   C     C_2   0.572726 0.651866 0.554891 0.969078
C84   C     C_2   0.498674 0.629638 0.623537 1.013166
C85   C     C_2   0.072726 0.151866 0.554891 0.969079
C86   C     C_2   0.998674 0.129638 0.623538 1.013166
C87   C     C_2   0.729673 0.659744 0.633609 0.934259
C88   C     C_2   0.337057 0.707794 0.406755 0.965786
C89   C     C_2   0.229673 0.159744 0.633609 0.934261
C90   C     C_3   0.058470 0.867701 0.450750 -0.417947
C91   C     C_2   0.837057 0.207794 0.406755 0.965786
C92   C     C_2   0.678225 0.583653 0.641298 1.021619
C93   C     C_2   0.429929 0.656661 0.447465 0.924913
C94   C     C_2   0.178225 0.083653 0.641298 1.021619
C95   C     C_2   0.929929 0.156661 0.447465 0.924913
C96   C     C_3   0.643891 0.648663 0.288260 -0.239170
C97   C     C_3   0.338794 0.649206 0.710102 -0.230573
C98   C     C_3   0.143891 0.148663 0.288260 -0.239170
C99   C     C_3   0.838794 0.149206 0.710102 -0.230573
C100  C     C_2   0.843681 0.797068 0.410976 0.924619
C101  C     C_3   0.440908 0.372478 0.556447 -0.384712
C102  C     C_2   0.163093 0.803414 0.596444 0.921823
C103  C     C_2   0.343680 0.297068 0.410975 0.924619
C104  C     C_2   0.663093 0.303414 0.596444 0.921824
C105  C     C_R   0.189590 0.810846 0.499856 0.905807
C106  C     C_3   0.558470 0.367701 0.450750 -0.417947
C107  C     C_3   0.830553 0.843012 0.424104 -0.136885
C108  C     C_3   0.174275 0.847830 0.577513 -0.150385
C109  C     C_3   0.330553 0.343012 0.424103 -0.136885
C110  C     C_3   0.674275 0.347829 0.577513 -0.150385
C111  C     C_3   0.828456 0.892027 0.508174 -0.388222
C112  C     C_3   0.166052 0.890895 0.482326 -0.391097
C113  C     C_3   0.328456 0.392027 0.508175 -0.388223
C114  C     C_3   0.666052 0.390895 0.482326 -0.391098
C115  C     C_3   0.842117 0.845123 0.495881 -0.022552
C116  C     C_R   0.309809 0.310848 0.499009 0.878312
C117  C     C_3   0.157269 0.845192 0.502800 -0.036067
C118  C     C_3   0.342117 0.345123 0.495881 -0.022551
C119  C     C_3   0.657269 0.345192 0.502800 -0.036067
C120  C     C_3   0.902901 0.905512 0.496400 0.035432
C121  C     C_3   0.096518 0.905594 0.502261 0.038347
C122  C     C_3   0.402901 0.405512 0.496400 0.035432
C123  C     C_3   0.596518 0.405594 0.502261 0.038347
C124  C     C_3   0.869160 0.878448 0.427440 -0.425151
C125  C     C_3   0.138171 0.884951 0.575665 -0.402584
C126  C     C_3   0.369160 0.378448 0.427440 -0.425150
C127  C     C_R   0.689590 0.310846 0.499856 0.905809
C128  C     C_3   0.638171 0.384951 0.575665 -0.402585
C129  C     C_3   0.862295 0.928156 0.505468 -0.192105
C130  C     C_3   0.129087 0.926503 0.479771 -0.186108
C131  C     C_3   0.362295 0.428155 0.505468 -0.192103
C132  C     C_3   0.629087 0.426503 0.479771 -0.186108
C133  C     C_R   0.682464 0.750001 0.365413 0.943403
C134  C     C_R   0.317595 0.750355 0.634673 0.958508
C135  C     C_R   0.182464 0.250001 0.365413 0.943403
C136  C     C_R   0.817595 0.250355 0.634673 0.958508
C137  C     C_R   0.840076 0.762032 0.746536 -0.141761
C138  C     C_R   0.644839 0.751381 0.289566 -0.167297
C139  C     C_R   0.162286 0.758990 0.254768 -0.149080
C140  C     C_R   0.340076 0.262033 0.746536 -0.141764
C141  C     C_R   0.662286 0.258990 0.254768 -0.149080
C142  C     C_R   0.877024 0.764632 0.818033 -0.137803
C143  C     C_R   0.127171 0.757825 0.183317 -0.137953
C144  C     C_R   0.377024 0.264633 0.818033 -0.137802
C145  C     C_R   0.627171 0.257825 0.183317 -0.137954
C146  C     C_R   0.934656 0.759516 0.855101 -0.001755
C147  C     C_R   0.069910 0.749827 0.144759 -0.006256
C148  C     C_R   0.434656 0.259516 0.855101 -0.001756
C149  C     C_R   0.355889 0.751935 0.710701 -0.186851
C150  C     C_R   0.569910 0.249827 0.144759 -0.006255
C151  C     C_R   0.955861 0.753427 0.819272 -0.078067
C152  C     C_R   0.047084 0.741966 0.178088 -0.083896
C153  C     C_R   0.455861 0.253426 0.819272 -0.078064
C154  C     C_R   0.547084 0.241966 0.178088 -0.083895
C155  C     C_R   0.917907 0.749485 0.746372 -0.087086
C156  C     C_R   0.083121 0.742500 0.251302 -0.108162
C157  C     C_R   0.417907 0.249485 0.746372 -0.087083
C158  C     C_R   0.583121 0.242500 0.251302 -0.108162
C159  C     C_R   0.859586 0.753405 0.710198 -0.090853
C160  C     C_R   0.144839 0.251381 0.289566 -0.167296
C161  C     C_R   0.141268 0.751007 0.289504 -0.126541
C162  C     C_R   0.359586 0.253405 0.710198 -0.090855
C163  C     C_R   0.641268 0.251007 0.289504 -0.126541
C164  C     C_R   0.034707 0.752322 0.069642 0.339192
C165  C     C_R   0.970902 0.757999 0.930910 0.334679
C166  C     C_R   0.534707 0.252322 0.069643 0.339192
C167  C     C_R   0.470903 0.257999 0.930910 0.334678
C168  C     C_3   0.634009 0.620159 0.440748 -0.386899
C169  C     C_3   0.319530 0.607398 0.489424 -0.385644
C170  C     C_3   0.134009 0.120159 0.440748 -0.386897
C171  C     C_R   0.855889 0.251935 0.710701 -0.186851
C172  C     C_3   0.819529 0.107398 0.489424 -0.385645
C173  C     C_3   0.596402 0.586430 0.440183 -0.404196
C174  C     C_3   0.353646 0.573845 0.482463 -0.453373
C175  C     C_3   0.096402 0.086430 0.440183 -0.404196
C176  C     C_3   0.853646 0.073845 0.482463 -0.453374
C177  C     C_3   0.696205 0.629615 0.569869 -0.356341
C178  C     C_3   0.339261 0.660916 0.430956 -0.359127
C179  C     C_3   0.196204 0.129615 0.569869 -0.356341
C180  C     C_3   0.839261 0.160916 0.430956 -0.359128
C181  C     C_R   0.688541 0.689187 0.497403 0.855333
C182  C     C_R   0.467042 0.761979 0.930850 0.420392
C183  C     C_R   0.307477 0.689251 0.495047 0.896021
C184  C     C_R   0.188541 0.189187 0.497403 0.855333
C185  C     C_R   0.807477 0.189251 0.495047 0.896021
C186  C     C_3   0.604926 0.675706 0.487941 0.340806
C187  C     C_3   0.401910 0.660155 0.564955 0.308740
C188  C     C_3   0.104926 0.175706 0.487941 0.340807
C189  C     C_3   0.901910 0.160155 0.564955 0.308739
C190  C     C_3   0.656474 0.654599 0.499506 -0.004347
C191  C     C_3   0.341243 0.655373 0.494943 -0.020919
C192  C     C_3   0.156474 0.154599 0.499506 -0.004348
H1    H     H_    0.611752 0.814705 0.286896 0.220270
H2    H     H_    0.210912 0.900800 0.518209 0.246732
H3    H     H_    0.514279 0.194123 0.298951 0.358461
H4    H     H_    0.571861 0.758933 0.446268 0.170642
H5    H     H_    0.518246 0.725414 0.436895 0.159507
H6    H     H_    0.510131 0.741660 0.362369 0.205405
H7    H     H_    0.421685 0.729026 0.643074 0.195761
H8    H     H_    0.479785 0.690276 0.693168 0.210529
H9    H     H_    0.432038 0.696500 0.709908 0.175634
H10   H     H_    0.071861 0.258933 0.446268 0.170643
H11   H     H_    0.018246 0.225414 0.436895 0.159507
H12   H     H_    0.010131 0.241660 0.362369 0.205406
H13   H     H_    0.282879 0.398710 0.471137 0.252182
H14   H     H_    0.921685 0.229026 0.643074 0.195760
H15   H     H_    0.979785 0.190276 0.693168 0.210529
H16   H     H_    0.932038 0.196500 0.709908 0.175634
H17   H     H_    0.651183 0.637049 0.130608 0.353441
H18   H     H_    0.335265 0.651995 0.868969 0.353437
H19   H     H_    0.151183 0.137049 0.130608 0.353441
H20   H     H_    0.835265 0.151995 0.868969 0.353437
H21   H     H_    0.592456 0.694478 0.630510 0.402656
H22   H     H_    0.576591 0.607475 0.700017 0.354199
H23   H     H_    0.092456 0.194478 0.630510 0.402656
H24   H     H_    0.710912 0.400800 0.518209 0.246732
H25   H     H_    0.076591 0.107475 0.700017 0.354200
H26   H     H_    0.730220 0.707102 0.691250 0.347192
H27   H     H_    0.370632 0.769207 0.429166 0.343623
H28   H     H_    0.230221 0.207102 0.691250 0.347192
H29   H     H_    0.870632 0.269207 0.429167 0.343624
H30   H     H_    0.680790 0.606332 0.719327 0.345242
H31   H     H_    0.484353 0.707931 0.492526 0.346798
H32   H     H_    0.180790 0.106332 0.719327 0.345243
H33   H     H_    0.984353 0.207931 0.492526 0.346798
H34   H     H_    0.632403 0.662688 0.318952 0.120458
H35   H     H_    0.839351 0.893404 0.559984 0.177664
H36   H     H_    0.670028 0.619093 0.315829 0.202981
H37   H     H_    0.605566 0.637527 0.236526 0.159421
H38   H     H_    0.346625 0.656163 0.673386 0.189790
H39   H     H_    0.309099 0.620853 0.688712 0.203848
H40   H     H_    0.378285 0.638913 0.760888 0.147639
H41   H     H_    0.132403 0.162688 0.318952 0.120458
H42   H     H_    0.170028 0.119093 0.315829 0.202981
H43   H     H_    0.105566 0.137527 0.236526 0.159421
H44   H     H_    0.846625 0.156163 0.673386 0.189790
H45   H     H_    0.809099 0.120853 0.688712 0.203848
H46   H     H_    0.154796 0.888288 0.430388 0.179470
H47   H     H_    0.878285 0.138913 0.760888 0.147639
H48   H     H_    0.814086 0.738771 0.358798 0.369761
H49   H     H_    0.194707 0.746146 0.649058 0.375832
H50   H     H_    0.314085 0.238771 0.358796 0.369761
H51   H     H_    0.694707 0.246146 0.649058 0.375832
H52   H     H_    0.339351 0.393404 0.559985 0.177663
H53   H     H_    0.654796 0.388288 0.430388 0.179471
H54   H     H_    0.888465 0.945967 0.556213 0.126285
H55   H     H_    0.097480 0.937227 0.425126 0.137038
H56   H     H_    0.388465 0.445967 0.556214 0.126285
H57   H     H_    0.397578 0.810634 0.714896 0.222295
H58   H     H_    0.597480 0.437227 0.425126 0.137038
H59   H     H_    0.844569 0.900908 0.382529 0.241319
H60   H     H_    0.165137 0.911363 0.614385 0.242343
H61   H     H_    0.344569 0.400908 0.382529 0.241319
H62   H     H_    0.665137 0.411363 0.614385 0.242343
H63   H     H_    0.795746 0.765986 0.719464 0.157707
H64   H     H_    0.206413 0.765659 0.283107 0.205412
H65   H     H_    0.295746 0.265986 0.719464 0.157708
H66   H     H_    0.706413 0.265658 0.283107 0.205413
H67   H     H_    0.860152 0.769565 0.844582 0.165028
H68   H     H_    0.111753 0.314705 0.286896 0.220270
H69   H     H_    0.144633 0.764261 0.157822 0.171011
H70   H     H_    0.360152 0.269566 0.844582 0.165028
H71   H     H_    0.644633 0.264261 0.157822 0.171011
H72   H     H_    0.669227 0.602562 0.448476 0.188021
H73   H     H_    0.274295 0.603967 0.443871 0.187172
H74   H     H_    0.169227 0.102562 0.448476 0.188020
H75   H     H_    0.774295 0.103967 0.443871 0.187173
H76   H     H_    0.609759 0.636495 0.389623 0.203415
H77   H     H_    0.324031 0.599712 0.536147 0.232687
H78   H     H_    0.109759 0.136495 0.389623 0.203414
H79   H     H_    0.897578 0.310634 0.714896 0.222295
H80   H     H_    0.824031 0.099712 0.536147 0.232688
H81   H     H_    0.552674 0.590357 0.391322 0.227702
H82   H     H_    0.365791 0.545645 0.517710 0.198432
H83   H     H_    0.052674 0.090357 0.391322 0.227702
H84   H     H_    0.865791 0.045645 0.517710 0.198432
H85   H     H_    0.609471 0.552302 0.439409 0.191411
H86   H     H_    0.326909 0.560341 0.428733 0.229613
H87   H     H_    0.109471 0.052302 0.439409 0.191411
H88   H     H_    0.826909 0.060341 0.428733 0.229613
H89   H     H_    0.728689 0.613320 0.569922 0.173138
H90   H     H_    0.899406 0.863037 0.422841 0.189534
H91   H     H_    0.298205 0.646205 0.386192 0.159563
H92   H     H_    0.228689 0.113320 0.569922 0.173138
H93   H     H_    0.798205 0.146205 0.386192 0.159563
H94   H     H_    0.678340 0.560722 0.562600 0.175494
H95   H     H_    0.362559 0.611564 0.391895 0.177595
H96   H     H_    0.178340 0.060722 0.562600 0.175494
H97   H     H_    0.862559 0.111564 0.391895 0.177595
H98   H     H_    0.621387 0.702822 0.526688 0.184611
H99   H     H_    0.419774 0.690883 0.561081 0.203153
H100  H     H_    0.121387 0.202822 0.526688 0.184612
H101  H     H_    0.114071 0.872132 0.591534 0.196043
H102  H     H_    0.919774 0.190883 0.561081 0.203153
H103  H     H_    0.530001 0.639169 0.449293 0.204188
H104  H     H_    0.432699 0.595165 0.604476 0.178473
H105  H     H_    0.030001 0.139169 0.449293 0.204189
H106  H     H_    0.932699 0.095165 0.604476 0.178473
H107  H     H_    0.919167 0.804039 0.556571 0.244631
H108  H     H_    0.083193 0.800114 0.452355 0.246151
H109  H     H_    0.419166 0.304038 0.556571 0.244630
H110  H     H_    0.583193 0.300114 0.452355 0.246150
H111  H     H_    0.912801 0.840596 0.606997 0.201937
H112  H     H_    0.399406 0.363037 0.422841 0.189534
H113  H     H_    0.081638 0.835312 0.394625 0.209783
H114  H     H_    0.412802 0.340595 0.606997 0.201935
H115  H     H_    0.581638 0.335312 0.394625 0.209783
H116  H     H_    0.967245 0.890151 0.607260 0.204799
H117  H     H_    0.025499 0.880832 0.398026 0.199862
H118  H     H_    0.467245 0.390151 0.607260 0.204799
H119  H     H_    0.525499 0.380832 0.398026 0.199862
H120  H     H_    0.969843 0.855746 0.550640 0.204079
H121  H     H_    0.036666 0.850920 0.467305 0.211739
H122  H     H_    0.469843 0.355746 0.550640 0.204079
H123  H     H_    0.614071 0.372132 0.591534 0.196043
H124  H     H_    0.536666 0.350920 0.467305 0.211739
H125  H     H_    0.759767 0.005074 0.419387 0.350230
H126  H     H_    0.216694 0.013720 0.530498 0.343565
H127  H     H_    0.259768 0.505074 0.419387 0.350230
H128  H     H_    0.716694 0.513720 0.530498 0.343565
H129  H     H_    0.689730 0.863340 0.322776 0.353454
H130  H     H_    0.314444 0.868284 0.667658 0.357032
H131  H     H_    0.189730 0.363340 0.322777 0.353454
H132  H     H_    0.814444 0.368284 0.667658 0.357032
H133  H     H_    0.082513 0.723345 0.871788 0.363197
H134  H     H_    0.782879 0.898710 0.471137 0.252182
H135  H     H_    0.917619 0.699876 0.056530 0.360858
H136  H     H_    0.582512 0.223340 0.871789 0.363197
H137  H     H_    0.417619 0.199876 0.056530 0.360857
H138  H     H_    0.507980 0.886623 0.162679 0.364990
H139  H     H_    0.514080 0.874870 0.840387 0.365509
H140  H     H_    0.007980 0.386623 0.162679 0.364990
H141  H     H_    0.014080 0.374870 0.840387 0.365509
H142  H     H_    0.955185 0.704839 0.657559 0.351644
H143  H     H_    0.014280 0.694123 0.298951 0.358462
H144  H     H_    0.455183 0.204840 0.657556 0.351644
N1    N     N_R   0.481737 0.764865 0.034193 -0.121920
N2    N     N_R   0.989364 0.779041 0.033466 -0.146407
N3    N     N_R   0.516126 0.231090 0.967312 -0.124662
N4    N     N_R   0.489364 0.279041 0.033466 -0.146407
N5    N     N_R   0.047821 0.728581 0.035608 -0.126257
N6    N     N_R   0.957870 0.781721 0.965180 -0.154946
N7    N     N_R   0.547820 0.228581 0.035608 -0.126256
N8    N     N_R   0.457870 0.281721 0.965180 -0.154946
N9    N     N_R   0.446899 0.765189 0.965552 -0.112655
N10   N     N_R   0.981737 0.264865 0.034193 -0.121921
N11   N     N_R   0.946899 0.265189 0.965552 -0.112655
N12   N     N_R   0.523038 0.758984 0.966691 -0.123190
N13   N     N_R   0.557909 0.758841 0.035370 -0.112958
N14   N     N_R   0.023038 0.258983 0.966691 -0.123190
N15   N     N_R   0.057909 0.258841 0.035370 -0.112958
N16   N     N_R   0.016127 0.731091 0.967312 -0.124662
O1    O     O_R   0.822450 0.770150 0.500010 -0.622677
O2    O     O_R   0.517630 0.546310 0.442550 -0.628242
O3    O     O_R   0.832510 0.175438 0.838197 -0.722201
O4    O     O_2   0.551012 0.625936 0.568522 -0.597163
O5    O     O_R   0.593818 0.692125 0.591248 -0.760249
O6    O     O_2   0.516103 0.667361 0.630796 -0.613590
O7    O     O_R   0.536312 0.596590 0.667644 -0.759506
O8    O     O_2   0.051012 0.125936 0.568522 -0.597164
O9    O     O_R   0.093818 0.192125 0.591248 -0.760248
O10   O     O_2   0.016103 0.167361 0.630796 -0.613590
O11   O     O_R   0.036312 0.096590 0.667644 -0.759506
O12   O     O_2   0.780799 0.657330 0.674166 -0.603156
O13   O     O_R   0.982370 0.046310 0.557450 -0.570672
O14   O     O_R   0.703051 0.690115 0.646254 -0.753938
O15   O     O_2   0.299341 0.717501 0.346487 -0.646586
O16   O     O_R   0.377333 0.739705 0.452233 -0.751049
O17   O     O_2   0.280799 0.157330 0.674166 -0.603155
O18   O     O_R   0.203051 0.190116 0.646254 -0.753939
O19   O     O_2   0.799341 0.217501 0.346487 -0.646586
O20   O     O_R   0.877333 0.239705 0.452233 -0.751049
O21   O     O_2   0.700206 0.548867 0.671338 -0.556848
O22   O     O_R   0.668620 0.615909 0.672874 -0.754891
O23   O     O_2   0.434508 0.652424 0.402659 -0.646310
O24   O     O_R   0.017630 0.046310 0.442550 -0.628242
O25   O     O_R   0.462362 0.688056 0.500068 -0.736351
O26   O     O_2   0.200205 0.048867 0.671338 -0.556848
O27   O     O_R   0.168621 0.115909 0.672874 -0.754892
O28   O     O_2   0.934508 0.152424 0.402659 -0.646310
O29   O     O_R   0.962363 0.188056 0.500068 -0.736350
O30   O     O_3   0.675210 0.679200 0.282372 -0.550519
O31   O     O_3   0.314159 0.685905 0.716621 -0.553899
O32   O     O_3   0.175210 0.179200 0.282372 -0.550520
O33   O     O_3   0.814159 0.185905 0.716621 -0.553898
O34   O     O_2   0.892199 0.785074 0.443454 -0.619519
O35   O     O_R   0.424900 0.546280 0.442440 -0.602163
O36   O     O_R   0.800063 0.768137 0.362154 -0.754718
O37   O     O_2   0.115512 0.792571 0.572075 -0.618025
O38   O     O_R   0.207414 0.774495 0.641155 -0.757401
O39   O     O_2   0.392198 0.285074 0.443453 -0.619519
O40   O     O_R   0.300062 0.268138 0.362153 -0.754719
O41   O     O_2   0.615512 0.292571 0.572075 -0.618025
O42   O     O_R   0.707414 0.274495 0.641155 -0.757402
O43   O     O_R   0.575100 0.546280 0.557560 -0.559938
O44   O     O_R   0.924900 0.046280 0.442440 -0.602163
O45   O     O_R   0.075100 0.046280 0.557560 -0.559938
O46   O     O_R   0.770150 0.822430 0.500030 -0.594977
O47   O     O_R   0.229850 0.822430 0.499970 -0.587086
O48   O     O_R   0.270150 0.322430 0.500030 -0.594977
O49   O     O_R   0.177550 0.770150 0.499990 -0.606177
O50   O     O_R   0.729850 0.322430 0.499970 -0.587087
O51   O     O_R   0.725220 0.723850 0.398140 -0.554541
O52   O     O_R   0.274780 0.723850 0.601860 -0.550946
O53   O     O_R   0.225220 0.223850 0.398140 -0.554541
O54   O     O_R   0.774780 0.223850 0.601860 -0.550946
O55   O     O_R   0.672910 0.776140 0.398150 -0.615671
O56   O     O_R   0.327090 0.776140 0.601850 -0.623635
O57   O     O_R   0.172910 0.276140 0.398150 -0.615671
O58   O     O_R   0.827090 0.276140 0.601850 -0.623635
O59   O     O_R   0.729840 0.677550 0.499990 -0.630601
O60   O     O_R   0.322450 0.270150 0.500010 -0.622678
O61   O     O_R   0.270160 0.677550 0.500010 -0.626531
O62   O     O_R   0.229840 0.177550 0.499990 -0.630601
O63   O     O_R   0.770160 0.177550 0.500010 -0.626531
O64   O     O_R   0.677530 0.729830 0.500000 -0.619408
O65   O     O_R   0.322470 0.729830 0.500000 -0.611189
O66   O     O_R   0.177530 0.229830 0.500000 -0.619407
O67   O     O_R   0.822470 0.229830 0.500000 -0.611189
O68   O     O_R   0.827070 0.723850 0.601870 -0.575697
O69   O     O_R   0.172930 0.723850 0.398130 -0.609430
O70   O     O_R   0.327070 0.223850 0.601870 -0.575694
O71   O     O_R   0.677550 0.270150 0.499990 -0.606177
O72   O     O_R   0.672930 0.223850 0.398130 -0.609430
O73   O     O_R   0.774770 0.776130 0.601880 -0.627530
O74   O     O_R   0.225230 0.776130 0.398120 -0.621923
O75   O     O_R   0.274770 0.276130 0.601880 -0.627530
O76   O     O_R   0.725230 0.276130 0.398120 -0.621922
O77   O     O_R   0.075080 0.953700 0.557570 -0.592780
O78   O     O_R   0.924920 0.953700 0.442430 -0.586240
O79   O     O_R   0.575080 0.453700 0.557570 -0.592781
O80   O     O_R   0.424920 0.453700 0.442430 -0.586240
O81   O     O_2   0.821733 0.971874 0.404109 -0.614186
O82   O     O_R   0.017620 0.953670 0.442560 -0.648195
O83   O     O_R   0.785449 0.983582 0.458213 -0.804931
O84   O     O_2   0.172019 0.980021 0.571504 -0.604750
O85   O     O_R   0.190843 0.988894 0.498050 -0.808064
O86   O     O_2   0.321733 0.471874 0.404109 -0.614186
O87   O     O_R   0.285449 0.483582 0.458214 -0.804931
O88   O     O_2   0.672019 0.480021 0.571504 -0.604750
O89   O     O_R   0.690843 0.488894 0.498050 -0.808065
O90   O     O_2   0.756431 0.857327 0.304551 -0.567816
O91   O     O_R   0.727538 0.855388 0.367845 -0.816083
O92   O     O_2   0.252866 0.865663 0.694398 -0.563551
O93   O     O_R   0.982380 0.953670 0.557440 -0.641458
O94   O     O_R   0.275097 0.860883 0.624215 -0.804181
O95   O     O_2   0.256431 0.357328 0.304551 -0.567816
O96   O     O_R   0.227538 0.355388 0.367846 -0.816083
O97   O     O_2   0.752866 0.365663 0.694398 -0.563551
O98   O     O_R   0.775097 0.360884 0.624215 -0.804181
O99   O     O_2   0.047354 0.781847 0.900106 -0.594596
O100  O     O_R   0.040465 0.719910 0.842989 -0.752432
O101  O     O_2   0.959117 0.752737 0.149587 -0.589187
O102  O     O_R   0.959159 0.702779 0.081315 -0.768948
O103  O     O_2   0.547355 0.281844 0.900105 -0.594595
O104  O     O_R   0.517620 0.453670 0.442560 -0.648195
O105  O     O_R   0.540463 0.219906 0.842989 -0.752434
O106  O     O_2   0.459117 0.252737 0.149587 -0.589188
O107  O     O_R   0.459158 0.202780 0.081315 -0.768948
O108  O     O_2   0.533840 0.849486 0.101788 -0.569601
O109  O     O_R   0.528780 0.858460 0.187716 -0.794583
O110  O     O_2   0.485573 0.845723 0.902611 -0.569732
O111  O     O_R   0.488403 0.848396 0.814369 -0.794641
O112  O     O_2   0.033840 0.349486 0.101788 -0.569602
O113  O     O_R   0.028780 0.358461 0.187716 -0.794583
O114  O     O_2   0.985573 0.345723 0.902611 -0.569732
O115  O     O_R   0.482380 0.453670 0.557440 -0.641458
O116  O     O_R   0.988403 0.348396 0.814369 -0.794641
O117  O     O_2   0.960103 0.777191 0.702031 -0.655616
O118  O     O_R   0.938793 0.703715 0.682049 -0.718832
O119  O     O_2   0.068085 0.760891 0.329692 -0.651505
O120  O     O_R   0.028003 0.695986 0.271451 -0.765327
O121  O     O_2   0.460105 0.277191 0.702034 -0.655612
O122  O     O_R   0.438792 0.203715 0.682046 -0.718835
O123  O     O_2   0.568085 0.260891 0.329692 -0.651506
O124  O     O_R   0.528003 0.195987 0.271451 -0.765326
O125  O     O_3   0.567809 0.692658 0.419535 -0.614212
O126  O     O_R   0.482370 0.546310 0.557450 -0.570672
O127  O     O_3   0.400422 0.661927 0.620722 -0.653501
O128  O     O_3   0.067809 0.192658 0.419535 -0.614212
O129  O     O_3   0.900422 0.161927 0.620722 -0.653501
O130  O     O_2   0.563064 0.669873 0.084239 -0.594319
O131  O     O_R   0.657483 0.662189 0.161985 -0.722229
O132  O     O_2   0.427553 0.673796 0.913538 -0.595143
O133  O     O_R   0.332510 0.675438 0.838197 -0.722202
O134  O     O_2   0.063063 0.169873 0.084239 -0.594319
O135  O     O_R   0.157483 0.162189 0.161985 -0.722230
O136  O     O_2   0.927553 0.173796 0.913538 -0.595143
Zn1   Zn    Zn3+2 0.784920 0.715080 0.500000 1.065971
Zn2   Zn    Zn3+2 0.461640 0.500010 0.423200 1.035228
Zn3   Zn    Zn3+2 0.038360 0.000010 0.576800 1.088349
Zn4   Zn    Zn3+2 0.961640 0.000010 0.423200 1.035228
Zn5   Zn    Zn3+2 0.215080 0.715080 0.500000 1.053354
Zn6   Zn    Zn3+2 0.284920 0.215080 0.500000 1.065971
Zn7   Zn    Zn3+2 0.715080 0.215080 0.500000 1.053354
Zn8   Zn    Zn3+2 0.715070 0.784900 0.500020 1.008238
Zn9   Zn    Zn3+2 0.284930 0.784900 0.499980 1.029828
Zn10  Zn    Zn3+2 0.215070 0.284900 0.500020 1.008239
Zn11  Zn    Zn3+2 0.784930 0.284900 0.499980 1.029827
Zn12  Zn    Zn3+2 0.538360 0.500010 0.576800 1.088349

loop_
_geom_bond_atom_site_label_1
_geom_bond_atom_site_label_2
_ccdc_geom_bond_type
C30   C138  A    
C5    C174  S    
C142  C146  A    
C68   H115  S    
C56   O91   S    
C96   O30   S    
C69   O116  S    
C75   H8    S    
C27   O74   A    
C85   O8    D    
C62   C152  S    
C182  N9    A    
C46   H108  S    
C154  C158  A    
C124  H59   S    
C147  C164  S    
C3    C189  S    
C68   C119  S    
H144  O122  S    
C36   C66   S    
C106  H119  S    
C6    C25   S    
C50   O32   S    
C10   C94   S    
C25   O24   A    
C168  C190  S    
C82   O136  D    
C63   O105  S    
H141  O116  S    
C70   O117  D    
H28   O18   S    
C25   O45   A    
C152  C156  A    
C62   O101  D    
O49   Zn5   S    
O50   Zn11  S    
C170  H78   S    
C141  H66   S    
C35   C115  S    
C8    C92   S    
C151  C155  A    
C4    C12   S    
H128  O89   S    
C185  O67   A    
C141  C145  A    
C15   C85   S    
C8    H94   S    
C38   C69   S    
O57   Zn10  S    
C33   H79   S    
C24   C41   S    
C20   O80   A    
C187  O127  S    
C107  C124  S    
C71   O119  D    
C168  H76   S    
C13   C42   S    
C188  H100  S    
C109  C118  S    
C19   O79   A    
C179  H92   S    
H132  O98   S    
C127  O50   A    
C48   O30   S    
O52   Zn5   S    
C114  H24   S    
C63   C153  S    
C30   C34   A    
C181  O64   A    
H17   O131  S    
O60   Zn6   S    
C34   C39   A    
C46   C117  S    
C96   H34   S    
C17   O82   A    
C186  C190  S    
C18   O93   A    
C58   O94   S    
C90   H121  S    
C87   C177  S    
C82   O3    S    
C86   O11   S    
C136  C171  S    
O1    Zn1   S    
C79   C120  S    
O53   Zn6   S    
C60   O98   S    
C46   H113  S    
C137  H63   S    
H19   O135  S    
C133  O51   A    
O61   Zn5   S    
C143  C147  A    
C112  H46   S    
C4    C173  S    
C148  C153  A    
C165  N6    A    
C104  O41   D    
C103  O39   D    
C21   O35   A    
O64   Zn8   S    
H131  O96   S    
C45   C81   S    
C33   C38   A    
C26   O73   A    
C130  H55   S    
C124  H90   S    
O69   Zn5   S    
C101  C122  S    
H23   O9    S    
C48   C138  A    
C98   O32   S    
C139  H64   S    
C75   O127  S    
C168  H72   S    
C104  C110  S    
C14   C187  S    
C174  H82   S    
C45   C50   A    
C85   O9    S    
C71   C156  S    
N12   N13   A    
C59   C109  S    
C116  C118  S    
N14   N15   A    
C23   O13   A    
C175  H83   S    
C21   O126  A    
C58   O92   D    
C97   H40   S    
C5    C21   S    
C15   H105  S    
C55   C132  S    
C1    O1    A    
O44   Zn4   S    
C148  C167  S    
C41   C45   A    
C31   C36   A    
C1    C115  S    
H32   O27   S    
C166  N4    A    
C157  C162  A    
O77   Zn3   S    
C73   O124  S    
C110  C128  S    
H136  O105  S    
H140  O113  S    
C137  C142  A    
H129  O91   S    
C53   O85   S    
C123  C132  S    
C136  O58   A    
C95   O29   S    
C28   O75   A    
C121  C130  S    
C105  O49   A    
C80   O132  D    
C5    C9    S    
H30   O22   S    
C19   C123  S    
C10   C179  S    
C188  O128  S    
C64   O107  S    
O104  Zn2   S    
C81   O134  D    
C77   H15   S    
C114  H53   S    
C140  C162  A    
C150  C166  S    
C53   O84   D    
C16   H106  S    
C31   H57   S    
C180  H93   S    
C89   O18   S    
C139  C143  A    
C2    N13   A    
C189  O129  S    
C74   H6    S    
C133  O55   A    
C128  H62   S    
C83   O5    S    
C20   C122  S    
C145  C150  A    
C12   H103  S    
C91   C180  S    
C65   O108  D    
C3    C185  S    
C91   O19   D    
O72   Zn7   S    
O35   Zn2   S    
O80   Zn2   S    
H127  O87   S    
C9    H95   S    
C155  C159  A    
C120  C129  S    
C88   O16   S    
C10   H96   S    
C32   H68   S    
C187  H99   S    
C127  O71   A    
C131  H56   S    
C84   O7    S    
O126  Zn12  S    
C32   C37   A    
C134  C149  S    
H133  O100  S    
C72   C157  S    
C113  H13   S    
C95   O28   D    
C78   O130  D    
C3    C180  S    
C105  O47   A    
O43   Zn12  S    
C4    C22   S    
C59   O95   D    
C97   H38   S    
C98   H42   S    
C80   O133  S    
C97   O31   S    
C35   H111  S    
C7    C176  S    
H31   O25   S    
C184  C192  S    
C96   H37   S    
C76   O128  S    
C72   O121  D    
C61   C151  S    
C112  H2    S    
C19   O104  A    
C158  C163  A    
O51   Zn1   S    
C146  C165  S    
C93   O25   S    
C156  C161  A    
O75   Zn10  S    
C66   O110  D    
C90   C121  S    
C100  O34   D    
C169  C191  S    
C186  H98   S    
C122  C131  S    
H33   O29   S    
C20   O115  A    
H50   O40   S    
O58   Zn11  S    
C177  C190  S    
O68   Zn1   S    
O115  Zn12  S    
C87   O12   D    
H29   O20   S    
O78   Zn4   S    
H27   O16   S    
C54   O86   D    
C88   C178  S    
C75   H7    S    
C128  H123  S    
C57   C101  S    
C15   C188  S    
C169  H73   S    
C28   O70   A    
C188  C192  S    
H25   O11   S    
C27   C161  S    
H126  O85   S    
O82   Zn4   S    
C99   H44   S    
C7    C23   S    
C37   C67   S    
C35   C79   S    
H3    O124  S    
C17   O77   A    
C142  H67   S    
C37   C41   A    
C57   H114  S    
C49   O31   S    
C146  C151  A    
C70   O118  S    
C109  C126  S    
C40   C44   A    
C126  H112  S    
C62   O102  S    
O54   Zn7   S    
C57   C118  S    
C184  O62   A    
C112  C130  S    
C135  O53   A    
C172  C176  S    
C119  C127  S    
C18   C120  S    
C164  N5    A    
C14   C84   S    
C166  N7    A    
C172  H80   S    
C144  H70   S    
H142  O118  S    
C102  O38   S    
C75   H9    S    
C76   H11   S    
C43   C78   S    
O55   Zn8   S    
H137  O107  S    
C61   O100  S    
C27   O69   A    
C52   C129  S    
C94   O26   D    
C175  H87   S    
C176  H88   S    
C112  C117  S    
C31   C149  A    
N5    N16   A    
C3    C172  S    
C92   O21   D    
C6    C175  S    
O59   Zn1   S    
C183  O65   A    
C64   O106  D    
C79   H116  S    
C68   H110  S    
H139  O111  S    
C8    C177  S    
C111  C129  S    
C101  H118  S    
O76   Zn11  S    
C63   O103  D    
O73   Zn8   S    
C24   N10   A    
C145  H71   S    
C136  O54   A    
C100  O36   S    
C134  O52   A    
C173  H85   S    
C135  O57   A    
H51   O42   S    
C4    C8    S    
C170  C175  S    
C99   H47   S    
O71   Zn7   S    
C134  O56   A    
C133  C138  S    
C16   C86   S    
C105  C117  S    
C114  C132  S    
C57   H109  S    
C108  C117  S    
C104  O42   S    
C67   O113  S    
C40   C182  S    
C129  H54   S    
C55   O89   S    
C29   O76   A    
C185  O63   A    
O79   Zn12  S    
C140  H65   S    
C137  C159  A    
C14   H104  S    
C139  C161  A    
C2    N1    A    
C47   C51   A    
C12   C83   S    
C164  N2    A    
C110  C119  S    
O46   Zn8   S    
C29   C163  S    
C84   O6    D    
O2    Zn2   S    
C44   C80   S    
C178  H91   S    
C113  H52   S    
C12   C186  S    
C51   O33   S    
C26   C159  S    
C5    C14   S    
C167  N8    A    
O62   Zn6   S    
H22   O7    S    
C17   C121  S    
H143  O120  S    
H125  O83   S    
C71   O120  S    
C33   C171  A    
C96   H36   S    
C73   O123  D    
H135  O102  S    
C189  H102  S    
C92   O22   S    
C52   O81   D    
C1    O46   A    
N4    N8    A    
C56   O90   D    
C6    C10   S    
C46   C90   S    
O70   Zn6   S    
C35   H107  S    
C106  H124  S    
C28   C162  S    
C103  C109  S    
C50   C160  A    
C140  C144  A    
O56   Zn9   S    
C77   H14   S    
C13   N11   A    
C86   O10   D    
H130  O94   S    
C60   O97   D    
C58   C108  S    
C111  H134  S    
C153  C157  A    
C89   O17   D    
C60   C110  S    
C99   O33   S    
C30   H1    S    
C184  O66   A    
C11   H97   S    
H21   O5    S    
C11   C180  S    
H20   O3    S    
C22   O43   A    
O24   Zn4   S    
C9    C178  S    
H138  O109  S    
C44   C49   A    
N3    N7    A    
C103  O40   S    
C169  H77   S    
C64   C154  S    
C170  H74   S    
O74   Zn9   S    
C144  C148  A    
N10   N11   A    
C167  N3    A    
C99   H45   S    
C7    C11   S    
C54   C131  S    
C18   O78   A    
C186  O125  S    
C38   C42   A    
C172  H75   S    
C83   O4    D    
C76   H10   S    
C135  C160  S    
C170  C192  S    
C181  C190  S    
C47   C82   S    
C78   O131  S    
C121  C125  S    
C2    C39   S    
C179  C192  S    
C106  C123  S    
C70   C155  S    
O47   Zn9   S    
O67   Zn11  S    
C143  H69   S    
C108  C125  S    
O66   Zn10  S    
C72   O122  S    
C43   C48   A    
C187  C191  S    
C132  H58   S    
C90   H117  S    
C13   N14   A    
N1    N9    A    
C6    C15   S    
C102  O37   D    
H48   O36   S    
C66   O111  S    
C68   C106  S    
C176  H84   S    
C34   C65   S    
C26   O68   A    
H18   O133  S    
C181  O59   A    
H49   O38   S    
C168  C173  S    
C74   H4    S    
C116  O60   A    
C98   H43   S    
C36   C40   A    
C79   H120  S    
C81   O135  S    
C77   H16   S    
C54   O87   S    
C39   C43   A    
C69   O114  D    
C93   O23   D    
N2    N6    A    
C73   C158  S    
C67   O112  D    
C101  H122  S    
O48   Zn10  S    
C122  C126  S    
C169  C174  S    
C56   C107  S    
C77   O129  S    
C22   O2    A    
C74   H5    S    
O45   Zn3   S    
C87   O14   S    
C102  C108  S    
C74   O125  S    
C107  C115  S    
C173  H81   S    
O13   Zn3   S    
C29   O72   A    
C177  H89   S    
C174  H86   S    
C141  C163  A    
C65   O109  S    
C9    C93   S    
C183  O61   A    
C91   O20   S    
C11   C95   S    
C7    C16   S    
C100  C107  S    
C113  C131  S    
C116  O48   A    
C88   O15   D    
O65   Zn9   S    
C125  H60   S    
C114  C119  S    
C165  N16   A    
C183  C191  S    
C125  H101  S    
C55   O88   D    
C76   H12   S    
C182  N12   A    
C61   O99   D    
C49   C149  A    
C111  H35   S    
C94   O27   S    
C51   C171  A    
C147  C152  A    
C178  C191  S    
C59   O96   S    
C97   H39   S    
C98   H41   S    
C126  H61   S    
C42   C47   A    
C89   C179  S    
O93   Zn3   S    
C52   O83   S    
H26   O14   S    
C113  C118  S    
C23   O44   A    
C150  C154  A    
C24   N15   A    
C123  C128  S    
O63   Zn7   S    
C111  C115  S    
C53   C130  S    
C16   C189  S    
C120  C124  S    
C32   C160  A    
