data_mof_unit_12707.cif
_audit_creation_date              2012-12-11T16:24:20-0500
_audit_creation_method            fapswitch 2.2
_symmetry_space_group_name_H-M    P1
_symmetry_Int_Tables_number       1
_space_group_crystal_system       triclinic
_cell_length_a                    14.748264
_cell_length_b                    14.767064
_cell_length_c                    33.291386
_cell_angle_alpha                 96.081204
_cell_angle_beta                  96.165133
_cell_angle_gamma                 61.204635
_cell_volume                      6304.94282633

loop_
_atom_site_label
_atom_site_type_symbol
_atom_type_description
_atom_site_fract_x
_atom_site_fract_y
_atom_site_fract_z
_atom_type_partial_charge
C1    C     C_R   0.391081 0.699410 0.446060 0.546755
C2    C     C_1   0.314110 0.333783 0.230189 0.006974
C3    C     C_1   0.113655 0.418364 0.187722 0.203445
C4    C     C_1   0.320328 0.337731 0.266452 0.003568
C5    C     C_R   0.405728 0.386089 0.434156 0.544492
C6    C     C_R   0.287999 0.294195 0.102248 -0.019980
C7    C     C_R   0.756471 0.372807 0.410144 0.021398
C8    C     C_R   0.793540 0.432129 0.394226 -0.129604
C9    C     C_R   0.823897 0.410941 0.354648 -0.116194
C10   C     C_R   0.817357 0.330280 0.330290 0.035233
C11   C     C_R   0.789205 0.265271 0.347434 -0.116615
C12   C     C_R   0.759192 0.286241 0.387080 -0.129783
C13   C     C_R   0.329963 0.342739 0.309621 0.041380
C14   C     C_R   0.835689 0.315385 0.205089 0.343104
C15   C     C_R   0.829825 0.320735 0.286478 0.340144
C16   C     C_R   0.827056 0.395527 0.140483 -0.009411
C17   C     C_R   0.700692 0.409976 0.447499 0.546903
C18   C     C_R   0.858465 0.381399 0.101184 -0.132238
C19   C     C_R   0.915845 0.197617 0.100920 -0.128254
C20   C     C_R   0.885290 0.210897 0.140195 -0.120419
C21   C     C_R   0.845891 0.308586 0.161160 0.023328
C22   C     C_R   0.907511 0.281928 0.081954 0.006839
C23   C     C_R   0.371400 0.753661 0.408892 0.022068
C24   C     C_R   0.411004 0.260467 0.329643 -0.105365
C25   C     C_R   0.277491 0.782981 0.385591 -0.128456
C26   C     C_R   0.267691 0.810295 0.345997 -0.118039
C27   C     C_R   0.351496 0.809068 0.329044 0.034567
C28   C     C_R   0.441951 0.789149 0.353556 -0.117870
C29   C     C_R   0.393253 0.701786 0.561190 0.565932
C30   C     C_R   0.451857 0.761602 0.393199 -0.129623
C31   C     C_R   0.344352 0.826941 0.204077 0.348925
C32   C     C_R   0.347471 0.819403 0.285290 0.346463
C33   C     C_R   0.258403 0.831659 0.135127 -0.117458
C34   C     C_R   0.238413 0.862719 0.095680 -0.129227
C35   C     C_R   0.430702 0.271268 0.371254 -0.123849
C36   C     C_R   0.382025 0.900893 0.104715 -0.127131
C37   C     C_R   0.402109 0.869669 0.144230 -0.110544
C38   C     C_R   0.337247 0.839581 0.160373 0.034575
C39   C     C_R   0.296842 0.902374 0.080809 0.018982
C40   C     C_R   0.371535 0.369493 0.585200 0.021980
C41   C     C_R   0.407330 0.388942 0.549040 0.544186
C42   C     C_R   0.285330 0.449243 0.604187 -0.131063
C43   C     C_R   0.266278 0.440040 0.643283 -0.121920
C44   C     C_R   0.333230 0.351041 0.663947 0.034556
C45   C     C_R   0.413679 0.267763 0.643531 -0.119758
C46   C     C_R   0.396153 0.278442 0.164753 -0.024692
C47   C     C_R   0.432571 0.276833 0.604479 -0.129008
C48   C     C_R   0.318844 0.347959 0.788569 0.346173
C49   C     C_R   0.325579 0.348240 0.707489 0.346030
C50   C     C_R   0.218708 0.403380 0.850572 -0.122043
C51   C     C_R   0.207487 0.383781 0.889304 -0.131196
C52   C     C_R   0.386415 0.248556 0.892902 -0.127570
C53   C     C_R   0.701283 0.413679 0.562677 0.542167
C54   C     C_R   0.397582 0.268084 0.854251 -0.119531
C55   C     C_R   0.312450 0.342255 0.831994 0.033791
C56   C     C_R   0.289881 0.302784 0.909956 0.022438
C57   C     C_R   0.387272 0.261458 0.122318 -0.036236
C58   C     C_R   0.754318 0.380689 0.602836 0.020103
C59   C     C_R   0.778330 0.447995 0.629380 -0.127041
C60   C     C_R   0.807287 0.427336 0.670083 -0.113483
C61   C     C_R   0.813072 0.339129 0.684626 0.038102
C62   C     C_R   0.795458 0.268574 0.658015 -0.109425
C63   C     C_R   0.766485 0.289003 0.617299 -0.127094
C64   C     C_R   0.891233 0.208970 0.822299 0.120631
C65   C     C_R   0.369700 0.364954 0.393057 0.019878
C66   C     C_R   0.916954 0.199456 0.864085 -0.108435
C67   C     C_R   0.873182 0.380716 0.873028 -0.136897
C68   C     C_R   0.199288 0.350189 0.124420 -0.145640
C69   C     C_R   0.846618 0.390938 0.831677 -0.142342
C70   C     C_R   0.858297 0.305010 0.806125 0.071653
C71   C     C_1   0.842197 0.315283 0.763149 0.007063
C72   C     C_1   0.829834 0.325021 0.727256 -0.017940
C73   C     C_R   0.911794 0.284140 0.889448 -0.001553
C74   C     C_R   0.376737 0.755324 0.602054 0.058769
C75   C     C_R   0.277878 0.805738 0.618098 0.094207
C76   C     C_R   0.269518 0.834732 0.659601 -0.103456
C77   C     C_R   0.283625 0.444330 0.373054 -0.126034
C78   C     C_R   0.358102 0.814476 0.685036 0.021653
C79   C     C_R   0.207610 0.366335 0.166225 -0.017783
C80   C     C_R   0.454848 0.771119 0.668904 -0.123022
C81   C     C_R   0.464126 0.742259 0.627697 -0.158613
C82   C     C_R   0.397202 0.883466 0.832813 -0.110486
C83   C     C_R   0.377549 0.910623 0.873644 -0.125485
C84   C     C_R   0.226410 0.884233 0.862536 -0.126700
C85   C     C_R   0.246282 0.857111 0.821761 -0.113079
C86   C     C_R   0.330011 0.859378 0.806682 0.039590
C87   C     C_1   0.342598 0.843476 0.763992 -0.022230
C88   C     C_1   0.350442 0.831191 0.728011 -0.020942
C89   C     C_R   0.264168 0.433276 0.331415 -0.104816
C90   C     C_R   0.306056 0.327705 0.186678 -0.000655
C91   C     C_R   0.289999 0.914446 0.888645 0.020016
C92   C     C_R   0.963522 0.264240 0.045542 0.546084
C93   C     C_R   0.272648 0.259766 0.059962 0.547096
C94   C     C_R   0.259189 0.959677 0.043780 0.544175
C95   C     C_R   0.962872 0.267450 0.930671 0.544320
C96   C     C_R   0.270900 0.263995 0.945368 0.546327
C97   C     C_R   0.256072 0.965115 0.928936 0.542042
C98   C     C_1   0.479663 0.210425 0.099721 0.231431
C99   C     C_1   0.777248 0.499669 0.158853 0.235813
C100  C     C_1   0.497593 0.242889 0.185934 0.212595
Cr1   Cr    Cr6+3 0.576280 0.580550 0.506370 1.012931
Cr2   Cr    Cr6+3 0.346780 0.572400 0.496520 1.028780
Cr3   Cr    Cr6+3 0.576960 0.347070 0.497150 1.013786
Cr4   Cr    Cr6+3 0.087320 0.083240 0.984860 1.018835
Cr5   Cr    Cr6+3 0.087720 0.316210 0.996740 1.019749
Cr6   Cr    Cr6+3 0.317350 0.090340 0.995890 1.034638
H1    H     H_    0.731739 0.238576 0.398649 0.132193
H2    H     H_    0.196136 0.827398 0.328095 0.140022
H3    H     H_    0.507385 0.788884 0.341473 0.139981
H4    H     H_    0.208408 0.806698 0.146452 0.141368
H5    H     H_    0.428945 0.930353 0.093941 0.141545
H6    H     H_    0.464354 0.875273 0.162810 0.149715
H7    H     H_    0.236490 0.521420 0.589963 0.133089
H8    H     H_    0.498890 0.213583 0.590440 0.131224
H9    H     H_    0.132249 0.427298 0.901809 0.131752
H10   H     H_    0.202887 0.505035 0.658089 0.132602
H11   H     H_    0.465347 0.197290 0.658395 0.135114
H12   H     H_    0.848909 0.447607 0.086294 0.134961
H13   H     H_    0.461980 0.190002 0.312832 0.127757
H14   H     H_    0.152070 0.461957 0.834330 0.133025
H15   H     H_    0.451701 0.186589 0.908343 0.135067
H16   H     H_    0.471519 0.221173 0.841053 0.138070
H17   H     H_    0.947002 0.124363 0.876259 0.124512
H18   H     H_    0.800033 0.199938 0.669042 0.119663
H19   H     H_    0.748389 0.235698 0.597697 0.127193
H20   H     H_    0.769328 0.519385 0.619279 0.126802
H21   H     H_    0.820877 0.465157 0.819354 0.113467
H22   H     H_    0.868384 0.447273 0.891774 0.135812
H23   H     H_    0.846921 0.461474 0.342524 0.142190
H24   H     H_    0.497343 0.208698 0.385831 0.131605
H25   H     H_    0.821033 0.482277 0.690523 0.111985
H26   H     H_    0.427768 0.933828 0.892898 0.130037
H27   H     H_    0.462371 0.885151 0.821343 0.114618
H28   H     H_    0.523805 0.755527 0.688441 0.118681
H29   H     H_    0.541009 0.703709 0.616478 0.133067
H30   H     H_    0.194005 0.838304 0.801687 0.113558
H31   H     H_    0.158237 0.886694 0.873064 0.128119
H32   H     H_    0.194238 0.869685 0.672150 0.108017
H33   H     H_    0.235276 0.517365 0.389012 0.130580
H34   H     H_    0.784901 0.201544 0.329620 0.142082
H35   H     H_    0.122525 0.376114 0.109494 0.148735
H36   H     H_    0.201049 0.497136 0.315971 0.128425
H37   H     H_    0.793349 0.498673 0.411463 0.131670
H38   H     H_    0.921592 0.057631 0.813023 0.219967
H39   H     H_    0.964362 0.099897 0.778345 0.227896
H40   H     H_    0.150629 0.787713 0.604113 0.225508
H41   H     H_    0.135552 0.904723 0.594888 0.224324
H42   H     H_    0.952896 0.120074 0.086643 0.139977
H43   H     H_    0.899335 0.143179 0.155119 0.148402
H44   H     H_    0.213693 0.778692 0.397008 0.133388
H45   H     H_    0.524989 0.740093 0.410556 0.131660
H46   H     H_    0.173088 0.861669 0.077765 0.135094
N1    N     N_R   0.853432 0.385197 0.229732 -0.184103
N2    N     N_R   0.424392 0.825389 0.268645 -0.222341
N3    N     N_R   0.422497 0.829788 0.228816 -0.215179
N4    N     N_R   0.240102 0.422914 0.766922 -0.236051
N5    N     N_1   0.553501 0.169729 0.081720 -0.277300
N6    N     N_1   0.737269 0.583162 0.173499 -0.249704
N7    N     N_1   0.578471 0.214612 0.202837 -0.253911
N8    N     N_3   0.901979 0.120984 0.796070 -0.621739
N9    N     N_3   0.186333 0.825126 0.592732 -0.605537
N10   N     N_1   0.038457 0.459882 0.204891 -0.256887
N11   N     N_R   0.243742 0.423457 0.727172 -0.235980
N12   N     N_R   0.404118 0.273462 0.729173 -0.230369
N13   N     N_R   0.400664 0.273140 0.768857 -0.230308
N14   N     N_R   0.849883 0.388306 0.269579 -0.216772
N15   N     N_R   0.813397 0.249858 0.261874 -0.215343
N16   N     N_R   0.817019 0.246723 0.221954 -0.206818
N17   N     N_R   0.267840 0.820519 0.220761 -0.226345
N18   N     N_R   0.269551 0.816472 0.260519 -0.225576
O1    O     O_R   0.679450 0.499830 0.463150 -0.517683
O2    O     O_R   0.340240 0.172500 0.045430 -0.495794
O3    O     O_R   0.309670 0.000990 0.032050 -0.500569
O4    O     O_R   0.480650 0.664000 0.464630 -0.501645
O5    O     O_R   0.168330 0.982130 0.939200 -0.520433
O6    O     O_R   0.000140 0.178170 0.944610 -0.502013
O7    O     O_R   0.983010 0.336750 0.948660 -0.516754
O8    O     O_R   0.181800 0.312190 0.959860 -0.502321
O9    O     O_R   0.338500 0.175680 0.956950 -0.515122
O10   O     O_R   0.308050 0.003930 0.950020 -0.501434
O11   O     O_3   0.164130 0.163270 0.992500 -0.242942
O12   O     O_R   0.356040 0.477400 0.534170 -0.503188
O13   O     O_R   0.323930 0.675950 0.455370 -0.517909
O14   O     O_R   0.354700 0.475360 0.451930 -0.502591
O15   O     O_R   0.494470 0.320860 0.448390 -0.519455
O16   O     O_R   0.662580 0.357570 0.460050 -0.501729
O17   O     O_R   0.680900 0.502040 0.551870 -0.521148
O18   O     O_R   0.481990 0.666040 0.546870 -0.516020
O19   O     O_R   0.325370 0.678160 0.544080 -0.472792
O20   O     O_R   0.495910 0.323070 0.537100 -0.519522
O21   O     O_R   0.663920 0.359620 0.542290 -0.501298
O22   O     O_3   0.500010 0.500010 0.500010 -0.241246
O23   O     O_R   0.170070 0.978950 0.027680 -0.518870
O24   O     O_R   0.001760 0.175230 0.026640 -0.498468
O25   O     O_R   0.984760 0.333570 0.037150 -0.519702
O26   O     O_R   0.183410 0.309240 0.041890 -0.504046

loop_
_geom_bond_atom_site_label_1
_geom_bond_atom_site_label_2
_ccdc_geom_bond_type
C44   C49   S    
Cr5   O26   S    
C87   C88   T    
C93   O2    A    
C16   C21   A    
C97   O5    A    
N1    N14   A    
C48   C55   S    
C94   O23   A    
N17   N18   A    
C19   C20   A    
Cr3   O15   S    
C5    O15   A    
Cr5   O8    S    
C11   H34   S    
C92   O25   A    
C3    C79   S    
C62   H18   S    
C1    O13   A    
C7    C8    A    
Cr4   O6    S    
C85   C86   A    
C59   H20   S    
C77   C89   A    
C26   C27   A    
C37   C38   A    
C41   O20   A    
C50   H14   S    
Cr2   O13   S    
C14   C21   S    
N12   N13   A    
C94   O3    A    
C76   C78   A    
C92   O24   A    
C10   C15   S    
C78   C80   A    
C33   H4    S    
C35   C65   A    
C78   C88   S    
C89   H36   S    
Cr2   O19   S    
C80   H28   S    
C20   H43   S    
Cr5   O25   S    
C51   C56   A    
C4    C13   S    
C2    C90   S    
C37   H6    S    
C46   C100  S    
C3    N10   T    
C95   O7    A    
C48   N13   A    
N4    N11   A    
C8    C9    A    
C49   N12   A    
Cr2   O22   S    
Cr4   O23   S    
C15   N14   A    
C96   O8    A    
C70   C71   S    
C67   C73   A    
C84   C91   A    
C64   C70   A    
H38   N8    S    
Cr1   O18   S    
C9    C10   A    
C18   H12   S    
C5    O14   A    
Cr1   O22   S    
C68   C79   A    
C6    C68   A    
Cr4   O11   S    
C54   H16   S    
C59   C60   A    
C95   O6    A    
C6    C57   A    
C15   N15   A    
Cr1   O4    S    
C69   C70   A    
Cr3   O16   S    
C60   H25   S    
Cr6   O10   S    
C52   C54   A    
C81   H29   S    
Cr4   O5    S    
C45   C47   A    
C7    C12   A    
H40   N9    S    
C1    O4    A    
C24   C35   A    
C65   C77   A    
C74   C75   A    
C47   H8    S    
C34   C39   A    
Cr2   O12   S    
C23   C30   A    
C79   C90   A    
C19   C22   A    
C84   C85   A    
C5    C65   S    
H41   N9    S    
C26   H2    S    
N15   N16   A    
H39   N8    S    
C34   H46   S    
C86   C87   S    
C97   O10   A    
C29   C74   S    
C31   N17   A    
C7    C17   S    
C25   C26   A    
C82   C86   A    
C40   C47   A    
C51   H9    S    
C13   C24   A    
C25   H44   S    
C67   C69   A    
C64   C66   A    
C2    C4    T    
C75   C76   A    
C39   C94   S    
C62   C63   A    
C43   H10   S    
C52   H15   S    
C42   H7    S    
C98   N5    T    
C17   O16   A    
C53   C58   S    
C6    C93   S    
C64   N8    S    
C36   H5    S    
C50   C51   A    
C68   H35   S    
Cr3   O20   S    
C91   C97   S    
C53   O21   A    
C35   H24   S    
N2    N3    A    
C63   H19   S    
C32   N2    A    
C61   C72   S    
C40   C41   S    
C84   H31   S    
C1    C23   S    
C9    H23   S    
C46   C57   A    
C29   O19   A    
C41   O12   A    
C93   O26   A    
Cr3   O21   S    
C42   C43   A    
C73   C95   S    
C74   C81   A    
C14   N16   A    
Cr6   O9    S    
C44   C45   A    
C45   H11   S    
C58   C63   A    
C56   C96   S    
C32   N18   A    
C54   C55   A    
C36   C37   A    
C24   H13   S    
Cr4   O24   S    
C13   C89   A    
C27   C32   S    
C18   C22   A    
Cr6   O2    S    
C36   C39   A    
C77   H33   S    
Cr5   O7    S    
C80   C81   A    
C12   H1    S    
C31   N3    A    
C11   C12   A    
C17   O1    A    
C16   C99   S    
C46   C90   A    
C76   H32   S    
C28   H3    S    
C83   C91   A    
Cr6   O11   S    
C50   C55   A    
C31   C38   S    
C75   N9    S    
Cr2   O14   S    
C82   H27   S    
C28   C30   A    
C58   C59   A    
C83   H26   S    
C14   N1    A    
C67   H22   S    
C66   C73   A    
C100  N7    T    
C30   H45   S    
C43   C44   A    
C57   C98   S    
C19   H42   S    
C40   C42   A    
Cr6   O3    S    
C33   C34   A    
Cr1   O1    S    
C8    H37   S    
C23   C25   A    
C96   O9    A    
C53   O17   A    
C61   C62   A    
C48   N4    A    
C49   N11   A    
C10   C11   A    
C85   H30   S    
C71   C72   T    
C20   C21   A    
C69   H21   S    
C16   C18   A    
C82   C83   A    
C99   N6    T    
C27   C28   A    
C29   O18   A    
C22   C92   S    
C66   H17   S    
C60   C61   A    
C33   C38   A    
Cr3   O22   S    
Cr5   O11   S    
Cr1   O17   S    
C52   C56   A    
