data_mof_unit_28924.cif
_audit_creation_date              2012-12-10T18:23:01-0500
_audit_creation_method            fapswitch 2.2
_symmetry_space_group_name_H-M    P1
_symmetry_Int_Tables_number       1
_space_group_crystal_system       triclinic
_cell_length_a                    14.978032
_cell_length_b                    14.225386
_cell_length_c                    10.536885
_cell_angle_alpha                 89.595838
_cell_angle_beta                  87.499
_cell_angle_gamma                 90.457006
_cell_volume                      2242.80459752

loop_
_atom_site_label
_atom_site_type_symbol
_atom_type_description
_atom_site_fract_x
_atom_site_fract_y
_atom_site_fract_z
_atom_type_partial_charge
C1    C     C_R   0.327504 0.499636 0.500904 0.957908
C2    C     C_R   0.672495 0.500364 0.499095 0.957906
C3    C     C_R   0.953063 0.500384 0.498647 -0.043833
C4    C     C_R   0.046936 0.499610 0.501351 -0.043834
C5    C     C_R   0.910448 0.520543 0.383099 0.052402
C6    C     C_R   0.089552 0.479450 0.616900 0.052405
C7    C     C_R   0.943978 0.464835 0.725661 -0.222504
C8    C     C_R   0.056022 0.535157 0.274336 -0.222500
C9    C     C_R   0.036344 0.465213 0.730142 0.137279
C10   C     C_R   0.963656 0.534776 0.269855 0.137287
C11   C     C_R   0.553536 0.800272 0.413795 0.191479
C12   C     C_R   0.446464 0.199728 0.586205 0.191483
C13   C     C_R   0.446541 0.798467 0.586338 0.217682
C14   C     C_R   0.553458 0.201533 0.413661 0.217682
C15   C     C_R   0.438184 0.898361 0.578858 -0.082344
C16   C     C_R   0.561815 0.101639 0.421141 -0.082344
C17   C     C_R   0.561839 0.900242 0.421126 -0.081416
C18   C     C_R   0.438161 0.099758 0.578874 -0.081416
C19   C     C_R   0.499995 0.949705 0.499976 -0.080417
C20   C     C_R   0.500005 0.050294 0.500023 -0.080418
C21   C     C_R   0.370575 0.948481 0.648289 0.342661
C22   C     C_R   0.629425 0.051519 0.351710 0.342662
C23   C     C_R   0.629464 0.952262 0.351732 0.347862
C24   C     C_R   0.370536 0.047738 0.648268 0.347862
C25   C     C_R   0.501299 0.500293 0.257721 0.914412
C26   C     C_R   0.498701 0.499707 0.742279 0.914412
C27   C     C_3   0.490592 0.589644 0.041046 -0.224252
C28   C     C_3   0.509408 0.410356 0.958954 -0.224250
C29   C     C_3   0.568144 0.554316 0.951389 -0.184544
C30   C     C_3   0.431856 0.445684 0.048611 -0.184544
C31   C     C_3   0.423609 0.533682 0.965202 0.144429
C32   C     C_3   0.576391 0.466318 0.034799 0.144427
C33   C     C_3   0.499143 0.499213 0.876967 -0.025458
C34   C     C_3   0.500857 0.500787 0.123033 -0.025457
C35   C     C_R   0.816430 0.525086 0.386115 0.327865
C36   C     C_R   0.183570 0.474911 0.613884 0.327867
C37   C     C_R   0.767878 0.501228 0.498358 -0.191124
C38   C     C_R   0.232122 0.498771 0.501642 -0.191125
C39   C     C_R   0.809141 0.478873 0.610787 0.008676
C40   C     C_R   0.190859 0.521124 0.389212 0.008676
C41   C     C_R   0.901924 0.480977 0.611968 0.132682
C42   C     C_R   0.098076 0.519018 0.388031 0.132680
H1    H     H_    0.479979 0.662535 0.074654 0.158497
H2    H     H_    0.520022 0.337464 0.925346 0.158496
H3    H     H_    0.624224 0.597493 0.909678 0.167538
H4    H     H_    0.375776 0.402506 0.090322 0.167538
H5    H     H_    0.905330 0.452939 0.813772 0.176230
H6    H     H_    0.094669 0.547051 0.186225 0.176230
N1    N     N_R   0.500000 0.750030 0.500000 -0.160404
N2    N     N_R   0.500000 0.249970 0.500000 -0.160405
O1    O     O_R   0.367850 0.580280 0.500030 -0.638828
O2    O     O_R   0.632150 0.419720 0.499970 -0.638830
O3    O     O_R   0.632150 0.580280 0.499970 -0.609831
O4    O     O_R   0.367850 0.419720 0.500030 -0.609830
O5    O     O_R   0.499970 0.580260 0.313950 -0.646684
O6    O     O_R   0.500030 0.419740 0.686050 -0.646686
O7    O     O_R   0.500030 0.580260 0.686050 -0.653420
O8    O     O_R   0.499970 0.419740 0.313950 -0.653421
Zn1   Zn    Zn3+2 0.500000 0.607200 0.500000 0.941992
Zn2   Zn    Zn3+2 0.500000 0.392800 0.500000 0.941991
N3    N     N_3   0.339044 0.570689 0.924851 -0.376833
H7    H     H_    0.296804 0.576478 0.005928 0.207641
H8    H     H_    0.350867 0.639039 0.891462 0.196946
N4    N     N_3   0.660957 0.429312 0.075149 -0.376837
H9    H     H_    0.703196 0.423523 0.994075 0.207642
H10   H     H_    0.649135 0.360961 0.108536 0.196945
Cl1   Cl    Cl    0.755893 0.564470 0.254940 -0.602524
Cl2   Cl    Cl    0.244108 0.435532 0.745061 -0.602526
N5    N     N_3   0.756957 0.456620 0.725197 -0.467263
H11   H     H_    0.714502 0.512809 0.746507 0.175605
H12   H     H_    0.718157 0.396717 0.709826 0.212086
N6    N     N_3   0.243043 0.543377 0.274801 -0.467261
H13   H     H_    0.285498 0.487189 0.253492 0.175604
H14   H     H_    0.281843 0.603280 0.290172 0.212085
N7    N     N_3   0.074161 0.455149 0.851995 -0.364691
H15   H     H_    0.050496 0.392311 0.893745 0.217593
H16   H     H_    0.052130 0.510869 0.909097 0.174747
N8    N     N_3   0.925838 0.544833 0.147999 -0.364697
H17   H     H_    0.949505 0.607666 0.106239 0.217590
H18   H     H_    0.947867 0.489107 0.090905 0.174748
N9    N     N_3   0.595082 0.753396 0.308003 -0.357463
H19   H     H_    0.545520 0.733199 0.247240 0.200844
H20   H     H_    0.629968 0.695658 0.339390 0.290114
N10   N     N_3   0.404921 0.246604 0.692000 -0.357463
H21   H     H_    0.454486 0.266798 0.752761 0.200839
H22   H     H_    0.370038 0.304344 0.660615 0.290114
N11   N     N_3   0.405853 0.750091 0.693132 -0.394979
H23   H     H_    0.455819 0.730918 0.753999 0.202558
H24   H     H_    0.369939 0.691969 0.663698 0.254635
N12   N     N_3   0.594147 0.249910 0.306867 -0.394979
H25   H     H_    0.544182 0.269083 0.246001 0.202560
H26   H     H_    0.630062 0.308031 0.336303 0.254635
Cl3   Cl    Cl    0.277745 0.889735 0.724938 -0.490579
Cl4   Cl    Cl    0.722254 0.110265 0.275062 -0.490582
Cl5   Cl    Cl    0.722389 0.896006 0.275126 -0.452965
Cl6   Cl    Cl    0.277612 0.103995 0.724875 -0.452967

loop_
_geom_bond_atom_site_label_1
_geom_bond_atom_site_label_2
_ccdc_geom_bond_type
N11   H23   S    
O5    Zn1   S    
C27   C29   S    
C31   N3    S    
C19   C20   A    
C1    O4    A    
C6    C9    A    
N9    H19   S    
O3    Zn1   S    
C39   C41   A    
O4    Zn2   S    
C11   N9    S    
C15   C19   A    
C17   C23   A    
C4    C42   A    
C18   C24   A    
C35   C37   A    
C8    C42   A    
C29   C32   S    
C24   Cl6   S    
C30   C31   S    
N8    H18   S    
O7    Zn1   S    
O8    Zn2   S    
C29   C33   S    
C12   N10   S    
N3    H8    S    
N5    H12   S    
C14   N12   S    
O2    Zn2   S    
C3    C41   A    
C6    C36   A    
C31   C33   S    
C25   C34   S    
C40   C42   A    
C22   Cl4   S    
N5    H11   S    
N9    H20   S    
C27   C34   S    
C10   N8    S    
C30   C34   S    
C27   C31   S    
C28   C32   S    
N10   H21   S    
C32   N4    S    
N6    H14   S    
N8    H17   S    
C28   H2    S    
O6    Zn2   S    
C29   H3    S    
N4    H10   S    
N7    H15   S    
C8    H6    S    
C11   N1    A    
C1    O1    A    
C26   C33   S    
N12   H26   S    
C35   Cl1   S    
C16   C20   A    
C13   N11   S    
C39   N5    S    
N7    H16   S    
C2    O2    A    
C1    C38   S    
C13   N1    A    
C4    C6    A    
C28   C33   S    
C13   C15   A    
C14   C16   A    
O1    Zn1   S    
C25   O8    A    
C3    C4    A    
C7    C9    A    
C11   C17   A    
C16   C22   A    
C40   N6    S    
C30   H4    S    
C25   O5    A    
N10   H22   S    
N6    H13   S    
C3    C5    A    
C2    O3    A    
C26   O6    A    
C12   N2    A    
C36   Cl2   S    
C7    H5    S    
N1    Zn1   S    
N2    Zn2   S    
N4    H9    S    
N11   H24   S    
C5    C10   A    
C37   C39   A    
C36   C38   A    
C38   C40   A    
C2    C37   S    
N12   H25   S    
C14   N2    A    
C21   Cl3   S    
C5    C35   A    
C28   C30   S    
C17   C19   A    
C23   Cl5   S    
C18   C20   A    
C7    C41   A    
N3    H7    S    
C26   O7    A    
C27   H1    S    
C15   C21   A    
C8    C10   A    
C21   C24   A    
C12   C18   A    
C22   C23   A    
C9    N7    S    
C32   C34   S    
