data_mof_unit_37776.cif
_audit_creation_date              2013-03-05T16:54:13-0500
_audit_creation_method            fapswitch 2.2
_symmetry_space_group_name_H-M    P1
_symmetry_Int_Tables_number       1
_space_group_crystal_system       triclinic
_cell_length_a                    12.82133
_cell_length_b                    17.432511
_cell_length_c                    16.837131
_cell_angle_alpha                 88.78084
_cell_angle_beta                  97.618283
_cell_angle_gamma                 91.136478
_cell_volume                      3728.62206114

loop_
_atom_site_label
_atom_site_type_symbol
_atom_site_description
_atom_site_fract_x
_atom_site_fract_y
_atom_site_fract_z
_atom_type_partial_charge
O1    O     O_R   0.500000 0.389130 0.566570 -0.593835
O2    O     O_R   0.500000 0.610870 0.433430 -0.598138
O3    O     O_R   0.499990 0.389100 0.433480 -0.615146
O4    O     O_R   0.500010 0.610900 0.566520 -0.560183
C1    C     C_R   0.497825 0.353026 0.500257 0.949921
C2    C     C_R   0.498135 0.646842 0.498842 0.927749
O5    O     O_R   0.346360 0.500000 0.555540 -0.547928
O6    O     O_R   0.653640 0.500000 0.444460 -0.555107
O7    O     O_R   0.346350 0.499970 0.422460 -0.593681
O8    O     O_R   0.653650 0.500030 0.577540 -0.661447
C3    C     C_R   0.298215 0.502320 0.484022 0.942087
C4    C     C_R   0.702025 0.497144 0.516107 0.966805
Zn1   Zn    Zn3+2 0.500000 0.500020 0.588860 1.046581
Zn2   Zn    Zn3+2 0.500000 0.499980 0.411140 1.060619
C5    C     C_R   0.814528 0.493355 0.527904 -0.215757
C6    C     C_R   0.186568 0.496176 0.474148 -0.215217
C7    C     C_R   0.034549 0.417345 0.430400 0.555002
C8    C     C_R   0.976675 0.547815 0.591546 0.565500
C9    C     C_R   0.139205 0.436827 0.427769 -0.294082
C10   C     C_R   0.869570 0.537493 0.587868 -0.347821
C11   C     C_R   0.130878 0.539474 0.522330 0.267962
C12   C     C_R   0.866730 0.449756 0.476869 0.317849
C13   C     C_R   0.028067 0.516823 0.530771 -0.153762
C14   C     C_R   0.975785 0.460304 0.478797 -0.165155
H1    H     H_    0.829318 0.566245 0.630731 0.166748
H2    H     H_    0.185113 0.403394 0.391971 0.186252
C15   C     C_R   0.502718 0.853325 0.554303 0.500167
C16   C     C_R   0.498634 0.151035 0.430951 0.465184
C17   C     C_R   0.519387 0.774844 0.559027 -0.235991
C18   C     C_R   0.519934 0.229169 0.437648 -0.272639
H3    H     H_    0.563741 0.750323 0.612299 0.194035
H4    H     H_    0.565149 0.257712 0.395371 0.203972
C19   C     C_R   0.482144 0.728938 0.494217 -0.141889
C20   C     C_R   0.482589 0.270297 0.498060 -0.176996
C21   C     C_R   0.424535 0.760898 0.425305 -0.191232
C22   C     C_R   0.420122 0.233680 0.549877 -0.230482
H5    H     H_    0.394150 0.724437 0.375908 0.211252
H6    H     H_    0.385163 0.266768 0.592216 0.260874
C23   C     C_R   0.401492 0.838834 0.421012 0.280372
C24   C     C_R   0.396938 0.155303 0.544190 0.250312
C25   C     C_R   0.441058 0.884787 0.486423 -0.133968
C26   C     C_R   0.436762 0.114356 0.483776 -0.138550
C27   C     C_1   0.429366 0.965333 0.482415 0.137960
C28   C     C_1   0.428042 0.033439 0.481702 0.132059
C29   C     C_R   0.462792 0.437671 0.831622 -0.303895
C30   C     C_R   0.575152 0.540946 0.173767 -0.276366
H7    H     H_    0.430295 0.388741 0.861366 0.200701
H8    H     H_    0.633733 0.574941 0.147248 0.190364
C31   C     C_R   0.460014 0.438564 0.747347 0.374069
C32   C     C_R   0.573481 0.542265 0.257364 0.393916
N1    N     N_R   0.500030 0.500030 0.707230 -0.181621
N2    N     N_R   0.499970 0.499970 0.292770 -0.183019
C33   C     C_R   0.540845 0.561904 0.751618 0.584866
C34   C     C_R   0.427062 0.455920 0.246239 0.578633
C35   C     C_R   0.541356 0.562857 0.835978 -0.323092
C36   C     C_R   0.425344 0.455429 0.161560 -0.346120
H9    H     H_    0.569878 0.613298 0.869021 0.172508
H10   H     H_    0.365172 0.422700 0.124984 0.166864
C37   C     C_R   0.503077 0.500009 0.876958 0.015596
C38   C     C_R   0.500465 0.497811 0.124668 0.033348
C39   C     C_1   0.501902 0.499683 0.964396 0.027945
C40   C     C_1   0.500637 0.498579 0.037126 0.032342
N3    N     N_R   0.807654 0.398127 0.421833 0.231706
O9    O     O_R   0.751352 0.342984 0.448807 -0.474237
O10   O     O_R   0.798716 0.412429 0.345088 -0.304602
N4    N     N_R   0.173550 0.611515 0.553448 0.222192
O11   O     O_R   0.251264 0.613817 0.611514 -0.369797
O12   O     O_R   0.127253 0.674993 0.528585 -0.320921
O13   O     O_3   0.571076 0.627735 0.713471 -0.608984
C41   C     C_3   0.681986 0.634375 0.720652 0.068664
H11   H     H_    0.702323 0.645189 0.659318 0.166592
H12   H     H_    0.724750 0.581905 0.745120 0.111474
C42   C     C_3   0.720043 0.703627 0.771613 -0.397508
H13   H     H_    0.673019 0.754509 0.749817 0.245946
H14   H     H_    0.708804 0.691938 0.834993 0.227089
C43   C     C_3   0.836233 0.721712 0.767689 -0.878751
H15   H     H_    0.885098 0.672784 0.792453 0.269592
H16   H     H_    0.860657 0.773240 0.803625 0.274562
H17   H     H_    0.850085 0.733482 0.704800 0.275348
O14   O     O_3   0.349222 0.417930 0.282044 -0.616567
C44   C     C_3   0.352861 0.337572 0.272088 0.067396
H18   H     H_    0.364892 0.310308 0.332659 0.176379
H19   H     H_    0.418324 0.318269 0.239977 0.133347
C45   C     C_3   0.247450 0.308457 0.229091 -0.387779
H20   H     H_    0.182662 0.327444 0.261453 0.247515
H21   H     H_    0.234560 0.332985 0.167230 0.230451
C46   C     C_3   0.244273 0.221018 0.225256 -0.865877
H22   H     H_    0.306499 0.200834 0.191037 0.281371
H23   H     H_    0.166456 0.201517 0.194770 0.273212
H24   H     H_    0.256269 0.195178 0.286619 0.267866
O15   O     O_3   0.992819 0.353966 0.388455 -0.592732
C47   C     C_3   0.012032 0.286627 0.436585 0.114293
H25   H     H_    0.937628 0.252282 0.431808 0.198763
H26   H     H_    0.034794 0.297633 0.501864 0.124376
C48   C     C_3   0.096249 0.238779 0.405191 -0.448198
H27   H     H_    0.069297 0.223125 0.342053 0.251409
H28   H     H_    0.170697 0.272585 0.406953 0.219563
C49   C     C_3   0.118843 0.165848 0.455579 -0.806143
H29   H     H_    0.147005 0.180654 0.518698 0.288733
H30   H     H_    0.180751 0.133010 0.431611 0.281086
H31   H     H_    0.046978 0.129148 0.453850 0.266166
O16   O     O_3   0.028584 0.590402 0.653752 -0.600093
C50   C     C_3   0.085655 0.540838 0.710912 0.150558
H32   H     H_    0.148202 0.575926 0.745863 0.208366
H33   H     H_    0.126796 0.494757 0.682908 0.150450
C51   C     C_3   0.014711 0.505555 0.769066 -0.447230
H34   H     H_    0.974729 0.551911 0.796929 0.236137
H35   H     H_    0.953683 0.467794 0.736079 0.226385
C52   C     C_3   0.078393 0.458058 0.834913 -0.866367
H36   H     H_    0.118059 0.410626 0.808385 0.279282
H37   H     H_    0.025100 0.432966 0.875827 0.270669
H38   H     H_    0.138612 0.494735 0.870283 0.265411
O17   O     O_3   0.543861 0.898675 0.617877 -0.608466
C53   C     C_3   0.639064 0.934404 0.601154 0.076800
H39   H     H_    0.642752 0.992801 0.626678 0.181389
H40   H     H_    0.644508 0.942499 0.535801 0.096670
C54   C     C_3   0.733607 0.889251 0.641184 -0.380537
H41   H     H_    0.730270 0.884577 0.706722 0.245923
H42   H     H_    0.730975 0.830549 0.616539 0.219473
C55   C     C_3   0.837176 0.928407 0.626963 -0.855168
H43   H     H_    0.843004 0.932667 0.561756 0.267406
H44   H     H_    0.904021 0.894245 0.656663 0.283836
H45   H     H_    0.842813 0.986856 0.652383 0.264269
O18   O     O_3   0.535766 0.110885 0.370771 -0.624147
C56   C     C_3   0.636806 0.081913 0.398554 0.071856
H46   H     H_    0.636812 0.020617 0.381719 0.174728
H47   H     H_    0.658726 0.083184 0.465097 0.108450
C57   C     C_3   0.720004 0.125779 0.357543 -0.312599
H48   H     H_    0.698530 0.123710 0.291448 0.248037
H49   H     H_    0.723041 0.186774 0.375608 0.245987
C58   C     C_3   0.828658 0.091493 0.380103 -0.928002
H50   H     H_    0.852786 0.094828 0.445806 0.259626
H51   H     H_    0.886823 0.124118 0.348766 0.275104
H52   H     H_    0.828172 0.030592 0.361929 0.281430
N5    N     N_R   0.339394 0.869867 0.350326 0.228369
O19   O     O_R   0.335162 0.835159 0.282256 -0.349242
O20   O     O_R   0.279353 0.928545 0.354653 -0.351740
N6    N     N_R   0.334343 0.118910 0.600076 0.214624
O21   O     O_R   0.325232 0.151376 0.667659 -0.317301
O22   O     O_R   0.279596 0.056623 0.581755 -0.366728
N7    N     N_R   0.410556 0.374846 0.705022 0.209680
O23   O     O_R   0.322668 0.385217 0.658249 -0.415693
O24   O     O_R   0.433314 0.305889 0.732142 -0.381978
N8    N     N_R   0.648394 0.590098 0.304291 0.229604
O25   O     O_R   0.748081 0.575948 0.307372 -0.339664
O26   O     O_R   0.620682 0.658132 0.322639 -0.375856

loop_
_geom_bond_atom_site_label_1
_geom_bond_atom_site_label_2
_geom_bond_distance
_ccdc_geom_bond_type
N4    O12   1.300984 A    
C46   H22   1.110809 S    
N3    O10   1.301211 A    
C6    C11   1.392368 A    
C35   C37   1.397706 A    
C11   N4    1.440749 S    
C15   C17   1.387876 A    
C25   C27   1.414290 S    
C42   H13   1.110704 S    
C48   H27   1.111400 S    
C7    O15   1.383936 S    
C45   C46   1.526526 S    
O7    Zn2   2.004187 S    
C58   H52   1.110794 S    
C33   O13   1.377204 S    
C57   H48   1.111588 S    
C53   H39   1.111116 S    
C48   C49   1.524343 S    
N5    O19   1.301656 A    
C23   C25   1.409001 A    
C23   N5    1.442727 S    
O5    C3    1.278480 A    
O1    C1    1.290145 A    
C21   H5    1.083631 S    
C45   H21   1.110503 S    
O13   C41   1.413723 S    
N7    O24   1.301488 A    
C10   H1    1.078330 S    
C17   C19   1.393926 A    
C38   C40   1.474020 S    
C8    O16   1.385553 S    
O4    Zn1   1.961306 S    
C9    H2    1.082618 S    
C52   H37   1.110350 S    
C7    C9    1.383779 A    
C12   N3    1.436941 S    
Zn1   N1    1.992964 S    
C5    C12   1.401578 A    
Zn2   N2    1.992964 S    
C32   N8    1.427289 S    
C31   N1    1.380891 A    
C24   N6    1.444509 S    
C56   C57   1.529681 S    
C32   N2    1.374779 A    
C13   C14   1.428574 A    
C43   H17   1.110868 S    
C41   H11   1.109565 S    
C8    C10   1.374807 A    
C55   H45   1.110864 S    
C29   H7    1.083978 S    
N4    O11   1.300774 A    
C42   H14   1.109703 S    
O2    C2    1.282090 A    
C26   C28   1.413608 S    
C44   H19   1.117710 S    
N2    C34   1.371215 A    
C44   H18   1.109221 S    
C34   O14   1.383604 S    
C33   C35   1.419990 A    
C5    C10   1.389974 A    
C30   H8    1.083842 S    
C37   C39   1.474163 S    
C7    C14   1.415502 A    
C18   C20   1.397038 A    
O16   C50   1.418157 S    
C22   C24   1.395079 A    
C45   H20   1.111331 S    
N8    O26   1.299888 A    
C54   C55   1.525753 S    
O15   C47   1.418961 S    
N8    O25   1.300580 A    
O3    C1    1.279784 A    
C47   C48   1.531947 S    
C36   C38   1.403639 A    
C31   N7    1.424660 S    
N1    C33   1.379874 A    
C21   C23   1.394424 A    
C27   C28   1.187503 T    
C3    C6    1.421182 S    
C15   C25   1.408185 A    
C24   C26   1.409962 A    
C8    C13   1.410525 A    
C4    C5    1.432377 S    
C29   C31   1.414441 A    
O6    C4    1.281719 A    
C1    C20   1.452099 S    
C41   C42   1.530169 S    
C47   H26   1.118806 S    
C50   H33   1.115666 S    
C35   H9    1.081923 S    
C43   H15   1.109353 S    
O7    C3    1.276469 A    
O3    Zn2   1.961303 S    
O8    C4    1.276975 A    
C15   O17   1.385207 S    
O4    C2    1.286298 A    
C49   H30   1.110578 S    
C11   C13   1.392960 A    
C56   H46   1.111308 S    
C42   C43   1.526299 S    
C12   C14   1.402829 A    
C52   H38   1.110976 S    
O1    Zn1   1.977007 S    
C58   H50   1.110922 S    
C57   C58   1.524877 S    
C44   C45   1.528816 S    
C55   H43   1.111096 S    
C55   H44   1.110487 S    
O17   C53   1.417974 S    
N5    O20   1.301340 A    
C48   H28   1.109139 S    
C29   C37   1.392421 A    
O6    Zn2   1.975369 S    
C30   C38   1.397788 A    
C43   H16   1.110299 S    
O14   C44   1.416776 S    
C58   H51   1.110281 S    
O8    Zn1   2.004185 S    
C57   H49   1.110684 S    
C53   H40   1.117560 S    
C16   O18   1.383664 S    
C34   C36   1.423207 A    
N6    O22   1.301327 A    
C49   H31   1.108792 S    
C30   C32   1.411216 A    
C2    C19   1.448759 S    
C54   H42   1.110640 S    
C16   C18   1.387854 A    
C17   H3    1.081075 S    
N7    O23   1.299764 A    
C22   H6    1.074365 S    
C18   H4    1.083174 S    
C51   H35   1.110832 S    
C6    C9    1.390210 A    
C16   C26   1.404268 A    
C47   H25   1.110863 S    
C19   C21   1.401372 A    
C36   H10   1.082348 S    
C50   C51   1.533867 S    
C20   C22   1.396902 A    
C39   C40   1.226568 T    
O2    Zn2   1.977011 S    
C53   C54   1.530304 S    
N6    O21   1.301557 A    
N3    O9    1.300863 A    
O5    Zn1   1.975370 S    
C49   H29   1.110260 S    
C51   H34   1.110065 S    
C46   H24   1.111243 S    
C52   H36   1.111074 S    
C50   H32   1.110982 S    
C56   H47   1.118967 S    
C46   H23   1.110261 S    
C41   H12   1.118465 S    
C54   H41   1.111154 S    
O18   C56   1.416814 S    
C51   C52   1.526143 S    
