data_mof_unit_11920.cif
_audit_creation_date              2013-03-05T16:02:23-0500
_audit_creation_method            fapswitch 2.2
_symmetry_space_group_name_H-M    P1
_symmetry_Int_Tables_number       1
_space_group_crystal_system       triclinic
_cell_length_a                    14.858557
_cell_length_b                    14.101099
_cell_length_c                    10.81426
_cell_angle_alpha                 89.018847
_cell_angle_beta                  86.569741
_cell_angle_gamma                 91.524836
_cell_volume                      2260.56702853

loop_
_atom_site_label
_atom_site_type_symbol
_atom_site_description
_atom_site_fract_x
_atom_site_fract_y
_atom_site_fract_z
_atom_type_partial_charge
O1    O     O_R   0.367860 0.580280 0.500020 -0.587140
O2    O     O_R   0.367860 0.419720 0.500020 -0.573254
C1    C     C_R   0.326306 0.499219 0.497621 0.983768
O3    O     O_R   0.500000 0.580270 0.314790 -0.620961
O4    O     O_R   0.500000 0.419730 0.314790 -0.599320
C2    C     C_R   0.502183 0.500839 0.258049 0.911298
Zn1   Zn    Zn3+2 0.500020 0.607200 0.499990 1.061052
Zn2   Zn    Zn3+2 0.500020 0.392800 0.499990 1.086442
O5    O     O_R   0.632160 0.580270 0.499960 -0.596587
O6    O     O_R   0.632160 0.419730 0.499960 -0.633214
O7    O     O_R   0.500030 0.580270 0.685200 -0.568160
O8    O     O_R   0.500030 0.419730 0.685200 -0.536026
C3    C     C_R   0.673610 0.500686 0.491443 0.936231
C4    C     C_R   0.506759 0.499443 0.742074 1.036260
C5    C     C_3   0.513321 0.606090 0.069854 0.068497
C6    C     C_3   0.418121 0.452587 0.080399 0.060878
H1    H     H_    0.452348 0.643838 0.105410 0.145942
H2    H     H_    0.360602 0.496116 0.114921 0.113394
C7    C     C_3   0.512187 0.605133 0.927306 0.085306
C8    C     C_3   0.420342 0.454022 0.937795 0.092886
H3    H     H_    0.446170 0.634884 0.905538 0.149049
H4    H     H_    0.366926 0.503475 0.914706 0.163737
H5    H     H_    0.651770 0.478692 0.111720 0.213331
H6    H     H_    0.585398 0.374335 0.114862 0.243924
C9    C     C_3   0.590199 0.447218 0.073664 -0.416522
C10   C     C_3   0.506301 0.501732 0.122450 -0.230034
C11   C     C_3   0.512334 0.498508 0.879332 -0.372773
C12   C     C_3   0.598603 0.444433 0.929127 0.662449
C13   C     C_R   0.819891 0.564047 0.400296 -0.176349
C14   C     C_R   0.770332 0.498119 0.476493 -0.064580
C15   C     C_R   0.811328 0.420267 0.528453 -0.107970
C16   C     C_R   0.903293 0.409309 0.511267 -0.036277
C17   C     C_R   0.954959 0.480388 0.442943 0.056514
C18   C     C_R   0.913022 0.555157 0.382375 0.081004
C19   C     C_R   0.946090 0.332883 0.567233 0.401839
C20   C     C_R   0.038370 0.340608 0.579243 -0.165726
C21   C     C_R   0.088207 0.417583 0.525217 -0.057279
C22   C     C_R   0.048631 0.480896 0.444058 -0.015649
C23   C     C_R   0.101856 0.551017 0.376507 0.016641
C24   C     C_R   0.059637 0.618354 0.302180 0.357036
C25   C     C_R   0.965137 0.621192 0.308758 -0.226087
C26   C     C_R   0.173281 0.439980 0.563005 0.438088
C27   C     C_R   0.230167 0.497499 0.484277 -0.186557
C28   C     C_R   0.195143 0.552338 0.390051 -0.217090
H7    H     H_    0.786137 0.621475 0.355725 0.182677
H8    H     H_    0.771055 0.370806 0.587595 0.246039
H9    H     H_    0.071398 0.287238 0.631970 0.241222
H10   H     H_    0.240531 0.598870 0.333781 0.222976
H11   H     H_    0.931985 0.676255 0.258940 0.220180
C29   C     C_R   0.567009 0.800143 0.433014 0.011426
C30   C     C_R   0.570630 0.205428 0.440305 0.034881
N1    N     N_R   0.500070 0.750030 0.500050 -0.142034
N2    N     N_R   0.500070 0.249970 0.500050 -0.134933
C31   C     C_R   0.438293 0.796080 0.574557 0.367542
C32   C     C_R   0.430676 0.195821 0.557662 0.389259
C33   C     C_R   0.438669 0.896159 0.575831 -0.004769
C34   C     C_R   0.436673 0.096683 0.570264 -0.016189
C35   C     C_R   0.505985 0.949067 0.504472 0.033969
C36   C     C_R   0.506294 0.050049 0.504531 0.023192
C37   C     C_R   0.572360 0.901069 0.433704 -0.107640
C38   C     C_R   0.573888 0.104328 0.436532 -0.106949
C39   C     C_R   0.373590 0.944685 0.647384 -0.124847
C40   C     C_R   0.372433 0.042848 0.644312 -0.113556
C41   C     C_R   0.642066 0.056088 0.367482 0.271636
C42   C     C_R   0.641380 0.955147 0.366180 0.254889
H12   H     H_    0.616846 0.760432 0.380929 0.198072
H13   H     H_    0.622927 0.249371 0.392986 0.183353
H14   H     H_    0.321493 0.908061 0.705192 0.208342
H15   H     H_    0.320665 0.075628 0.702191 0.213241
Br1   Br    Br    0.614499 0.681360 0.132211 -0.345359
Br2   Br    Br    0.386940 0.326086 0.155978 -0.313255
S1    S     S_3+6 0.181609 0.448218 0.725078 0.077384
O9    O     O_2   0.266627 0.500993 0.752723 -0.292049
O10   O     O_2   0.102692 0.502863 0.776447 -0.250688
O11   O     O_3   0.177018 0.339862 0.792758 -0.491796
H16   H     H_    0.158805 0.350600 0.880917 0.409759
S2    S     S_3+6 0.122192 0.704125 0.208263 0.080675
O12   O     O_2   0.184463 0.654258 0.117717 -0.240184
O13   O     O_2   0.060785 0.765208 0.137653 -0.206102
O14   O     O_3   0.184237 0.773271 0.297740 -0.512006
H17   H     H_    0.140576 0.797465 0.361612 0.370010
Br3   Br    Br    0.353481 0.724429 0.683745 -0.380432
Br4   Br    Br    0.314148 0.246183 0.597007 -0.357808
Br5   Br    Br    0.735097 0.127200 0.270594 -0.289071
Br6   Br    Br    0.736282 0.892217 0.272525 -0.309357
Br7   Br    Br    0.590884 0.704417 0.841551 -0.228437
Br8   Br    Br    0.371265 0.338498 0.866445 -0.223667
S3    S     S_3+6 0.706300 0.501713 0.872476 0.091916
O15   O     O_2   0.699518 0.538793 0.742966 -0.332248
O16   O     O_2   0.732853 0.582509 0.952182 -0.207365
O17   O     O_3   0.791943 0.426115 0.870538 -0.438147
H18   H     H_    0.842049 0.458953 0.820943 0.394301
S4    S     S_3+6 0.610037 0.318945 0.889217 0.095522
O18   O     O_2   0.622729 0.306651 0.751641 -0.266061
O19   O     O_2   0.691999 0.282365 0.947408 -0.207035
O20   O     O_3   0.524439 0.248656 0.947066 -0.486557
H19   H     H_    0.537116 0.184943 0.914130 0.397482
S5    S     S_3+6 0.887925 0.228700 0.626142 0.076665
O21   O     O_2   0.813017 0.201860 0.544941 -0.266659
O22   O     O_2   0.952208 0.148315 0.630805 -0.240626
O23   O     O_3   0.844579 0.248470 0.769982 -0.459947
H20   H     H_    0.822553 0.185263 0.802386 0.421150

loop_
_geom_bond_atom_site_label_1
_geom_bond_atom_site_label_2
_geom_bond_distance
_ccdc_geom_bond_type
S4    O18   1.502032 D    
C19   C20   1.386588 A    
C30   C38   1.428922 A    
O11   H16   0.990617 S    
C7    Br7   1.981424 S    
C2    C10   1.463832 S    
S2    O12   1.503050 D    
C9    C12   1.561826 S    
Zn1   O7    2.032201 S    
C6    Br2   1.981257 S    
C1    C27   1.443937 S    
C21   C22   1.405720 A    
C20   C21   1.396993 A    
C7    H3    1.113445 S    
Zn1   N1    2.014052 S    
O3    Zn1   2.044880 S    
O4    C2    1.287366 A    
O7    C4    1.294884 A    
C34   C36   1.404310 A    
C35   C37   1.406909 A    
C8    Br8   1.956514 S    
C20   H9    1.082013 S    
C5    H1    1.114873 S    
C21   C26   1.381892 A    
O5    C3    1.296425 A    
C41   Br5   1.931593 S    
C40   H15   1.080883 S    
C15   H8    1.081809 S    
C12   S3    1.839955 S    
C29   N1    1.368553 A    
C4    C11   1.491438 S    
C19   S5    1.773549 S    
C7    C11   1.598916 S    
O17   H18   0.990817 S    
C6    C8    1.540311 S    
S2    O13   1.503376 D    
S4    O19   1.503067 D    
C18   C25   1.401051 A    
S1    O11   1.680806 S    
C25   H11   1.083313 S    
O23   H20   0.992141 S    
N1    C31   1.369153 A    
C34   C40   1.406331 A    
N2    C32   1.378137 A    
C6    C10   1.561251 S    
C22   C23   1.414672 A    
C31   C33   1.411394 A    
C36   C38   1.409511 A    
C16   C19   1.411489 A    
C3    C14   1.438068 S    
H6    C9    1.111945 S    
O3    C2    1.286542 A    
C23   C24   1.416729 A    
O14   H17   0.990243 S    
C5    C10   1.567156 S    
C35   C36   1.423852 A    
C13   C18   1.395040 A    
C13   H7    1.084814 S    
C12   S4    1.838399 S    
O1    C1    1.286015 A    
C38   C41   1.417772 A    
C5    C7    1.542931 S    
C27   C28   1.401794 A    
C39   C40   1.384628 A    
C15   C16   1.381108 A    
S3    O17   1.681058 S    
O8    C4    1.294920 A    
Zn2   O8    2.044977 S    
O20   H19   0.990675 S    
C26   S1    1.770007 S    
C17   C18   1.410344 A    
C30   H13   1.079630 S    
C29   H12   1.078024 S    
S1    O10   1.504047 D    
C24   C25   1.403341 A    
S3    O16   1.499021 D    
C37   C42   1.419908 A    
S4    O20   1.675658 S    
S5    O22   1.503707 D    
C32   C34   1.407966 A    
C33   C39   1.402088 A    
C26   C27   1.396734 A    
C32   Br4   1.915947 S    
C31   Br3   1.927808 S    
S2    O14   1.681702 S    
Zn1   O5    2.009673 S    
C5    Br1   1.975424 S    
O1    Zn1   1.990099 S    
Zn2   O6    1.989828 S    
O2    Zn2   2.009937 S    
C8    H4    1.107149 S    
S1    O9    1.497243 D    
O6    C3    1.281857 A    
Zn2   N2    2.014070 S    
O4    Zn2   2.032105 S    
C42   Br6   1.930831 S    
C23   C28   1.402174 A    
C8    C11   1.580798 S    
S5    O23   1.678298 S    
C17   C22   1.392424 A    
C39   H14   1.080036 S    
C29   C37   1.423440 A    
C16   C17   1.416219 A    
O2    C1    1.294734 A    
C9    C10   1.552243 S    
C41   C42   1.423458 A    
C14   C15   1.395484 A    
C33   C35   1.414486 A    
H5    C9    1.110413 S    
C13   C14   1.396509 A    
S3    O15   1.496560 D    
C6    H2    1.115413 S    
S5    O21   1.503033 D    
C11   C12   1.623288 S    
C24   S2    1.772961 S    
C30   N2    1.370766 A    
C28   H10   1.081354 S    
