data_mof_unit_19855.cif
_audit_creation_date              2012-12-10T17:37:32-0500
_audit_creation_method            fapswitch 2.2
_symmetry_space_group_name_H-M    P1
_symmetry_Int_Tables_number       1
_space_group_crystal_system       triclinic
_cell_length_a                    12.115888
_cell_length_b                    12.827029
_cell_length_c                    15.346423
_cell_angle_alpha                 92.758617
_cell_angle_beta                  84.552836
_cell_angle_gamma                 95.932219
_cell_volume                      2359.74703998

loop_
_atom_site_label
_atom_site_type_symbol
_atom_type_description
_atom_site_fract_x
_atom_site_fract_y
_atom_site_fract_z
_atom_type_partial_charge
C1    C     C_R   0.524122 0.699921 0.495703 0.847132
C2    C     C_R   0.535532 0.133861 0.550596 0.030070
C3    C     C_R   0.467185 0.974108 0.469420 0.137222
C4    C     C_R   0.538029 0.025790 0.530837 0.132849
C5    C     C_R   0.952373 0.414426 0.406705 -0.344489
C6    C     C_R   0.052159 0.610057 0.573569 -0.351670
C7    C     C_R   0.838411 0.424090 0.416364 -0.061645
C8    C     C_R   0.166235 0.600088 0.564064 -0.004428
C9    C     C_R   0.861514 0.535292 0.543498 0.209069
C10   C     C_R   0.135504 0.450425 0.468018 0.180726
C11   C     C_R   0.978762 0.541299 0.526293 0.049385
C12   C     C_R   0.476342 0.299981 0.504618 0.861832
C13   C     C_R   0.023273 0.470148 0.464589 0.055364
C14   C     C_R   0.485588 0.494751 0.657548 0.819028
C15   C     C_R   0.514550 0.503119 0.342062 0.826167
C16   C     C_R   0.476964 0.460159 0.749588 -0.082501
C17   C     C_R   0.523706 0.497826 0.244451 -0.102719
C18   C     C_R   0.568708 0.486976 0.798672 -0.251882
C19   C     C_R   0.430722 0.457573 0.201153 -0.262547
C20   C     C_R   0.584617 0.430136 0.871104 -0.157590
C21   C     C_R   0.445003 0.402441 0.120823 -0.163074
C22   C     C_R   0.507365 0.346360 0.897601 0.126920
C23   C     C_R   0.460922 0.187617 0.508298 -0.086303
C24   C     C_R   0.552710 0.391022 0.082279 0.130741
C25   C     C_R   0.408414 0.327944 0.856614 -0.219191
C26   C     C_R   0.642472 0.454556 0.113720 -0.216796
C27   C     C_R   0.391575 0.383072 0.782550 0.099213
C28   C     C_R   0.629184 0.510635 0.194310 0.129579
C29   C     C_2   0.540229 0.265346 0.954050 0.017279
C30   C     C_2   0.574333 0.290310 0.035363 0.030331
C31   C     C_3   0.729960 0.577138 0.225899 -0.419234
C32   C     C_3   0.704007 0.689791 0.251511 -0.328695
C33   C     C_3   0.803034 0.753593 0.289188 -0.867888
C34   C     C_R   0.542126 0.812051 0.493050 -0.069170
C35   C     C_3   0.286543 0.349713 0.737685 -0.421321
C36   C     C_3   0.199119 0.427688 0.759560 -0.299090
C37   C     C_3   0.091044 0.390869 0.718634 -0.897351
C38   C     C_3   0.631206 0.215303 0.087184 -0.413186
C39   C     C_3   0.561392 0.184189 0.172633 -0.325383
C40   C     C_3   0.623277 0.115995 0.226375 -0.915566
C41   C     C_3   0.546625 0.156101 0.911805 -0.409776
C42   C     C_3   0.662609 0.145068 0.864959 -0.343912
C43   C     C_3   0.672233 0.033463 0.827868 -0.919065
C44   C     C_3   0.610627 0.191074 0.616500 -0.412585
C45   C     C_R   0.610385 0.968173 0.570435 -0.247408
C46   C     C_3   0.733475 0.209165 0.578168 -0.282675
C47   C     C_3   0.809356 0.256899 0.646565 -0.925327
C48   C     C_3   0.419505 0.814578 0.366710 -0.416989
C49   C     C_3   0.468510 0.862399 0.279718 -0.385751
C50   C     C_3   0.427817 0.796810 0.201241 -0.892060
C51   C     C_3   0.163424 0.340378 0.439650 -0.404926
C52   C     C_3   0.215696 0.332452 0.344881 -0.316263
C53   C     C_3   0.177048 0.229500 0.297238 -0.957336
C54   C     C_3   0.816878 0.565946 0.635717 -0.402926
C55   C     C_3   0.777099 0.675829 0.643392 -0.312693
C56   C     C_R   0.386869 0.028928 0.436627 -0.238912
C57   C     C_3   0.806169 0.735325 0.728244 -0.962739
C58   C     C_R   0.611149 0.862840 0.552229 -0.253426
C59   C     C_R   0.384238 0.134497 0.456020 -0.270226
C60   C     C_R   0.476099 0.867824 0.444744 0.037829
H1    H     H_    0.632570 0.547493 0.777236 0.153558
H2    H     H_    0.661711 0.446157 0.901919 0.129060
H3    H     H_    0.327288 0.176450 0.424881 0.175048
H4    H     H_    0.661415 0.820375 0.588993 0.155595
H5    H     H_    0.664114 0.001342 0.618925 0.163261
H6    H     H_    0.326460 0.992008 0.394515 0.153947
H7    H     H_    0.876862 0.757510 0.240241 0.254307
H8    H     H_    0.781721 0.834592 0.306662 0.245621
H9    H     H_    0.823643 0.717567 0.349289 0.271414
H10   H     H_    0.682906 0.728435 0.192797 0.220647
H11   H     H_    0.631743 0.689767 0.301615 0.219365
H12   H     H_    0.348233 0.458267 0.233407 0.155077
H13   H     H_    0.761746 0.540385 0.281024 0.227126
H14   H     H_    0.799808 0.581310 0.173214 0.184408
H15   H     H_    0.107210 0.379373 0.646625 0.266653
H16   H     H_    0.053147 0.315753 0.746558 0.256525
H17   H     H_    0.030954 0.450593 0.732509 0.246232
H18   H     H_    0.180610 0.435356 0.831816 0.210754
H19   H     H_    0.231086 0.506359 0.735585 0.234523
H20   H     H_    0.305642 0.338705 0.666082 0.224518
H21   H     H_    0.249415 0.271340 0.759756 0.185250
H22   H     H_    0.637231 0.040810 0.190036 0.261139
H23   H     H_    0.222228 0.653874 0.599527 0.143911
H24   H     H_    0.704834 0.157597 0.241111 0.261618
H25   H     H_    0.573350 0.099025 0.289450 0.259952
H26   H     H_    0.543174 0.255139 0.213655 0.236972
H27   H     H_    0.481050 0.140542 0.157158 0.216681
H28   H     H_    0.650902 0.142744 0.049788 0.209482
H29   H     H_    0.712945 0.255313 0.103345 0.192902
H30   H     H_    0.664967 0.977990 0.881982 0.266279
H31   H     H_    0.605704 0.009448 0.783855 0.260764
H32   H     H_    0.754472 0.029300 0.789907 0.248170
H33   H     H_    0.677642 0.200673 0.811001 0.230977
H34   H     H_    0.784791 0.382546 0.370961 0.142856
H35   H     H_    0.728566 0.165720 0.910083 0.216780
H36   H     H_    0.522715 0.094839 0.960736 0.201012
H37   H     H_    0.484786 0.140860 0.862543 0.194080
H38   H     H_    0.774162 0.325235 0.681839 0.262234
H39   H     H_    0.820199 0.197295 0.694275 0.259178
H40   H     H_    0.892583 0.283498 0.613887 0.255473
H41   H     H_    0.765377 0.135225 0.551168 0.206622
H42   H     H_    0.741310 0.262336 0.522926 0.253377
H43   H     H_    0.580850 0.267391 0.639948 0.206432
H44   H     H_    0.603429 0.146056 0.676871 0.195706
H45   H     H_    0.984221 0.364300 0.353661 0.171458
H46   H     H_    0.454881 0.716613 0.200676 0.265889
H47   H     H_    0.335483 0.791339 0.203755 0.266172
H48   H     H_    0.463453 0.834308 0.139700 0.250967
H49   H     H_    0.444190 0.942794 0.275542 0.236779
H50   H     H_    0.560951 0.867137 0.275384 0.230268
H51   H     H_    0.431163 0.729996 0.359949 0.215401
H52   H     H_    0.328047 0.818672 0.376362 0.199156
H53   H     H_    0.189104 0.160745 0.335083 0.263354
H54   H     H_    0.087420 0.226951 0.286706 0.260006
H55   H     H_    0.225520 0.223735 0.232321 0.253221
H56   H     H_    0.022313 0.671887 0.617078 0.170443
H57   H     H_    0.192025 0.397485 0.307536 0.211964
H58   H     H_    0.307513 0.337869 0.344941 0.243374
H59   H     H_    0.211902 0.308526 0.486900 0.210625
H60   H     H_    0.086400 0.285104 0.447119 0.186891
H61   H     H_    0.771554 0.690035 0.786133 0.264269
H62   H     H_    0.897902 0.750348 0.729441 0.263270
H63   H     H_    0.770474 0.811950 0.732592 0.258704
H64   H     H_    0.815000 0.723084 0.587288 0.220496
H65   H     H_    0.685412 0.668049 0.643092 0.241550
H66   H     H_    0.753250 0.505019 0.660881 0.204904
H67   H     H_    0.347316 0.264944 0.879116 0.120926
H68   H     H_    0.881438 0.560836 0.681766 0.182724
H69   H     H_    0.725073 0.450480 0.080565 0.112834
H70   H     H_    0.373763 0.356711 0.095768 0.134450
N1    N     N_R   0.206400 0.519440 0.514690 -0.101612
N2    N     N_R   0.793600 0.480560 0.485310 -0.099976
O1    O     O_R   0.421320 0.658850 0.503920 -0.612670
O2    O     O_R   0.578680 0.341150 0.496080 -0.605189
O3    O     O_R   0.609840 0.646370 0.494500 -0.612150
O4    O     O_R   0.390160 0.353630 0.505500 -0.639918
O5    O     O_R   0.394600 0.506990 0.621070 -0.597196
O6    O     O_R   0.605400 0.493010 0.378930 -0.594597
O7    O     O_R   0.583120 0.494520 0.611640 -0.610723
O8    O     O_R   0.416880 0.505480 0.388360 -0.603200
Zn1   Zn    Zn3+2 0.374120 0.508330 0.506290 0.906663
Zn2   Zn    Zn3+2 0.625880 0.491670 0.493710 0.910961

loop_
_geom_bond_atom_site_label_1
_geom_bond_atom_site_label_2
_ccdc_geom_bond_type
C50   H48   S    
C22   C29   S    
C42   H33   S    
C41   C42   S    
C40   H24   S    
C35   C36   S    
C39   H27   S    
C35   H21   S    
C5    H45   S    
C52   C53   S    
C23   C59   A    
C54   H66   S    
C12   C23   S    
C29   C30   D    
C47   H38   S    
C36   C37   S    
C19   C21   A    
C24   C26   A    
C38   C39   S    
O7    Zn2   S    
C31   H13   S    
C41   H36   S    
O2    Zn2   S    
C8    H23   S    
C35   H20   S    
C47   H39   S    
C30   C38   S    
C18   C20   A    
C10   N1    A    
C53   H53   S    
C57   H62   S    
C54   C55   S    
O3    Zn2   S    
C55   H65   S    
C2    C44   S    
C22   C25   A    
C51   H59   S    
C12   O4    A    
C5    C13   A    
N1    Zn1   S    
C33   H9    S    
C15   O6    A    
C3    C60   A    
C16   C27   A    
C37   H15   S    
C12   O2    A    
C34   C60   A    
C19   H12   S    
C1    O1    A    
C10   C51   S    
C44   H43   S    
C44   C46   S    
C1    C34   S    
C48   C60   S    
C32   H11   S    
C4    C45   A    
C44   H44   S    
C46   H41   S    
C45   C58   A    
C43   H30   S    
C42   H35   S    
C40   H22   S    
O8    Zn1   S    
O6    Zn2   S    
C6    C11   A    
C5    C7    A    
C31   H14   S    
C32   H10   S    
C58   H4    S    
C27   C35   S    
C37   H17   S    
C10   C13   A    
C43   H31   S    
C47   H40   S    
C51   C52   S    
C38   H28   S    
C40   H25   S    
C2    C4    A    
O4    Zn1   S    
C57   H63   S    
C46   H42   S    
C3    C56   A    
C31   C32   S    
C38   H29   S    
C14   O5    A    
C8    N1    A    
C51   H60   S    
C34   C58   A    
C9    C11   A    
C6    H56   S    
C7    N2    A    
C26   H69   S    
C48   C49   S    
C48   H52   S    
C37   H16   S    
C20   C22   A    
C55   C57   S    
C45   H5    S    
C50   H47   S    
C41   H37   S    
C42   C43   S    
C3    C4    A    
C39   C40   S    
C53   H54   S    
C33   H7    S    
C49   H49   S    
C15   O8    A    
C9    N2    A    
C15   C17   S    
C7    H34   S    
O5    Zn1   S    
C46   C47   S    
C29   C41   S    
C17   C28   A    
C59   H3    S    
C28   C31   S    
C36   H19   S    
C6    C8    A    
C18   H1    S    
C9    C54   S    
C25   C27   A    
N2    Zn2   S    
C26   C28   A    
C43   H32   S    
C56   C59   A    
C32   C33   S    
C25   H67   S    
C36   H18   S    
C52   H57   S    
C11   C13   A    
C54   H68   S    
C56   H6    S    
C17   C19   A    
C14   C16   S    
C20   H2    S    
C24   C30   S    
C21   H70   S    
C57   H61   S    
C48   H51   S    
C14   O7    A    
C16   C18   A    
C49   C50   S    
C55   H64   S    
C21   C24   A    
C2    C23   A    
C50   H46   S    
O1    Zn1   S    
C39   H26   S    
C1    O3    A    
C53   H55   S    
C33   H8    S    
C49   H50   S    
C52   H58   S    
