data_mof_unit_5874.cif
_audit_creation_date              2012-12-10T17:44:34-0500
_audit_creation_method            fapswitch 2.2
_symmetry_space_group_name_H-M    P1
_symmetry_Int_Tables_number       1
_space_group_crystal_system       triclinic
_cell_length_a                    10.016128
_cell_length_b                    10.461438
_cell_length_c                    15.470277
_cell_angle_alpha                 91.536188
_cell_angle_beta                  67.741996
_cell_angle_gamma                 89.855953
_cell_volume                      1499.55744621

loop_
_atom_site_label
_atom_site_type_symbol
_atom_type_description
_atom_site_fract_x
_atom_site_fract_y
_atom_site_fract_z
_atom_type_partial_charge
C1    C     C_R   0.512167 0.735192 0.479996 1.001092
C2    C     C_R   0.406091 0.437425 0.915290 0.040523
C3    C     C_R   0.265778 0.486505 0.968653 -0.021505
C4    C     C_R   0.500316 0.404789 0.959949 0.086331
C5    C     C_R   0.468147 0.450003 0.052497 0.020380
C6    C     C_R   0.332829 0.509249 0.102328 -0.394225
C7    C     C_R   0.232016 0.528317 0.061667 0.372576
C8    C     C_R   0.621269 0.323004 0.916669 -0.216075
C9    C     C_R   0.709519 0.288825 0.963750 -0.238571
C10   C     C_R   0.687647 0.344467 0.051037 0.163229
C11   C     C_R   0.570894 0.431237 0.093511 0.111403
C12   C     C_R   0.410048 0.488237 0.674927 0.983428
C13   C     C_R   0.778446 0.312513 0.097832 -0.197705
C14   C     C_R   0.752379 0.365238 0.186746 -0.114216
C15   C     C_R   0.559122 0.494990 0.176701 -0.252509
C16   C     C_R   0.368833 0.861799 0.363197 -0.190751
C17   C     C_R   0.294965 0.929835 0.318097 0.627464
C18   C     C_R   0.281707 0.062485 0.329577 -0.206823
C19   C     C_R   0.352731 0.128388 0.378429 -0.257019
C20   C     C_R   0.434267 0.062202 0.420756 0.111386
C21   C     C_R   0.440777 0.927472 0.413203 0.019912
C22   C     C_R   0.536583 0.864019 0.444820 -0.255148
C23   C     C_R   0.505232 0.259068 0.490583 0.851772
C24   C     C_R   0.658172 0.929886 0.444476 0.448739
C25   C     C_R   0.640826 0.058738 0.466994 -0.282691
C26   C     C_R   0.520902 0.124354 0.463642 -0.168450
C27   C     C_R   0.770998 0.602600 0.657761 0.444839
C28   C     C_R   0.788254 0.574897 0.740394 -0.406525
C29   C     C_R   0.925495 0.587604 0.740797 -0.176417
C30   C     C_R   0.042203 0.607302 0.656462 0.491341
C31   C     C_R   0.028011 0.558023 0.574031 0.004417
C32   C     C_R   0.884227 0.558532 0.573903 0.071074
C33   C     C_R   0.970577 0.445894 0.429011 -0.068717
C34   C     C_R   0.590628 0.493727 0.324560 0.799963
C35   C     C_R   0.113011 0.446960 0.428595 -0.072567
C36   C     C_R   0.355164 0.463356 0.775359 -0.146604
C37   C     C_R   0.643172 0.457958 0.225639 0.030151
C38   C     C_R   0.164128 0.490172 0.926362 -0.226562
C39   C     C_R   0.208113 0.466230 0.830654 0.492173
C40   C     C_R   0.451414 0.432855 0.817677 -0.331584
H1    H     H_    0.865744 0.243523 0.067259 0.140575
H2    H     H_    0.381336 0.759357 0.350769 0.152413
H3    H     H_    0.224071 0.115636 0.295190 0.149585
H4    H     H_    0.352929 0.230766 0.373933 0.184808
H5    H     H_    0.726895 0.109046 0.478987 0.210557
H6    H     H_    0.951746 0.399989 0.371234 0.111428
H7    H     H_    0.698662 0.588904 0.806709 0.195811
H8    H     H_    0.481237 0.571330 0.207131 0.139733
H9    H     H_    0.932171 0.615492 0.806977 0.214250
H10   H     H_    0.199642 0.403284 0.369771 0.122865
H11   H     H_    0.815771 0.332768 0.225408 0.136320
H12   H     H_    0.795357 0.219029 0.931777 0.144128
H13   H     H_    0.050904 0.507655 0.965815 0.216166
H14   H     H_    0.562624 0.412221 0.774090 0.173512
H15   H     H_    0.301144 0.538183 0.174687 0.182915
H16   H     H_    0.643408 0.277838 0.848882 0.163064
N1    N     N_R   0.856800 0.501200 0.500850 -0.104561
N2    N     N_R   0.142390 0.501280 0.500880 -0.120417
O1    O     O_R   0.385310 0.683220 0.500000 -0.542186
O2    O     O_R   0.614640 0.683250 0.500010 -0.520961
O3    O     O_R   0.319840 0.499980 0.632240 -0.571410
O4    O     O_R   0.549160 0.500000 0.632250 -0.625417
O5    O     O_R   0.385360 0.316750 0.499990 -0.646920
O6    O     O_R   0.614690 0.316780 0.500000 -0.633264
O7    O     O_R   0.450840 0.500000 0.367750 -0.658314
O8    O     O_R   0.680160 0.500020 0.367760 -0.602949
Zn1   Zn    Zn3+2 0.346880 0.499980 0.499990 0.980840
Zn2   Zn    Zn3+2 0.653120 0.500020 0.500010 1.023244
S1    S     S_3+6 0.081377 0.629466 0.122591 0.026447
O9    O     O_2   0.100810 0.753822 0.073164 -0.258093
O10   O     O_2   0.943062 0.571556 0.125830 -0.331368
O11   O     O_3   0.069887 0.658755 0.232369 -0.435430
H17   H     H_    0.029895 0.579687 0.265616 0.350273
S2    S     S_3+6 0.833215 0.875478 0.370959 0.111230
O12   O     O_2   0.880211 0.759719 0.407794 -0.180508
O13   O     O_2   0.831130 0.840887 0.276541 -0.255700
O14   O     O_3   0.953590 0.991984 0.359545 -0.518488
H18   H     H_    0.943381 0.049294 0.312402 0.336595
O15   O     O_3   0.242672 0.867110 0.258098 -0.547924
C41   C     C_3   0.353016 0.858150 0.167536 0.110455
H19   H     H_    0.336406 0.768789 0.133336 0.217002
H20   H     H_    0.464092 0.849893 0.167873 0.090697
C42   C     C_3   0.343564 0.970796 0.108533 -0.353642
H21   H     H_    0.230423 0.983259 0.113890 0.273238
H22   H     H_    0.376826 0.060047 0.134852 0.194127
C43   C     C_3   0.441503 0.949077 0.006045 -0.870812
H23   H     H_    0.555444 0.936897 0.998951 0.265608
H24   H     H_    0.433950 0.032961 0.965536 0.271625
H25   H     H_    0.407879 0.862616 0.976612 0.274831
S3    S     S_3+6 0.693045 0.758312 0.667462 0.090676
O16   O     O_2   0.778284 0.835573 0.585048 -0.199247
O17   O     O_2   0.538786 0.752676 0.676207 -0.297736
O18   O     O_3   0.695203 0.836307 0.763603 -0.501423
H26   H     H_    0.605918 0.810679 0.815210 0.347066
S4    S     S_3+6 0.114095 0.761263 0.657091 0.066922
O19   O     O_2   0.248356 0.755384 0.678290 -0.292913
O20   O     O_2   0.145349 0.822929 0.565009 -0.246496
O21   O     O_3   0.991120 0.852847 0.740842 -0.519909
H27   H     H_    0.010043 0.839573 0.798368 0.352531
O22   O     O_3   0.107161 0.449411 0.791570 -0.665066
C44   C     C_3   0.069583 0.319052 0.792987 0.015991
H28   H     H_    0.955220 0.316176 0.800283 0.180927
H29   H     H_    0.077197 0.267073 0.853172 0.133618
C45   C     C_3   0.159479 0.251246 0.700172 -0.409385
H30   H     H_    0.144003 0.301813 0.642359 0.259157
H31   H     H_    0.275307 0.252117 0.689778 0.214120
C46   C     C_3   0.115171 0.113015 0.697453 -0.716174
H32   H     H_    0.132810 0.060143 0.753598 0.269607
H33   H     H_    0.182048 0.067607 0.628865 0.300508
H34   H     H_    0.999808 0.108115 0.706643 0.283721

loop_
_geom_bond_atom_site_label_1
_geom_bond_atom_site_label_2
_ccdc_geom_bond_type
O8    Zn2   S    
C28   H7    S    
C16   C21   A    
C16   H2    S    
C34   C37   S    
C19   C20   A    
C6    H15   S    
C4    C8    A    
C8    H16   S    
C13   H1    S    
S3    O16   D    
S4    O21   S    
C29   H9    S    
O14   H18   S    
O18   H26   S    
S2    O13   D    
C35   N2    A    
O6    Zn2   S    
C31   N2    A    
C28   C29   A    
C5    C11   A    
C3    C7    A    
C1    O1    A    
C30   C31   A    
C41   H19   S    
C43   H24   S    
C17   O15   S    
C27   S3    S    
C18   C19   A    
C23   C26   S    
S1    O10   D    
C15   C37   A    
O1    Zn1   S    
C11   C15   A    
C31   C32   A    
C3    C38   A    
C8    C9    A    
O7    Zn1   S    
S2    O14   S    
C46   H32   S    
C12   C36   S    
C29   C30   A    
C9    C10   A    
C23   O5    A    
C1    C22   S    
C44   H29   S    
C21   C22   A    
C33   H6    S    
C46   H33   S    
C34   O8    A    
C9    H12   S    
C32   N1    A    
C41   C42   S    
C34   O7    A    
C45   H31   S    
C45   H30   S    
C38   C39   A    
O5    Zn1   S    
S2    O12   D    
C44   H28   S    
C36   C40   A    
C24   C25   A    
C41   H20   S    
C1    O2    A    
C43   H23   S    
C16   C17   A    
C25   C26   A    
C43   H25   S    
S1    O11   S    
C2    C4    A    
C30   S4    S    
C12   O4    A    
O3    Zn1   S    
S3    O17   D    
C14   H11   S    
C35   H10   S    
C17   C18   A    
C23   O6    A    
C42   H22   S    
C44   C45   S    
C40   H14   S    
C46   H34   S    
C22   C24   A    
C42   H21   S    
N1    Zn2   S    
C25   H5    S    
C19   H4    S    
S3    O18   S    
C33   N1    A    
C27   C32   A    
C15   H8    S    
C36   C39   A    
O11   H17   S    
C10   C13   A    
C7    S1    S    
S4    O20   D    
C6    C7    A    
O4    Zn2   S    
C2    C3    A    
S4    O19   D    
C18   H3    S    
C14   C37   A    
C12   O3    A    
C24   S2    S    
C39   O22   S    
C5    C6    A    
C38   H13   S    
C20   C26   A    
O22   C44   S    
C33   C35   A    
S1    O9    D    
C10   C11   A    
O15   C41   S    
C2    C40   A    
N2    Zn1   S    
C4    C5    A    
C42   C43   S    
C20   C21   A    
O2    Zn2   S    
O21   H27   S    
C27   C28   A    
C13   C14   A    
C45   C46   S    
