data_mof_unit_41784.cif
_audit_creation_date              2012-12-10T16:54:05-0500
_audit_creation_method            fapswitch 2.2
_symmetry_space_group_name_H-M    P1
_symmetry_Int_Tables_number       1
_space_group_crystal_system       triclinic
_cell_length_a                    9.730645
_cell_length_b                    10.970008
_cell_length_c                    13.387485
_cell_angle_alpha                 90.294519
_cell_angle_beta                  74.509577
_cell_angle_gamma                 90.965128
_cell_volume                      1376.94469919

loop_
_atom_site_label
_atom_site_type_symbol
_atom_type_description
_atom_site_fract_x
_atom_site_fract_y
_atom_site_fract_z
_atom_type_partial_charge
C1    C     C_R   0.499624 0.734147 0.503951 0.764898
C2    C     C_R   0.454192 0.604391 0.969097 -0.034776
C3    C     C_R   0.497550 0.584641 0.861045 -0.062104
C4    C     C_R   0.554030 0.583131 0.027276 0.116010
C5    C     C_R   0.700920 0.581775 0.975262 0.077211
C6    C     C_R   0.745046 0.599422 0.868497 -0.222930
C7    C     C_R   0.644930 0.598527 0.811582 -0.097447
C8    C     C_R   0.510370 0.549242 0.132638 0.364156
C9    C     C_R   0.759266 0.535916 0.135066 -0.231599
C10   C     C_R   0.390768 0.555198 0.809197 -0.256398
C11   C     C_2   0.607587 0.066733 0.501694 0.299570
C12   C     C_R   0.426405 0.513701 0.699066 0.833580
C13   C     C_2   0.506857 0.133886 0.476222 0.247862
C14   C     C_2   0.612290 0.934665 0.480218 0.324904
C15   C     C_2   0.495970 0.865189 0.521900 0.262621
C16   C     C_2   0.080049 0.596418 0.492320 -0.004528
C17   C     C_2   0.918872 0.596696 0.517126 0.508810
C18   C     C_R   0.500931 0.265502 0.495341 0.778650
C19   C     C_R   0.574486 0.505413 0.300273 0.814274
C20   C     C_R   0.801456 0.558739 0.029679 -0.194077
C21   C     C_R   0.614273 0.529066 0.187807 -0.127865
C22   C     C_R   0.246772 0.573130 0.864144 0.283162
C23   C     C_R   0.216189 0.646103 0.954274 0.229502
C24   C     C_R   0.318739 0.656250 0.012311 0.433466
Cu1   Cu    Cu3+1 0.361370 0.499980 0.499980 0.989529
Cu2   Cu    Cu3+1 0.638630 0.500020 0.500020 1.028843
H1    H     H_    0.840988 0.519465 0.174495 0.180795
H2    H     H_    0.136261 0.682706 0.473002 0.095440
H3    H     H_    0.903925 0.430886 0.459997 0.227379
H4    H     H_    0.857351 0.606892 0.828115 0.189666
H5    H     H_    0.912707 0.552758 0.990006 0.212496
H6    H     H_    0.686535 0.614986 0.730081 0.218586
N1    N     N_2   0.152660 0.501340 0.501130 -0.027315
N2    N     N_2   0.846520 0.501370 0.501160 -0.258086
O1    O     O_R   0.382960 0.678040 0.499980 -0.625132
O2    O     O_R   0.617100 0.678080 0.500020 -0.487059
O3    O     O_R   0.325800 0.499940 0.650950 -0.534385
O4    O     O_R   0.559930 0.499980 0.650990 -0.579079
O5    O     O_R   0.382900 0.321920 0.499980 -0.611885
O6    O     O_R   0.617040 0.321960 0.500020 -0.526937
O7    O     O_R   0.440070 0.500020 0.349010 -0.572343
O8    O     O_R   0.674200 0.500060 0.349050 -0.592582
O9    O     O_3   0.414964 0.078401 0.425785 -0.727512
H7    H     H_    0.355323 0.141051 0.405623 0.341781
O10   O     O_3   0.734767 0.883608 0.417958 -0.732124
H8    H     H_    0.805875 0.949979 0.392737 0.324359
O11   O     O_3   0.375778 0.917512 0.586589 -0.729438
H9    H     H_    0.304791 0.852408 0.615907 0.328840
O12   O     O_3   0.074612 0.406736 0.550664 -0.671994
H10   H     H_    0.141829 0.353410 0.572298 0.384236
O13   O     O_3   0.847229 0.701319 0.555700 -0.704268
H11   H     H_    0.917873 0.763904 0.564293 0.300240
O14   O     O_3   0.369892 0.515695 0.174225 -0.730887
H12   H     H_    0.330935 0.573305 0.231116 0.349449
O15   O     O_3   0.135374 0.527877 0.827869 -0.577311
C25   C     C_3   0.118713 0.401968 0.852254 0.072143
H13   H     H_    0.104206 0.386067 0.936720 0.135378
H14   H     H_    0.213285 0.350550 0.807962 0.158293
C26   C     C_3   0.988179 0.349784 0.823690 -0.746533
H15   H     H_    0.983464 0.384149 0.747098 0.289755
H16   H     H_    0.992932 0.248710 0.820940 0.214321
H17   H     H_    0.889248 0.375536 0.882309 0.232382
O16   O     O_3   0.308343 0.737373 0.095107 -0.575446
C27   C     C_3   0.170042 0.746249 0.163249 0.143529
H18   H     H_    0.116599 0.655189 0.180215 0.154320
H19   H     H_    0.104294 0.809133 0.131538 0.225759
C28   C     C_3   0.180633 0.804915 0.264456 -0.814515
H20   H     H_    0.220888 0.900297 0.250019 0.270887
H21   H     H_    0.073570 0.805901 0.320685 0.217560
H22   H     H_    0.254579 0.754666 0.298826 0.241587
O17   O     O_3   0.092144 0.711552 0.982016 -0.769917
H23   H     H_    0.052724 0.718125 0.921182 0.355498
O18   O     O_3   0.704671 0.119411 0.548614 -0.728649
H24   H     H_    0.765258 0.054213 0.564183 0.333393

loop_
_geom_bond_atom_site_label_1
_geom_bond_atom_site_label_2
_ccdc_geom_bond_type
C8    O14   S    
C16   H2    S    
C2    C4    A    
C23   C24   A    
C19   O8    A    
C26   H15   S    
C6    C7    A    
C1    C15   S    
C16   C17   S    
C16   N1    D    
C14   O10   S    
O18   H24   S    
C9    C20   A    
O11   H9    S    
C25   C26   S    
C15   O11   S    
C18   O5    A    
C28   H22   S    
C9    C21   A    
C27   H18   S    
C17   O13   S    
O15   C25   S    
C2    C3    A    
C19   O7    A    
O17   H23   S    
C3    C10   A    
O14   H12   S    
C10   C22   A    
C12   O4    A    
C11   C13   D    
Cu2   O6    S    
C22   O15   S    
C10   C12   S    
C13   C18   S    
Cu1   O1    S    
Cu2   O2    S    
C19   C21   S    
C25   H14   S    
C8    C21   A    
C24   O16   S    
C3    C7    A    
C22   C23   A    
O9    H7    S    
C2    C24   A    
C5    C6    A    
C11   C14   S    
C5    C20   A    
C26   H16   S    
Cu1   N1    S    
C17   N2    D    
N1    O12   S    
O16   C27   S    
C27   C28   S    
C23   O17   S    
C13   O9    S    
O13   H11   S    
C25   H13   S    
C9    H1    S    
C4    C8    A    
O12   H10   S    
C11   O18   S    
Cu1   O7    S    
C12   O3    A    
Cu2   O8    S    
C1    O1    A    
C18   O6    A    
C14   C15   D    
Cu2   O4    S    
C26   H17   S    
C7    H6    S    
C6    H4    S    
Cu1   Cu2   S    
O10   H8    S    
H3    N2    S    
Cu2   N2    S    
Cu1   O5    S    
C28   H20   S    
C1    O2    A    
Cu1   O3    S    
C4    C5    A    
C28   H21   S    
C20   H5    S    
C27   H19   S    
