data_mof_unit_51683.cif
_audit_creation_date              2012-12-10T18:59:12-0500
_audit_creation_method            fapswitch 2.2
_symmetry_space_group_name_H-M    P1
_symmetry_Int_Tables_number       1
_space_group_crystal_system       triclinic
_cell_length_a                    9.807839
_cell_length_b                    10.700761
_cell_length_c                    16.767739
_cell_angle_alpha                 89.443371
_cell_angle_beta                  94.357395
_cell_angle_gamma                 90.456984
_cell_volume                      1754.58101137

loop_
_atom_site_label
_atom_site_type_symbol
_atom_type_description
_atom_site_fract_x
_atom_site_fract_y
_atom_site_fract_z
_atom_type_partial_charge
C1    C     C_R   0.499139 0.259937 0.499023 0.938763
C2    C     C_R   0.500864 0.740084 0.500731 0.985970
C3    C     C_R   0.389527 0.933631 0.462981 -0.340447
C4    C     C_R   0.610793 0.066401 0.536085 -0.363204
C5    C     C_R   0.502332 0.872466 0.500526 -0.202232
C6    C     C_R   0.497854 0.127578 0.498738 -0.200309
C7    C     C_R   0.067008 0.586050 0.455715 -0.067406
C8    C     C_R   0.932995 0.413865 0.544221 -0.085543
C9    C     C_R   0.922888 0.585832 0.455604 -0.054274
C10   C     C_R   0.077058 0.413696 0.543983 -0.026030
C11   C     C_R   0.517342 0.494855 0.653974 0.908273
C12   C     C_R   0.482460 0.503208 0.346544 0.966996
C13   C     C_R   0.529172 0.471217 0.740503 -0.176733
C14   C     C_R   0.472838 0.491257 0.260409 -0.176026
C15   C     C_R   0.417019 0.428417 0.782119 -0.034456
C16   C     C_R   0.571712 0.546406 0.213993 -0.065366
C17   C     C_R   0.439104 0.394448 0.861953 -0.286701
C18   C     C_R   0.576399 0.508366 0.135087 -0.278970
C19   C     C_R   0.568445 0.410159 0.903434 0.223078
C20   C     C_R   0.481040 0.420796 0.101544 0.206904
C21   C     C_R   0.681001 0.446422 0.862127 0.531529
C22   C     C_R   0.376314 0.375318 0.146059 0.532620
C23   C     C_R   0.659997 0.478717 0.780924 -0.328257
C24   C     C_R   0.374751 0.408031 0.226057 -0.316317
C25   C     C_R   0.384877 0.062398 0.462987 0.550268
C26   C     C_R   0.615557 0.937711 0.535940 0.544004
H1    H     H_    0.650982 0.551135 0.098689 0.218019
H2    H     H_    0.351541 0.364355 0.893186 0.195758
H3    H     H_    0.745477 0.513074 0.749682 0.191901
H4    H     H_    0.299831 0.364543 0.261973 0.201655
H5    H     H_    0.306375 0.881379 0.432433 0.183062
H6    H     H_    0.694045 0.118559 0.566620 0.179997
H7    H     H_    0.117773 0.654746 0.420361 0.131520
H8    H     H_    0.882263 0.345148 0.579582 0.118662
H9    H     H_    0.864039 0.654187 0.420078 0.139419
H10   H     H_    0.135916 0.344624 0.578843 0.133117
N1    N     N_2   0.583789 0.411152 0.987955 -0.129821
N2    N     N_2   0.474525 0.392748 0.019573 -0.152693
N3    N     N_R   0.857210 0.499970 0.500020 -0.077758
N4    N     N_R   0.142790 0.500030 0.499980 -0.074273
O1    O     O_R   0.614620 0.316750 0.500010 -0.642549
O2    O     O_R   0.385380 0.683250 0.499990 -0.637474
O3    O     O_R   0.385290 0.316780 0.500000 -0.592046
O4    O     O_R   0.614710 0.683220 0.500000 -0.574137
O5    O     O_R   0.627460 0.498830 0.616130 -0.618822
O6    O     O_R   0.372540 0.501170 0.383870 -0.620886
O7    O     O_R   0.398130 0.498850 0.616130 -0.592293
O8    O     O_R   0.601870 0.501150 0.383870 -0.609158
Zn1   Zn    Zn3+2 0.653130 0.499980 0.500000 0.982434
Zn2   Zn    Zn3+2 0.346870 0.500020 0.500000 0.996001
C27   C     C_2   0.667199 0.646466 0.245160 0.943778
O9    O     O_2   0.778808 0.659622 0.218051 -0.628655
O10   O     O_R   0.628129 0.728134 0.303836 -0.817267
H11   H     H_    0.701530 0.792322 0.319784 0.331356
C28   C     C_2   0.273710 0.422065 0.747529 0.920825
O11   O     O_2   0.216129 0.516831 0.721905 -0.612007
O12   O     O_R   0.201589 0.309063 0.749950 -0.822672
H12   H     H_    0.103118 0.317000 0.727418 0.316317
O13   O     O_3   0.806313 0.464166 0.905219 -0.596297
C29   C     C_3   0.913020 0.408156 0.866546 -0.270062
H13   H     H_    0.949054 0.471300 0.819456 0.187073
H14   H     H_    0.883338 0.315045 0.841219 0.155033
H15   H     H_    0.000817 0.393216 0.911249 0.196134
O14   O     O_3   0.281754 0.290837 0.112493 -0.591286
C30   C     C_3   0.157072 0.353413 0.094410 -0.243502
H16   H     H_    0.169882 0.433854 0.052898 0.158611
H17   H     H_    0.112171 0.385130 0.149671 0.172533
H18   H     H_    0.083272 0.287251 0.063824 0.205033
O15   O     O_3   0.278034 0.125236 0.421559 -0.583460
C31   C     C_3   0.155748 0.102607 0.458847 -0.280262
H19   H     H_    0.077513 0.169700 0.434123 0.191617
H20   H     H_    0.169064 0.117553 0.524672 0.149611
H21   H     H_    0.115603 0.007002 0.445783 0.147632
O16   O     O_3   0.722953 0.875074 0.576946 -0.581639
C32   C     C_3   0.844344 0.897094 0.538632 -0.266059
H22   H     H_    0.829705 0.880929 0.472968 0.139050
H23   H     H_    0.923133 0.830516 0.563340 0.199420
H24   H     H_    0.884537 0.992985 0.550686 0.143375

loop_
_geom_bond_atom_site_label_1
_geom_bond_atom_site_label_2
_ccdc_geom_bond_type
O4    Zn1   S    
C28   O11   D    
C11   O7    A    
C16   C27   S    
C12   O8    A    
O10   H11   S    
C29   H15   S    
C23   H3    S    
C29   H14   S    
C19   C21   A    
C21   O13   S    
C6    C25   A    
C9    N3    A    
C13   C23   A    
C10   N4    A    
C14   C24   A    
C19   N1    S    
C17   C19   A    
C1    O3    A    
C2    O4    A    
C30   H17   S    
C7    N4    A    
C31   H19   S    
C8    N3    A    
C18   C20   A    
O13   C29   S    
C7    H7    S    
O1    Zn1   S    
O7    Zn2   S    
C31   H20   S    
O16   C32   S    
C27   O9    D    
C3    C25   A    
C4    C6    A    
C1    C6    S    
C29   H13   S    
C27   O10   S    
C12   O6    A    
C15   C28   S    
C32   H22   S    
N1    N2    D    
C20   N2    S    
C13   C15   A    
O5    Zn1   S    
C30   H18   S    
C31   H21   S    
C8    H8    S    
C3    H5    S    
C32   H23   S    
C4    H6    S    
O2    Zn2   S    
C1    O1    A    
O8    Zn1   S    
N3    Zn1   S    
C12   C14   S    
C21   C23   A    
C14   C16   A    
C11   O5    A    
C2    C5    S    
C25   O15   S    
C15   C17   A    
C17   H2    S    
C8    C10   A    
C18   H1    S    
C20   C22   A    
C3    C5    A    
C4    C26   A    
O3    Zn2   S    
O6    Zn2   S    
O14   C30   S    
C28   O12   S    
C11   C13   S    
O12   H12   S    
C2    O2    A    
N4    Zn2   S    
C26   O16   S    
C22   C24   A    
O15   C31   S    
C32   H24   S    
C24   H4    S    
C22   O14   S    
C5    C26   A    
C7    C9    A    
C16   C18   A    
C30   H16   S    
C9    H9    S    
C10   H10   S    
