data_mof_unit_25289.cif
_audit_creation_date              2012-12-10T17:39:24-0500
_audit_creation_method            fapswitch 2.2
_symmetry_space_group_name_H-M    P1
_symmetry_Int_Tables_number       1
_space_group_crystal_system       triclinic
_cell_length_a                    12.325673
_cell_length_b                    13.118978
_cell_length_c                    27.779449
_cell_angle_alpha                 78.149829
_cell_angle_beta                  100.667822
_cell_angle_gamma                 116.485024
_cell_volume                      3912.33696177

loop_
_atom_site_label
_atom_site_type_symbol
_atom_type_description
_atom_site_fract_x
_atom_site_fract_y
_atom_site_fract_z
_atom_type_partial_charge
C1    C     C_R   0.854971 0.286404 0.504240 0.775585
C2    C     C_R   0.091202 0.497564 0.729472 -0.189964
C3    C     C_R   0.988747 0.494279 0.745849 0.300033
C4    C     C_R   0.995148 0.494278 0.898311 -0.050598
C5    C     C_R   0.983118 0.394487 0.881430 -0.073489
C6    C     C_R   0.974946 0.297130 0.916579 -0.019936
C7    C     C_R   0.001760 0.591562 0.863742 -0.025267
C8    C     C_R   0.995465 0.498349 0.645113 -0.074222
C9    C     C_R   0.005656 0.503378 0.354871 -0.147007
C10   C     C_R   0.013767 0.407840 0.036034 0.048206
C11   C     C_R   0.007716 0.597487 0.016751 0.041564
C12   C     C_R   0.998709 0.499513 0.592328 0.815861
C13   C     C_R   0.013585 0.504109 0.051749 0.070420
C14   C     C_R   0.028952 0.321158 0.072619 -0.200343
C15   C     C_R   0.035815 0.325485 0.122687 -0.141826
C16   C     C_R   0.028872 0.416697 0.138356 -0.025437
C17   C     C_R   0.018837 0.506796 0.103046 -0.044651
C18   C     C_R   0.013327 0.599255 0.119135 -0.022033
C19   C     C_R   0.015828 0.598925 0.169874 0.546261
C20   C     C_R   0.031498 0.419956 0.188766 0.554503
C21   C     C_R   0.906345 0.469602 0.271993 -0.215424
C22   C     C_R   0.898314 0.469178 0.321706 0.403985
C23   C     C_R   0.145017 0.713573 0.492832 0.801713
C24   C     C_R   0.119267 0.542667 0.337221 -0.337176
C25   C     C_R   0.126786 0.545334 0.287417 0.021754
C26   C     C_R   0.019640 0.508304 0.254699 0.270537
C27   C     C_R   0.999980 0.401737 0.984587 0.032111
C28   C     C_R   0.001049 0.497523 0.949692 0.072514
C29   C     C_R   0.008211 0.596862 0.965688 0.043119
C30   C     C_R   0.983031 0.301725 0.966858 -0.240575
C31   C     C_R   0.013276 0.690082 0.880032 -0.146395
C32   C     C_R   0.000546 0.688177 0.034209 -0.200931
C33   C     C_R   0.003479 0.688879 0.084361 -0.143394
C34   C     C_R   0.001128 0.500362 0.407701 0.843153
C35   C     C_R   0.016561 0.692958 0.929875 -0.197349
C36   C     C_R   0.277261 0.022095 0.434031 -0.184441
C37   C     C_R   0.228011 0.835157 0.482851 -0.045629
C38   C     C_R   0.814295 0.084185 0.536489 -0.181560
C39   C     C_R   0.734807 0.969181 0.546384 -0.145125
C40   C     C_R   0.611792 0.931940 0.529246 -0.172580
C41   C     C_R   0.566127 0.009160 0.499790 0.087437
C42   C     C_R   0.650355 0.123347 0.484828 0.074426
C43   C     C_R   0.439915 0.976469 0.484120 0.083384
C44   C     C_R   0.401452 0.053707 0.450031 0.163561
C45   C     C_R   0.979328 0.396569 0.829919 0.552470
C46   C     C_R   0.487469 0.160346 0.431242 -0.235908
C47   C     C_R   0.610137 0.194077 0.447756 -0.178708
C48   C     C_R   0.350377 0.869289 0.501500 -0.212012
C49   C     C_R   0.190873 0.912744 0.450016 -0.190448
C50   C     C_R   0.772937 0.162947 0.506947 -0.101032
C51   C     C_R   0.366173 0.363819 0.589438 -0.309110
C52   C     C_R   0.761309 0.645552 0.433255 0.051771
C53   C     C_R   0.670696 0.684786 0.421079 -0.321767
C54   C     C_R   0.569328 0.635984 0.447706 0.015288
C55   C     C_R   0.554848 0.540701 0.485563 -0.048489
C56   C     C_R   0.998658 0.589273 0.813348 0.581169
C57   C     C_R   0.654758 0.509168 0.498658 0.259094
C58   C     C_R   0.450388 0.480154 0.513237 -0.112726
C59   C     C_R   0.459968 0.411239 0.558685 0.112254
C60   C     C_R   0.559930 0.385053 0.571708 -0.273378
C61   C     C_R   0.651221 0.427281 0.540677 -0.177742
C62   C     C_R   0.332998 0.476863 0.496296 0.610117
C63   C     C_R   0.261844 0.382688 0.574441 -0.033346
C64   C     C_R   0.888767 0.494434 0.711954 0.509830
C65   C     C_R   0.892376 0.494658 0.661496 -0.352143
C66   C     C_R   0.094702 0.499606 0.679522 -0.219025
Cu1   Cu    Cu3+1 0.098270 0.475420 0.511360 0.963219
Cu2   Cu    Cu3+1 0.901730 0.524580 0.488640 0.932661
H1    H     H_    0.175253 0.502452 0.667858 0.165804
H2    H     H_    0.020212 0.766296 0.854184 0.190528
H3    H     H_    0.989445 0.759088 0.010001 0.143552
H4    H     H_    0.202354 0.572742 0.362156 0.220529
H5    H     H_    0.997353 0.760187 0.095738 0.185965
H6    H     H_    0.028808 0.773443 0.939137 0.146786
H7    H     H_    0.096245 0.887357 0.435168 0.150258
H8    H     H_    0.459801 0.217938 0.403535 0.148785
H9    H     H_    0.247483 0.080700 0.407956 0.137041
H10   H     H_    0.168487 0.498722 0.755689 0.159912
H11   H     H_    0.373375 0.809160 0.529050 0.142529
H12   H     H_    0.907903 0.111969 0.553076 0.156882
H13   H     H_    0.555674 0.841609 0.538737 0.128965
H14   H     H_    0.768005 0.908973 0.568872 0.143171
H15   H     H_    0.672955 0.275052 0.429929 0.206181
H16   H     H_    0.191536 0.349887 0.599018 0.159018
H17   H     H_    0.565221 0.327326 0.605210 0.160042
H18   H     H_    0.373989 0.313450 0.624987 0.161699
H19   H     H_    0.840576 0.686085 0.413050 0.136078
H20   H     H_    0.682343 0.756799 0.391970 0.159233
H21   H     H_    0.718989 0.395306 0.551825 0.205823
H22   H     H_    0.824162 0.438817 0.246645 0.149229
H23   H     H_    0.046363 0.256439 0.149149 0.188166
H24   H     H_    0.038722 0.249558 0.063935 0.143632
H25   H     H_    0.972237 0.223509 0.991497 0.138544
H26   H     H_    0.814315 0.489679 0.635171 0.153320
N1    N     N_R   0.987844 0.493010 0.797565 -0.443877
N2    N     N_R   0.024155 0.509818 0.203363 -0.456022
N3    N     N_R   0.246290 0.438210 0.528570 -0.225369
N4    N     N_R   0.754320 0.561170 0.471730 -0.206885
O1    O     O_R   0.972510 0.318140 0.514280 -0.582563
O2    O     O_2   0.040033 0.333623 0.222908 -0.540035
O3    O     O_2   0.007672 0.683081 0.780256 -0.552702
O4    O     O_2   0.009508 0.686593 0.185685 -0.544033
O5    O     O_R   0.806530 0.359640 0.495100 -0.604080
O6    O     O_R   0.082990 0.479270 0.579320 -0.594321
O7    O     O_R   0.917010 0.520770 0.560140 -0.598820
O8    O     O_R   0.193470 0.640360 0.504900 -0.563926
O9    O     O_R   0.027490 0.681860 0.485720 -0.592452
O10   O     O_R   0.082990 0.479230 0.439860 -0.548883
O11   O     O_R   0.917010 0.520730 0.420680 -0.567508
O12   O     O_2   0.967363 0.303709 0.811921 -0.525064
O13   O     O_3   0.786401 0.484614 0.730324 -0.573053
C67   C     C_3   0.735462 0.556988 0.700462 0.071337
H27   H     H_    0.674007 0.514090 0.668890 0.143434
H28   H     H_    0.806904 0.642012 0.686356 0.158010
C68   C     C_3   0.659772 0.578799 0.731157 -0.733712
H29   H     H_    0.718512 0.621956 0.763081 0.263507
H30   H     H_    0.618375 0.634896 0.708061 0.192471
H31   H     H_    0.585840 0.496104 0.745101 0.247299
C69   C     C_1   0.244696 0.586173 0.270354 0.284793
N5    N     N_1   0.339306 0.618836 0.256683 -0.282417
O14   O     O_3   0.298212 0.490715 0.446146 -0.585025
C70   C     C_3   0.257921 0.384663 0.427813 0.083166
H32   H     H_    0.166231 0.363866 0.407156 0.188214
H33   H     H_    0.248333 0.308920 0.456792 0.118471
C71   C     C_3   0.343270 0.395847 0.391914 -0.846191
H34   H     H_    0.431857 0.402659 0.412356 0.242720
H35   H     H_    0.303036 0.318564 0.372745 0.215703
H36   H     H_    0.358211 0.473261 0.363891 0.268975
C72   C     C_1   0.957812 0.189556 0.903209 0.340394
N6    N     N_1   0.944106 0.103280 0.892767 -0.256061
C73   C     C_1   0.493463 0.697219 0.439381 0.303252
N7    N     N_1   0.433281 0.746922 0.432474 -0.271636
O15   O     O_3   0.785333 0.424588 0.338911 -0.581749
C74   C     C_3   0.731379 0.502005 0.320847 0.102963
H37   H     H_    0.711522 0.509977 0.279852 0.147746
H38   H     H_    0.791565 0.588647 0.331860 0.143463
C75   C     C_3   0.611494 0.457167 0.342687 -0.784432
H39   H     H_    0.627305 0.444677 0.383677 0.250235
H40   H     H_    0.570774 0.519847 0.330605 0.218694
H41   H     H_    0.546863 0.373712 0.330044 0.247484

loop_
_geom_bond_atom_site_label_1
_geom_bond_atom_site_label_2
_ccdc_geom_bond_type
C10   C27   A    
C58   C62   A    
C56   N1    A    
C21   C26   A    
C35   H6    S    
C8    C66   A    
C41   C42   A    
O13   C67   S    
Cu2   O5    S    
C1    O1    A    
C74   C75   S    
C67   H28   S    
O15   C74   S    
C53   C54   A    
C54   C73   S    
C75   H40   S    
C48   H11   S    
C28   C29   A    
C56   O3    S    
C12   O6    A    
C30   H25   S    
C36   H9    S    
C4    C7    A    
C5    C6    A    
C19   O4    S    
C9    C22   A    
C66   H1    S    
C68   H29   S    
C18   C19   A    
C54   C55   A    
C31   H2    S    
C44   C46   A    
C16   C17   A    
C68   H30   S    
C71   H36   S    
C49   H7    S    
Cu2   O9    S    
C47   H15   S    
C43   C48   A    
C1    O5    A    
Cu1   O1    S    
C42   C47   A    
C20   N2    A    
C59   C60   A    
C21   C22   A    
C27   C30   A    
C41   C43   A    
C7    C56   A    
C6    C72   S    
C25   C69   S    
C51   H18   S    
C46   H8    S    
C67   H27   S    
C4    C28   A    
C61   H21   S    
Cu1   O6    S    
C32   H3    S    
C21   H22   S    
C26   N2    S    
C38   C39   A    
C75   H41   S    
C7    C31   A    
C22   O15   S    
Cu1   Cu2   S    
C51   C63   A    
C24   C25   A    
C10   C14   A    
C39   C40   A    
C45   O12   S    
C64   O13   S    
C74   H38   S    
C58   C59   A    
C23   C37   S    
C23   O8    A    
C5    C45   A    
C60   C61   A    
C43   C44   A    
C36   C49   A    
C2    H10   S    
C62   N3    A    
C37   C49   A    
C20   O2    S    
C8    C12   S    
C68   H31   S    
C23   O9    A    
C17   C18   A    
C9    C24   A    
C16   C20   A    
C37   C48   A    
C14   H24   S    
O14   C70   S    
C42   C50   A    
C33   H5    S    
C40   C41   A    
C6    C30   A    
C11   C32   A    
C55   C57   A    
C71   H34   S    
C31   C35   A    
C36   C44   A    
C51   C59   A    
Cu2   O7    S    
C70   H33   S    
C73   N7    T    
C45   N1    A    
C52   C53   A    
C24   H4    S    
C72   N6    T    
C1    C50   S    
C46   C47   A    
C65   H26   S    
C40   H13   S    
C52   H19   S    
C39   H14   S    
C4    C5    A    
C2    C66   A    
C10   C13   A    
C69   N5    T    
Cu1   O8    S    
C57   C61   A    
C74   H37   S    
C38   C50   A    
C75   H39   S    
C29   C35   A    
C13   C17   A    
C63   H16   S    
C34   O10   A    
C32   C33   A    
C70   C71   S    
C2    C3    A    
C25   C26   A    
C63   N3    A    
C64   C65   A    
C11   C13   A    
C12   O7    A    
C38   H12   S    
C57   N4    A    
C52   N4    A    
C9    C34   S    
C53   H20   S    
Cu2   O11   S    
C67   C68   S    
C3    C64   A    
Cu1   O10   S    
C18   C33   A    
Cu2   N4    S    
Cu1   N3    S    
C15   H23   S    
C8    C65   A    
C11   C29   A    
C55   C58   A    
C27   C28   A    
C71   H35   S    
C34   O11   A    
C14   C15   A    
C60   H17   S    
C3    N1    S    
C70   H32   S    
C62   O14   S    
C19   N2    A    
C15   C16   A    
