data_mof_unit_57008.cif
_audit_creation_date              2012-10-26T18:27:31-0400
_audit_creation_method            fapswitch 2.2
_symmetry_space_group_name_H-M    P1
_symmetry_Int_Tables_number       1
_space_group_crystal_system       triclinic
_cell_length_a                    10.826355
_cell_length_b                    11.038142
_cell_length_c                    9.807703
_cell_angle_alpha                 110.987561
_cell_angle_beta                  98.723613
_cell_angle_gamma                 90.984798
_cell_volume                      1078.38116849

loop_
_atom_site_label
_atom_site_type_symbol
_atom_type_description
_atom_site_fract_x
_atom_site_fract_y
_atom_site_fract_z
_atom_type_partial_charge
C1    C     C_R   0.490612 0.254062 0.440682 0.560087
C2    C     C_2   0.495592 0.930420 0.483250 -0.165134
C3    C     C_2   0.510507 0.510629 0.081646 -0.035639
C4    C     C_R   0.263455 0.513009 0.504251 0.569974
C5    C     C_2   0.488268 0.490699 0.918668 -0.032504
C6    C     C_R   0.508876 0.745925 0.559327 0.564095
C7    C     C_R   0.737914 0.492173 0.498548 0.549379
C8    C     C_R   0.155133 0.622857 0.789460 0.170734
C9    C     C_R   0.116284 0.607503 0.912723 -0.114978
C10   C     C_R   0.005023 0.535089 0.895929 -0.160465
C11   C     C_R   0.925558 0.488832 0.759390 -0.106827
C12   C     C_R   0.083367 0.556188 0.645520 0.045991
C13   C     C_R   0.958772 0.510763 0.635434 0.002115
C14   C     C_3   0.229332 0.825957 0.775224 -0.296030
C15   C     C_R   0.130431 0.528869 0.510999 -0.009556
C16   C     C_R   0.047049 0.496295 0.376872 -0.173232
C17   C     C_R   0.919520 0.483019 0.373720 -0.165303
C18   C     C_R   0.873499 0.489093 0.501517 -0.008589
C19   C     C_2   0.484967 0.114862 0.407145 -0.129848
C20   C     C_2   0.500520 0.069480 0.516783 -0.164381
C21   C     C_2   0.513261 0.885079 0.592863 -0.135861
Cu1   Cu    Cu3+1 0.521920 0.521810 0.644910 0.938110
Cu2   Cu    Cu3+1 0.478080 0.478190 0.355090 0.925408
H1    H     H_    0.080218 0.480221 0.273416 0.137422
H2    H     H_    0.857118 0.465085 0.269954 0.135097
H3    H     H_    0.477795 0.864792 0.367871 0.152879
H4    H     H_    0.517442 0.135094 0.632169 0.154108
H5    H     H_    0.531046 0.950976 0.708044 0.096793
H6    H     H_    0.316443 0.738086 0.915144 0.243876
H7    H     H_    0.316329 0.889114 0.795849 0.137848
H8    H     H_    0.162555 0.882924 0.844208 0.133892
H9    H     H_    0.188092 0.795980 0.656187 0.148733
H10   H     H_    0.468056 0.048966 0.291947 0.098221
H11   H     H_    0.413619 0.420160 0.845394 0.152619
H12   H     H_    0.584079 0.582404 0.155211 0.146982
H13   H     H_    0.625949 0.619981 0.934516 0.200148
H14   H     H_    0.375607 0.378219 0.065016 0.200941
H15   H     H_    0.171886 0.652657 0.022147 0.106777
H16   H     H_    0.977646 0.519427 0.990403 0.108456
H17   H     H_    0.840717 0.432214 0.751837 0.150093
N1    N     N_2   0.445130 0.445430 0.137370 -0.354744
N2    N     N_2   0.554930 0.554500 0.862630 -0.356928
N3    N     N_2   0.259127 0.713606 0.813527 -0.474155
O1    O     O_R   0.511700 0.332330 0.577400 -0.502848
O2    O     O_R   0.474680 0.295500 0.332650 -0.489670
O3    O     O_R   0.338160 0.518420 0.622400 -0.463050
O4    O     O_R   0.301140 0.481590 0.377650 -0.506653
O5    O     O_R   0.525320 0.704500 0.667350 -0.479654
O6    O     O_R   0.488300 0.667670 0.422600 -0.500005
O7    O     O_R   0.698860 0.518410 0.622350 -0.504425
O8    O     O_R   0.661840 0.481580 0.377600 -0.500298

loop_
_geom_bond_atom_site_label_1
_geom_bond_atom_site_label_2
_ccdc_geom_bond_type
C8    C9    A    
Cu1   O5    S    
C5    N2    D    
C8    N3    S    
Cu2   O2    S    
C20   H4    S    
C9    C10   A    
C1    O1    A    
H13   N2    S    
C19   C20   D    
Cu2   N1    S    
C12   C15   A    
C3    H12   S    
C14   H8    S    
C8    C12   A    
C7    C18   S    
C17   H2    S    
C5    H11   S    
C2    C21   D    
C17   C18   A    
C7    O8    A    
C2    H3    S    
C4    O3    A    
H6    N3    S    
C11   C13   A    
C1    O2    A    
Cu1   N2    S    
C6    O5    A    
C13   C18   A    
C14   H7    S    
C9    H15   S    
Cu1   O3    S    
C21   H5    S    
C6    C21   S    
C4    C15   S    
H14   N1    S    
C11   H17   S    
Cu1   O1    S    
Cu2   O6    S    
Cu2   O4    S    
C10   C11   A    
C2    C20   S    
C15   C16   A    
Cu1   O7    S    
C12   C13   A    
C16   H1    S    
C19   H10   S    
Cu1   Cu2   S    
C16   C17   A    
C1    C19   S    
Cu2   O8    S    
C10   H16   S    
C3    N1    D    
C6    O6    A    
C7    O7    A    
C14   H9    S    
C14   N3    S    
C3    C5    S    
C4    O4    A    
