data_mof_unit_48994.cif
_audit_creation_date              2012-12-10T20:48:19-0500
_audit_creation_method            fapswitch 2.2
_symmetry_space_group_name_H-M    P1
_symmetry_Int_Tables_number       1
_space_group_crystal_system       triclinic
_cell_length_a                    10.924137
_cell_length_b                    9.265904
_cell_length_c                    8.384062
_cell_angle_alpha                 89.253924
_cell_angle_beta                  91.134404
_cell_angle_gamma                 93.53904
_cell_volume                      846.807944554

loop_
_atom_site_label
_atom_site_type_symbol
_atom_type_description
_atom_site_fract_x
_atom_site_fract_y
_atom_site_fract_z
_atom_type_partial_charge
C1    C     C_R   0.495388 0.218283 0.500507 1.054402
C2    C     C_1   0.497207 0.935129 0.498815 -0.220500
C3    C     C_3   0.086656 0.632074 0.555661 0.883487
C4    C     C_3   0.940284 0.632265 0.553153 0.867559
C5    C     C_3   0.120954 0.472337 0.504259 -0.492123
C6    C     C_3   0.879059 0.475018 0.499811 -0.396663
C7    C     C_3   0.201731 0.385682 0.883023 0.080151
C8    C     C_3   0.134592 0.648232 0.156716 -0.107051
C9    C     C_3   0.773727 0.303400 0.853717 -0.105299
C10   C     C_3   0.872962 0.556426 0.074988 -0.023840
C11   C     C_2   0.109518 0.205954 0.656605 0.804701
C12   C     C_R   0.258417 0.483431 0.500674 1.105414
C13   C     C_2   0.113280 0.274015 0.280440 0.881649
C14   C     C_2   0.847207 0.204195 0.583270 0.787613
C15   C     C_2   0.843597 0.300085 0.252283 0.932573
C16   C     C_3   0.238361 0.750700 0.744843 -0.210594
C17   C     C_3   0.132075 0.881811 0.455306 -0.281663
C18   C     C_3   0.923044 0.796794 0.770756 -0.229204
C19   C     C_3   0.790681 0.797539 0.448547 -0.244788
C20   C     C_R   0.741574 0.490247 0.500632 1.058428
C21   C     C_R   0.499346 0.781474 0.499173 0.842679
C22   C     C_1   0.495492 0.064419 0.500627 -0.092318
C23   C     C_3   0.063240 0.358775 0.644570 0.224173
C24   C     C_3   0.067973 0.425307 0.324270 0.225488
C25   C     C_3   0.913580 0.351962 0.626726 0.248155
C26   C     C_3   0.921028 0.436199 0.322340 0.136594
H1    H     H_    0.269123 0.326389 0.817554 0.124366
H2    H     H_    0.929270 0.475257 0.022748 0.262132
H3    H     H_    0.902598 0.662310 0.028538 0.155992
H4    H     H_    0.773675 0.549545 0.048761 0.186813
H5    H     H_    0.130025 0.046972 0.820725 0.307213
H6    H     H_    0.103653 0.102050 0.132101 0.334984
H7    H     H_    0.789704 0.017818 0.683697 0.315290
H8    H     H_    0.681740 0.216802 0.160726 0.339427
H9    H     H_    0.215632 0.849390 0.805721 0.099648
H10   H     H_    0.291756 0.779402 0.638994 0.210235
H11   H     H_    0.299807 0.697408 0.830214 0.181300
H12   H     H_    0.182141 0.315911 0.984166 0.201442
H13   H     H_    0.117258 0.918801 0.575592 0.201362
H14   H     H_    0.060935 0.918465 0.370739 0.233670
H15   H     H_    0.219042 0.937977 0.415969 0.211721
H16   H     H_    0.840116 0.830852 0.830391 0.170771
H17   H     H_    0.951674 0.873386 0.678830 0.238114
H18   H     H_    0.997601 0.799911 0.861635 0.179608
H19   H     H_    0.741013 0.771258 0.559794 0.160561
H20   H     H_    0.736145 0.759898 0.342927 0.218262
H21   H     H_    0.800208 0.916432 0.434649 0.226125
H22   H     H_    0.248542 0.484752 0.930742 0.152091
H23   H     H_    0.227697 0.692981 0.191174 0.197580
H24   H     H_    0.061382 0.711849 0.201026 0.241410
H25   H     H_    0.129004 0.664127 0.026510 0.156800
H26   H     H_    0.816362 0.222568 0.932158 0.214421
H27   H     H_    0.702106 0.250287 0.776867 0.166348
H28   H     H_    0.714029 0.371897 0.917395 0.175069
N1    N     N_1   0.500000 0.500030 0.073640 -0.055222
N2    N     N_1   0.500000 0.500030 0.926360 -0.114321
O1    O     O_R   0.500000 0.285340 0.636850 -0.661464
O2    O     O_3   0.122700 0.497980 0.187291 -0.598254
O3    O     O_3   0.867056 0.393453 0.777675 -0.531667
O4    O     O_3   0.891312 0.563605 0.238504 -0.603324
O5    O     O_2   0.201492 0.174052 0.589741 -0.694830
O6    O     O_R   0.071433 0.122321 0.788754 -0.730926
O7    O     O_2   0.217306 0.244435 0.317263 -0.615371
O8    O     O_R   0.060499 0.193540 0.153799 -0.755402
O9    O     O_2   0.748917 0.201293 0.511383 -0.686743
O10   O     O_R   0.866886 0.084038 0.675717 -0.796181
O11   O     O_2   0.873198 0.176527 0.274755 -0.637507
O12   O     O_R   0.500000 0.285340 0.363150 -0.580523
O13   O     O_R   0.727637 0.313256 0.183190 -0.786068
O14   O     O_3   0.129857 0.661246 0.716594 -0.607966
O15   O     O_3   0.145926 0.731225 0.445149 -0.702104
O16   O     O_3   0.897379 0.656578 0.710877 -0.598865
O17   O     O_3   0.908679 0.744255 0.442526 -0.641422
O18   O     O_R   0.314790 0.499970 0.636880 -0.656255
O19   O     O_R   0.314790 0.499970 0.363120 -0.560402
O20   O     O_R   0.685210 0.499970 0.636880 -0.592600
O21   O     O_R   0.685210 0.499970 0.363120 -0.564056
O22   O     O_R   0.500000 0.714650 0.636900 -0.645679
O23   O     O_R   0.500000 0.714650 0.363100 -0.630095
O24   O     O_3   0.090038 0.418510 0.801033 -0.507135
Zn1   Zn    Zn3+2 0.500000 0.499990 0.682780 0.942066
Zn2   Zn    Zn3+2 0.500000 0.499990 0.317220 1.020536

loop_
_geom_bond_atom_site_label_1
_geom_bond_atom_site_label_2
_ccdc_geom_bond_type
N1    N2    T    
C12   O18   A    
C3    O15   S    
C10   H3    S    
C11   O6    S    
C19   H20   S    
N2    Zn1   S    
C13   O8    S    
C20   O21   A    
C24   C26   S    
C18   H18   S    
C18   H16   S    
C16   H9    S    
C19   H21   S    
C6    C25   S    
C1    O12   A    
C7    H1    S    
C20   O20   A    
C17   H13   S    
C8    O2    S    
C14   O9    D    
C13   O7    D    
C21   O22   A    
C2    C22   T    
C23   O24   S    
C16   H11   S    
C1    C22   S    
H5    O6    S    
C9    H26   S    
H7    O10   S    
C18   O16   S    
C15   O13   S    
C19   O17   S    
C3    O14   S    
C16   O14   S    
H6    O8    S    
C5    C12   S    
C4    C6    S    
C15   C26   S    
C3    C5    S    
C13   C24   S    
C9    O3    S    
C17   H14   S    
C10   O4    S    
C1    O1    A    
C10   H4    S    
C5    C23   S    
C15   O11   D    
C21   O23   A    
C2    C21   S    
C8    H25   S    
C14   O10   S    
N1    Zn2   S    
H8    O13   S    
C4    O17   S    
C17   O15   S    
O1    Zn1   S    
C9    H27   S    
O18   Zn1   S    
C3    C4    S    
C8    H24   S    
C4    O16   S    
C10   H2    S    
C11   O5    D    
O20   Zn1   S    
O23   Zn2   S    
C19   H19   S    
O19   Zn2   S    
C6    C20   S    
O12   Zn2   S    
C7    H22   S    
C18   H17   S    
C16   H10   S    
O22   Zn1   S    
C6    C26   S    
C5    C24   S    
O21   Zn2   S    
C11   C23   S    
C7    H12   S    
C23   C25   S    
C14   C25   S    
C17   H15   S    
C24   O2    S    
C12   O19   A    
C9    H28   S    
C25   O3    S    
C26   O4    S    
C8    H23   S    
C7    O24   S    
