data_mof_unit_41491.cif
_audit_creation_date              2012-10-26T19:06:29-0400
_audit_creation_method            fapswitch 2.2
_symmetry_space_group_name_H-M    P1
_symmetry_Int_Tables_number       1
_space_group_crystal_system       triclinic
_cell_length_a                    12.395692
_cell_length_b                    13.13351
_cell_length_c                    14.311497
_cell_angle_alpha                 77.442794
_cell_angle_beta                  100.609307
_cell_angle_gamma                 116.367897
_cell_volume                      2027.3256162

loop_
_atom_site_label
_atom_site_type_symbol
_atom_type_description
_atom_site_fract_x
_atom_site_fract_y
_atom_site_fract_z
_atom_type_partial_charge
C1    C     C_R   0.854723 0.285849 0.510870 0.564233
C2    C     C_R   0.433732 0.990875 0.507274 0.002499
C3    C     C_R   0.397717 0.062574 0.431568 0.023829
C4    C     C_R   0.001726 0.501937 0.668480 0.548576
C5    C     C_R   0.486240 0.161517 0.385364 -0.117409
C6    C     C_R   0.608097 0.188202 0.412713 -0.111278
C7    C     C_R   0.350626 0.873976 0.529185 0.000289
C8    C     C_R   0.190978 0.917596 0.426939 -0.110125
C9    C     C_R   0.769561 0.163149 0.532325 0.017337
C10   C     C_R   0.315455 0.293875 0.615071 -0.147635
C11   C     C_R   0.768445 0.655665 0.382647 0.011430
C12   C     C_1   0.000958 0.502010 0.228740 -0.033077
C13   C     C_R   0.676250 0.692745 0.354843 -0.012079
C14   C     C_R   0.566864 0.630410 0.396173 -0.076938
C15   C     C_R   0.549004 0.531427 0.465384 -0.067824
C16   C     C_R   0.145244 0.713730 0.491761 0.523776
C17   C     C_R   0.646711 0.497309 0.493188 0.177522
C18   C     C_R   0.438266 0.466290 0.509747 -0.024681
C19   C     C_R   0.419166 0.358626 0.566930 -0.032663
C20   C     C_R   0.507951 0.319831 0.582827 -0.147977
C21   C     C_R   0.625638 0.396477 0.564757 0.311393
C22   C     C_R   0.345018 0.502605 0.501148 0.073416
C23   C     C_R   0.274400 0.029552 0.398461 0.264197
C24   C     C_R   0.231299 0.337550 0.608259 0.082715
C25   C     C_R   0.000281 0.500724 0.331292 0.536972
C26   C     C_1   0.005029 0.505016 0.770796 -0.056168
C27   C     C_1   0.005832 0.505919 0.856263 -0.053553
C28   C     C_1   0.005089 0.505554 0.956938 0.002793
C29   C     C_1   0.003847 0.504645 0.042435 0.007359
C30   C     C_1   0.002164 0.503237 0.143175 -0.033212
C31   C     C_2   0.695873 0.796811 0.282157 0.229645
C32   C     C_3   0.712176 0.372080 0.719687 -0.115568
C33   C     C_3   0.215414 0.173966 0.375996 -0.109180
C34   C     C_R   0.228891 0.837184 0.486229 -0.083932
C35   C     C_2   0.394156 0.787108 0.584336 0.328173
C36   C     C_2   0.924450 0.096233 0.633514 0.225389
C37   C     C_3   0.471215 0.004297 0.741397 -0.136920
C38   C     C_R   0.801299 0.091307 0.610428 -0.028017
C39   C     C_R   0.713072 0.013525 0.670278 -0.101736
C40   C     C_R   0.592240 0.994041 0.645287 0.308993
C41   C     C_R   0.555764 0.035561 0.550198 0.055509
C42   C     C_R   0.645247 0.129043 0.497486 -0.012557
Cu1   Cu    Cu3+1 0.098280 0.475420 0.520190 0.957962
Cu2   Cu    Cu3+1 0.901720 0.524580 0.479810 0.973024
H1    H     H_    0.098124 0.891059 0.394990 0.149286
H2    H     H_    0.151732 0.289903 0.646455 0.151456
H3    H     H_    0.781334 0.843245 0.250726 0.102049
H4    H     H_    0.624240 0.311698 0.747634 0.086537
H5    H     H_    0.736018 0.460603 0.732211 0.137178
H6    H     H_    0.779015 0.342012 0.763293 0.130151
H7    H     H_    0.301173 0.232908 0.411970 0.123701
H8    H     H_    0.147273 0.123944 0.428741 0.164488
H9    H     H_    0.179064 0.227905 0.321287 0.158556
H10   H     H_    0.345784 0.725655 0.643102 0.137079
H11   H     H_    0.957720 0.075887 0.707560 0.083392
H12   H     H_    0.491846 0.236335 0.625550 0.105106
H13   H     H_    0.408345 0.025899 0.683333 0.105046
H14   H     H_    0.547907 0.084139 0.762531 0.114199
H15   H     H_    0.420063 0.958006 0.804998 0.155133
H16   H     H_    0.301692 0.212117 0.660234 0.097023
H17   H     H_    0.348604 0.581070 0.456216 0.144796
H18   H     H_    0.852984 0.702715 0.350463 0.118390
H19   H     H_    0.496036 0.659304 0.371748 0.163514
H20   H     H_    0.461801 0.213734 0.323211 0.161137
H21   H     H_    0.738153 0.968711 0.737500 0.129116
H22   H     H_    0.672831 0.256856 0.367478 0.138573
N1    N     N_R   0.246290 0.438200 0.550780 -0.239172
N2    N     N_R   0.754310 0.561180 0.449760 -0.230187
O1    O     O_R   0.972510 0.318130 0.525390 -0.461210
O2    O     O_3   0.715851 0.371193 0.621349 -0.523977
O3    O     O_3   0.236004 0.101110 0.329223 -0.574349
O4    O     O_2   0.481789 0.781475 0.562318 -0.499578
O5    O     O_2   0.986597 0.115036 0.569352 -0.515285
O6    O     O_3   0.512095 0.931476 0.714137 -0.574084
O7    O     O_R   0.806530 0.359650 0.491290 -0.456547
O8    O     O_R   0.083010 0.479240 0.641000 -0.497827
O9    O     O_R   0.917030 0.520750 0.606900 -0.422927
O10   O     O_R   0.193470 0.640350 0.508710 -0.506297
O11   O     O_R   0.027490 0.681870 0.474610 -0.506899
O12   O     O_R   0.082970 0.479250 0.393100 -0.480441
O13   O     O_R   0.916990 0.520760 0.359000 -0.496424
O14   O     O_2   0.617440 0.832199 0.256602 -0.485204

loop_
_geom_bond_atom_site_label_1
_geom_bond_atom_site_label_2
_ccdc_geom_bond_type
C15   C18   A    
C37   O6    S    
C25   O12   A    
C32   H4    S    
C41   C42   A    
C3    C23   A    
C2    C7    A    
C20   H12   S    
C11   H18   S    
C33   H8    S    
C9    C42   A    
C31   O14   D    
C28   C29   T    
C5    C6    A    
C2    C41   A    
C8    C23   A    
C18   C19   A    
C8    H1    S    
C24   N1    A    
C16   C34   S    
C19   C20   A    
C37   H14   S    
Cu1   O1    S    
C31   H3    S    
C13   C14   A    
C35   H10   S    
C25   O13   A    
C39   H21   S    
C33   H9    S    
C22   N1    A    
C1    O7    A    
C23   O3    S    
C1    C9    S    
Cu2   O13   S    
C39   C40   A    
C32   O2    S    
C10   C24   A    
Cu1   O12   S    
C17   C21   A    
C5    H20   S    
Cu1   O10   S    
Cu2   O7    S    
C10   H16   S    
Cu1   Cu2   S    
C29   C30   S    
C10   C19   A    
C26   C27   T    
C8    C34   A    
C32   H6    S    
C37   H15   S    
C40   C41   A    
C35   O4    D    
C7    C34   A    
Cu2   N2    S    
C11   N2    A    
Cu1   O8    S    
C15   C17   A    
Cu2   O9    S    
C17   N2    A    
C12   C30   T    
C18   C22   A    
C7    C35   S    
C13   C31   S    
Cu2   O11   S    
C3    C5    A    
C4    C26   S    
C33   H7    S    
C12   C25   S    
C21   O2    S    
C16   O11   A    
C24   H2    S    
C36   C38   S    
C2    C3    A    
C4    O9    A    
C36   H11   S    
C22   H17   S    
C11   C13   A    
C38   C39   A    
C14   H19   S    
C9    C38   A    
C40   O6    S    
C16   O10   A    
C1    O1    A    
C32   H5    S    
C4    O8    A    
C36   O5    D    
C33   O3    S    
C6    H22   S    
C20   C21   A    
Cu1   N1    S    
C6    C42   A    
C27   C28   S    
C14   C15   A    
C37   H13   S    
