data_mof_unit_40525.cif
_audit_creation_date              2012-12-10T17:35:02-0500
_audit_creation_method            fapswitch 2.2
_symmetry_space_group_name_H-M    P1
_symmetry_Int_Tables_number       1
_space_group_crystal_system       triclinic
_cell_length_a                    11.987688
_cell_length_b                    12.852224
_cell_length_c                    15.720612
_cell_angle_alpha                 90.269037
_cell_angle_beta                  86.963489
_cell_angle_gamma                 93.684912
_cell_volume                      2413.64734592

loop_
_atom_site_label
_atom_site_type_symbol
_atom_type_description
_atom_site_fract_x
_atom_site_fract_y
_atom_site_fract_z
_atom_type_partial_charge
C1    C     C_R   0.522444 0.700427 0.499543 0.888255
C2    C     C_R   0.536737 0.811819 0.497390 -0.092387
C3    C     C_R   0.638955 0.969071 0.446681 0.127638
C4    C     C_R   0.500805 0.500064 0.661671 0.905376
C5    C     C_R   0.632574 0.861444 0.457734 -0.242029
C6    C     C_R   0.448637 0.867903 0.529731 -0.256349
C7    C     C_R   0.451961 0.974366 0.518955 0.030955
C8    C     C_R   0.547839 0.025558 0.477083 0.104996
C9    C     C_R   0.551366 0.132502 0.468031 -0.269138
C10   C     C_R   0.367540 0.138071 0.540499 -0.308533
C11   C     C_R   0.360399 0.030432 0.548447 0.464472
C12   C     C_3   0.424141 0.576637 0.051819 -0.467569
C13   C     C_R   0.952055 0.398269 0.421773 -0.005841
C14   C     C_R   0.835733 0.409679 0.429711 -0.015769
C15   C     C_R   0.859668 0.542968 0.533163 -0.062158
C16   C     C_R   0.477601 0.299602 0.500501 0.910994
C17   C     C_R   0.976512 0.535268 0.527819 0.058453
C18   C     C_R   0.023637 0.462371 0.471362 0.066547
C19   C     C_R   0.141276 0.456313 0.466469 -0.039979
C20   C     C_R   0.162855 0.589505 0.570365 0.025723
C21   C     C_R   0.046943 0.598601 0.577674 -0.318986
C22   C     C_R   0.499137 0.499563 0.338318 0.906599
C23   C     C_3   0.496609 0.489463 0.082836 0.208426
C24   C     C_3   0.421380 0.571949 0.953788 -0.507906
C25   C     C_3   0.619868 0.515837 0.947115 -0.376644
C26   C     C_3   0.617036 0.521090 0.044966 -0.480054
C27   C     C_1   0.496770 0.496225 0.249574 -0.185292
C28   C     C_3   0.500424 0.489459 0.917136 0.219857
C29   C     C_3   0.606752 0.288493 0.093727 0.138124
C30   C     C_3   0.636023 0.177549 0.113675 -0.327939
C31   C     C_3   0.760290 0.172869 0.128965 -1.001825
C32   C     C_3   0.184314 0.959693 0.532852 0.057166
C33   C     C_3   0.084098 0.901097 0.579026 -0.308175
C34   C     C_3   0.446243 0.379012 0.049888 0.526886
C35   C     C_3   0.992868 0.869489 0.518038 -0.975413
C36   C     C_3   0.488455 0.239835 0.853052 0.099275
C37   C     C_3   0.418117 0.145340 0.889916 -0.363577
C38   C     C_3   0.375495 0.073882 0.819173 -0.919075
C39   C     C_3   0.457278 0.378451 0.949275 0.295570
C40   C     C_1   0.495776 0.492829 0.174321 -0.041647
C41   C     C_1   0.502261 0.493739 0.825672 -0.074904
C42   C     C_1   0.502257 0.497241 0.750412 -0.205273
C43   C     C_R   0.463422 0.188243 0.501495 -0.127380
H1    H     H_    0.460023 0.654845 0.070980 0.195229
H2    H     H_    0.217211 0.638595 0.608666 0.128613
H3    H     H_    0.012627 0.654485 0.621963 0.146571
H4    H     H_    0.779400 0.361389 0.392335 0.128068
H5    H     H_    0.822168 0.598539 0.576114 0.132179
H6    H     H_    0.677761 0.456426 0.923829 0.200230
H7    H     H_    0.653670 0.592288 0.920409 0.174800
H8    H     H_    0.641151 0.602742 0.064000 0.192021
H9    H     H_    0.684021 0.476899 0.070116 0.150857
H10   H     H_    0.371945 0.362306 0.924828 0.017393
H11   H     H_    0.630864 0.338091 0.148576 0.132480
H12   H     H_    0.334201 0.552347 0.935237 0.173582
H13   H     H_    0.654901 0.312984 0.034318 0.182773
H14   H     H_    0.586245 0.148994 0.171574 0.224978
H15   H     H_    0.614360 0.125398 0.059560 0.228184
H16   H     H_    0.811906 0.199711 0.071509 0.270576
H17   H     H_    0.778666 0.091300 0.142963 0.267478
H18   H     H_    0.783155 0.222640 0.184162 0.261613
H19   H     H_    0.798617 0.968499 0.392227 0.179222
H20   H     H_    0.712661 0.044630 0.344335 0.175633
H21   H     H_    0.215926 0.909852 0.479697 0.143101
H22   H     H_    0.156242 0.033334 0.506284 0.141272
H23   H     H_    0.337906 0.570925 0.081761 0.191262
H24   H     H_    0.112323 0.830036 0.609175 0.217279
H25   H     H_    0.048920 0.951538 0.630040 0.226166
H26   H     H_    0.963057 0.939607 0.487540 0.266728
H27   H     H_    0.920975 0.828172 0.553793 0.264293
H28   H     H_    0.025354 0.816314 0.467998 0.270206
H29   H     H_    0.933619 0.287534 0.328319 0.179249
H30   H     H_    0.026257 0.263600 0.400791 0.180185
H31   H     H_    0.560648 0.211495 0.814377 0.166010
H32   H     H_    0.439592 0.283749 0.808546 0.126137
H33   H     H_    0.469860 0.100813 0.931672 0.233380
H34   H     H_    0.623992 0.173543 0.436835 0.181523
H35   H     H_    0.345330 0.171808 0.929007 0.214801
H36   H     H_    0.322070 0.116502 0.777394 0.273839
H37   H     H_    0.324890 0.006164 0.847638 0.264451
H38   H     H_    0.446858 0.044552 0.780125 0.267385
H39   H     H_    0.294903 0.292217 0.067871 0.196527
H40   H     H_    0.277743 0.414395 0.039859 0.126119
H41   H     H_    0.299941 0.182209 0.567130 0.174334
H42   H     H_    0.700178 0.816175 0.432701 0.158728
H43   H     H_    0.376075 0.827681 0.561815 0.193991
H44   H     H_    0.180560 0.401738 0.423689 0.148967
H45   H     H_    0.447543 0.650354 0.927009 0.206462
N1    N     N_R   0.207800 0.519340 0.515510 -0.105913
N2    N     N_R   0.792190 0.480660 0.484490 -0.109384
N3    N     N_3   0.736155 0.020694 0.403933 -0.478728
N4    N     N_3   0.996947 0.322642 0.364026 -0.468433
N5    N     N_3   0.325907 0.369266 0.076934 -0.458286
O1    O     O_R   0.421690 0.658830 0.504140 -0.628356
O2    O     O_3   0.268043 0.981546 0.591420 -0.655058
O3    O     O_3   0.532004 0.302935 0.919200 -0.645828
O4    O     O_R   0.609320 0.646410 0.494190 -0.624480
O5    O     O_R   0.406150 0.506210 0.627840 -0.620949
O6    O     O_R   0.593770 0.493790 0.617880 -0.611048
O7    O     O_R   0.390680 0.353590 0.505810 -0.628688
O8    O     O_R   0.578310 0.341170 0.495860 -0.625070
O9    O     O_R   0.406230 0.506210 0.382120 -0.608824
O10   O     O_R   0.593850 0.493790 0.372160 -0.623451
O11   O     O_3   0.490251 0.288111 0.085130 -0.628140
Zn1   Zn    Zn3+2 0.374720 0.508290 0.506640 0.942672
Zn2   Zn    Zn3+2 0.625280 0.491710 0.493360 0.941618

loop_
_geom_bond_atom_site_label_1
_geom_bond_atom_site_label_2
_ccdc_geom_bond_type
O1    Zn1   S    
C4    O5    A    
C41   C42   T    
C31   H18   S    
C34   N5    S    
C7    C8    A    
C25   C28   S    
C7    C11   A    
C12   C23   S    
O7    Zn1   S    
C29   C30   S    
O5    Zn1   S    
C4    C42   S    
C13   C18   A    
C36   C37   S    
C18   C19   A    
C19   H44   S    
C30   C31   S    
H29   N4    S    
C38   H36   S    
C23   C40   S    
H40   N5    S    
C30   H14   S    
C28   C41   S    
O9    Zn1   S    
C3    N3    S    
C1    C2    S    
C23   C26   S    
C31   H16   S    
C25   H7    S    
C14   N2    A    
C35   H27   S    
C8    C9    A    
C20   H2    S    
C5    H42   S    
C35   H28   S    
H39   N5    S    
C13   C14   A    
C2    C6    A    
C15   H5    S    
C25   H6    S    
C9    C43   A    
C34   C39   S    
C32   H21   S    
C3    C8    A    
C1    O4    A    
C16   O7    A    
C28   C39   S    
C25   C26   S    
C12   H23   S    
C34   O11   S    
C22   O10   A    
C29   O11   S    
C24   H12   S    
C31   H17   S    
C37   C38   S    
C19   N1    A    
C36   H32   S    
C26   H9    S    
C36   O3    S    
C27   C40   T    
C23   C34   S    
H19   N3    S    
C17   C18   A    
C9    H34   S    
C24   H45   S    
C16   C43   S    
N2    Zn2   S    
C6    C7    A    
C36   H31   S    
O4    Zn2   S    
C37   H33   S    
C22   C27   S    
C13   N4    S    
C2    C5    A    
H20   N3    S    
C33   H24   S    
C21   H3    S    
C37   H35   S    
C11   O2    S    
O8    Zn2   S    
C15   C17   A    
O6    Zn2   S    
C10   C43   A    
C24   C28   S    
H30   N4    S    
C3    C5    A    
C6    H43   S    
C1    O1    A    
C14   H4    S    
C29   H13   S    
C20   N1    A    
C12   C24   S    
C22   O9    A    
C32   C33   S    
C38   H38   S    
C26   H8    S    
C15   N2    A    
C39   H10   S    
C38   H37   S    
C30   H15   S    
C10   H41   S    
C33   C35   S    
O10   Zn2   S    
C17   C21   A    
C39   O3    S    
C10   C11   A    
C16   O8    A    
C32   O2    S    
C20   C21   A    
C35   H26   S    
C12   H1    S    
C29   H11   S    
C4    O6    A    
N1    Zn1   S    
C33   H25   S    
C32   H22   S    
