data_mof_unit_58878.cif
_audit_creation_date              2012-12-10T16:35:54-0500
_audit_creation_method            fapswitch 2.2
_symmetry_space_group_name_H-M    P1
_symmetry_Int_Tables_number       1
_space_group_crystal_system       triclinic
_cell_length_a                    14.140209
_cell_length_b                    16.444662
_cell_length_c                    13.14535
_cell_angle_alpha                 89.88813
_cell_angle_beta                  107.346685
_cell_angle_gamma                 90.090902
_cell_volume                      2917.66932866

loop_
_atom_site_label
_atom_site_type_symbol
_atom_type_description
_atom_site_fract_x
_atom_site_fract_y
_atom_site_fract_z
_atom_type_partial_charge
C1    C     C_R   0.313865 0.845008 0.475454 0.928529
C2    C     C_R   0.685633 0.843247 0.524811 0.758397
C3    C     C_R   0.186698 0.655553 0.522691 0.764086
C4    C     C_R   0.185631 0.343245 0.524813 0.758389
C5    C     C_R   0.547273 0.000152 0.785993 0.741583
C6    C     C_R   0.047272 0.500146 0.785992 0.741731
C7    C     C_R   0.452290 0.000088 0.214896 0.711022
C8    C     C_R   0.952299 0.500089 0.214896 0.711160
C9    C     C_2   0.430559 0.000412 0.098963 0.366879
C10   C     C_2   0.930577 0.500417 0.098969 0.366945
C11   C     C_2   0.506200 0.988796 0.059074 -0.230757
C12   C     C_R   0.314026 0.155247 0.475329 0.929381
C13   C     C_2   0.006200 0.488730 0.059070 -0.231127
C14   C     C_2   0.567447 0.999551 0.902492 0.304834
C15   C     C_2   0.067449 0.499525 0.902490 0.304931
C16   C     C_2   0.491474 0.993251 0.943731 -0.217299
C17   C     C_2   0.991476 0.493230 0.943733 -0.217482
C18   C     C_2   0.764115 0.215624 0.528184 0.298445
C19   C     C_2   0.758859 0.778424 0.538500 0.303491
C20   C     C_2   0.264109 0.715632 0.528195 0.298469
C21   C     C_2   0.258845 0.278413 0.538517 0.303478
C22   C     C_3   0.695341 0.082595 0.985821 0.083847
C23   C     C_R   0.813867 0.345007 0.475456 0.928539
C24   C     C_3   0.802002 0.084830 0.058863 -0.310661
C25   C     C_3   0.838948 0.172011 0.082983 -0.972523
C26   C     C_3   0.195313 0.582524 0.986040 0.083954
C27   C     C_3   0.302229 0.584706 0.058423 -0.310476
C28   C     C_3   0.339126 0.671870 0.082849 -0.972761
C29   C     C_3   0.260324 0.982037 0.052187 0.087222
C30   C     C_3   0.251281 0.897042 0.001979 -0.360969
C31   C     C_3   0.161340 0.851387 0.014502 -0.966776
C32   C     C_3   0.760362 0.482044 0.051954 0.087024
C33   C     C_3   0.751229 0.397261 0.001155 -0.360607
C34   C     C_R   0.814025 0.655246 0.475328 0.929389
C35   C     C_3   0.661308 0.351459 0.013478 -0.967091
C36   C     C_3   0.411659 0.650365 0.556441 0.094426
C37   C     C_3   0.519724 0.649696 0.625906 -0.329816
C38   C     C_3   0.581014 0.589081 0.584383 -0.937236
C39   C     C_3   0.331040 0.254837 0.715532 0.099798
C40   C     C_3   0.431031 0.240472 0.799184 -0.348610
C41   C     C_3   0.417978 0.211297 0.904468 -0.922545
C42   C     C_3   0.911648 0.150340 0.556371 0.094448
C43   C     C_3   0.019722 0.149646 0.625813 -0.329838
C44   C     C_3   0.080984 0.089036 0.584243 -0.937190
C45   C     C_2   0.240959 0.782694 0.468297 -0.417904
C46   C     C_3   0.831140 0.754880 0.715514 0.099808
C47   C     C_3   0.931162 0.740356 0.799045 -0.348643
C48   C     C_3   0.918176 0.711159 0.904351 -0.922447
C49   C     C_2   0.241796 0.218330 0.466846 -0.419296
C50   C     C_2   0.740961 0.282693 0.468301 -0.417881
C51   C     C_2   0.741793 0.718327 0.466848 -0.419267
C52   C     C_R   0.686699 0.155552 0.522688 0.764073
H1    H     H_    0.415915 0.992088 0.890922 0.192864
H2    H     H_    0.692424 0.113361 0.909278 0.143662
H3    H     H_    0.806181 0.053322 0.134984 0.220269
H4    H     H_    0.850837 0.052335 0.020005 0.232049
H5    H     H_    0.836058 0.204589 0.008006 0.271835
H6    H     H_    0.916822 0.171452 0.135175 0.268294
H7    H     H_    0.792911 0.204912 0.124781 0.272717
H8    H     H_    0.147858 0.615877 0.026190 0.136493
H9    H     H_    0.191867 0.613596 0.909540 0.143178
H10   H     H_    0.306969 0.552879 0.134477 0.220361
H11   H     H_    0.350740 0.552501 0.018889 0.232071
H12   H     H_    0.915916 0.492105 0.890925 0.192801
H13   H     H_    0.335644 0.704770 0.007934 0.271857
H14   H     H_    0.417197 0.671278 0.134498 0.268312
H15   H     H_    0.293451 0.704471 0.125344 0.272699
H16   H     H_    0.190887 0.015926 0.013841 0.171340
H17   H     H_    0.265944 0.978250 0.138346 0.113543
H18   H     H_    0.244233 0.902884 0.915769 0.234391
H19   H     H_    0.319012 0.861157 0.040669 0.225519
H20   H     H_    0.168286 0.842780 0.100263 0.266203
H21   H     H_    0.156386 0.790694 0.976352 0.263700
H22   H     H_    0.092254 0.885513 0.975536 0.269485
H23   H     H_    0.579807 0.976182 0.112539 0.155314
H24   H     H_    0.690952 0.516046 0.013867 0.171308
H25   H     H_    0.766000 0.477884 0.138093 0.113583
H26   H     H_    0.744093 0.403468 0.914965 0.234365
H27   H     H_    0.818959 0.361283 0.039523 0.225434
H28   H     H_    0.668324 0.342512 0.099199 0.266170
H29   H     H_    0.656304 0.290918 0.974931 0.263723
H30   H     H_    0.592223 0.385672 0.974798 0.269498
H31   H     H_    0.409708 0.668086 0.473826 0.141825
H32   H     H_    0.380499 0.588021 0.555236 0.153063
H33   H     H_    0.551978 0.711508 0.626761 0.210545
H34   H     H_    0.079786 0.476035 0.112523 0.155329
H35   H     H_    0.523259 0.632983 0.708943 0.233512
H36   H     H_    0.550608 0.526682 0.583618 0.270641
H37   H     H_    0.658641 0.589378 0.637121 0.273412
H38   H     H_    0.580805 0.605904 0.502442 0.260642
H39   H     H_    0.288794 0.196477 0.703468 0.140012
H40   H     H_    0.289351 0.301682 0.745643 0.156702
H41   H     H_    0.473233 0.193905 0.769468 0.213866
H42   H     H_    0.474432 0.297948 0.812936 0.234787
H43   H     H_    0.378154 0.257823 0.937132 0.274501
H44   H     H_    0.491707 0.200732 0.963077 0.256227
H45   H     H_    0.666700 0.293597 0.415689 0.131672
H46   H     H_    0.375534 0.153421 0.892651 0.291101
H47   H     H_    0.909683 0.168072 0.473757 0.141837
H48   H     H_    0.880474 0.088001 0.555157 0.153043
H49   H     H_    0.051989 0.211454 0.626688 0.210540
H50   H     H_    0.023273 0.132913 0.708847 0.233506
H51   H     H_    0.050564 0.026640 0.583452 0.270647
H52   H     H_    0.158617 0.089311 0.636968 0.273444
H53   H     H_    0.080766 0.105882 0.502307 0.260613
H54   H     H_    0.788763 0.696584 0.703464 0.139896
H55   H     H_    0.789610 0.801787 0.745730 0.156815
H56   H     H_    0.674871 0.715907 0.399579 0.127039
H57   H     H_    0.973210 0.693741 0.769203 0.213921
H58   H     H_    0.974693 0.797767 0.812819 0.234737
H59   H     H_    0.878555 0.757746 0.937170 0.274505
H60   H     H_    0.991922 0.700427 0.962847 0.256097
H61   H     H_    0.875560 0.653368 0.892503 0.291118
H62   H     H_    0.166707 0.793586 0.415658 0.131672
H63   H     H_    0.174898 0.215932 0.399546 0.127039
H64   H     H_    0.647579 0.116217 0.025340 0.136317
O1    O     O_3   0.500010 1.000000 0.500000 -0.481985
O2    O     O_R   0.103010 0.337110 0.452470 -0.659364
O3    O     O_R   0.316670 0.095240 0.537470 -0.655023
O4    O     O_R   0.316670 0.904760 0.537470 -0.628573
O5    O     O_R   0.816670 0.595240 0.537470 -0.655016
O6    O     O_R   0.816670 0.404760 0.537470 -0.628610
O7    O     O_R   0.703490 0.904800 0.585920 -0.627766
O8    O     O_R   0.703490 0.095200 0.585920 -0.626850
O9    O     O_R   0.203490 0.404800 0.585920 -0.627752
O10   O     O_R   0.203490 0.595200 0.585920 -0.626831
O11   O     O_R   0.458050 1.000000 0.725250 -0.664485
O12   O     O_3   0.000010 0.500000 0.500000 -0.482010
O13   O     O_R   0.958050 0.500000 0.725250 -0.664564
O14   O     O_R   0.461630 0.932310 0.264690 -0.658888
O15   O     O_R   0.461630 0.067690 0.264690 -0.629474
O16   O     O_R   0.961630 0.432310 0.264690 -0.658922
O17   O     O_R   0.961630 0.567690 0.264690 -0.629390
O18   O     O_R   0.618750 1.000000 0.745380 -0.615723
O19   O     O_R   0.118750 0.500000 0.745380 -0.615597
O20   O     O_3   0.664465 0.000766 0.968035 -0.627635
O21   O     O_3   0.164478 0.500703 0.968010 -0.627632
O22   O     O_3   0.339156 0.026269 0.032629 -0.656961
O23   O     O_R   0.376880 0.837120 0.424150 -0.648743
O24   O     O_3   0.839228 0.526407 0.032674 -0.656882
O25   O     O_3   0.358054 0.706078 0.599557 -0.631453
O26   O     O_3   0.347523 0.281932 0.620180 -0.632002
O27   O     O_3   0.858071 0.206056 0.599519 -0.631474
O28   O     O_3   0.847561 0.781965 0.620126 -0.632004
O29   O     O_R   0.376880 0.162880 0.424150 -0.624206
O30   O     O_R   0.876880 0.337120 0.424150 -0.648724
O31   O     O_R   0.876880 0.662880 0.424150 -0.624171
O32   O     O_R   0.603010 0.162890 0.452470 -0.656622
O33   O     O_R   0.603010 0.837110 0.452470 -0.659347
O34   O     O_R   0.103010 0.662890 0.452470 -0.656632
Zn1   Zn    Zn3+2 0.485630 0.096680 0.411850 0.977352
Zn2   Zn    Zn3+2 0.485630 0.903320 0.411850 0.950028
Zn3   Zn    Zn3+2 0.985630 0.596680 0.411850 0.977397
Zn4   Zn    Zn3+2 0.985630 0.403320 0.411850 0.950010
Zn5   Zn    Zn3+2 0.399590 1.000000 0.573760 0.965795
Zn6   Zn    Zn3+2 0.899590 0.500000 0.573760 0.965734
Zn7   Zn    Zn3+2 0.629190 1.000000 0.602520 0.988107
Zn8   Zn    Zn3+2 0.129190 0.500000 0.602520 0.988153

loop_
_geom_bond_atom_site_label_1
_geom_bond_atom_site_label_2
_ccdc_geom_bond_type
C19   O28   S    
O5    Zn6   S    
C35   H28   S    
O15   Zn1   S    
O32   Zn1   S    
C40   H41   S    
C43   C44   S    
C26   O21   S    
C21   C49   D    
C30   H19   S    
C44   H52   S    
C3    O10   A    
C18   C52   S    
C22   H2    S    
C44   H53   S    
C24   H3    S    
C29   O22   S    
C38   H37   S    
C34   C51   S    
C29   C30   S    
C10   O24   S    
C4    O9    A    
O17   Zn3   S    
C37   H33   S    
C36   C37   S    
C26   H9    S    
C21   O26   S    
C32   O24   S    
C17   H12   S    
C30   C31   S    
C33   H26   S    
C31   H21   S    
C41   H44   S    
O18   Zn7   S    
C36   H31   S    
C29   H16   S    
O23   Zn2   S    
C15   C17   D    
C9    O22   S    
C16   H1    S    
C7    O14   A    
C6    C15   S    
C45   H62   S    
C44   H51   S    
C51   H56   S    
C3    O34   A    
O34   Zn3   S    
C13   H34   S    
O1    Zn5   S    
O16   Zn4   S    
C7    O15   A    
C20   C45   D    
C1    O23   A    
O12   Zn4   S    
C2    O33   A    
C22   H64   S    
C32   H25   S    
C52   O32   A    
O19   Zn8   S    
O8    Zn7   S    
C4    O2    A    
C25   H5    S    
C6    O13   A    
C39   H39   S    
C30   H18   S    
C35   H30   S    
C12   C49   S    
C23   O6    A    
C29   H17   S    
O10   Zn8   S    
C35   H29   S    
C5    O18   A    
C23   O30   A    
O1    Zn7   S    
C28   H15   S    
C24   C25   S    
C18   O27   S    
O33   Zn2   S    
O11   Zn5   S    
C39   C40   S    
O12   Zn6   S    
O9    Zn8   S    
C33   H27   S    
C31   H22   S    
C46   O28   S    
O7    Zn7   S    
C47   H57   S    
O4    Zn5   S    
C22   O20   S    
C1    O4    A    
C12   O29   A    
C28   H14   S    
C36   O25   S    
C43   H49   S    
C8    O16   A    
C37   C38   S    
C27   H10   S    
C42   H48   S    
C12   O3    A    
C11   C16   S    
C47   C48   S    
O30   Zn4   S    
C39   O26   S    
C46   H55   S    
C5    O11   A    
C26   C27   S    
C3    C20   S    
O1    Zn1   S    
C9    C11   D    
C5    C14   S    
O29   Zn1   S    
C27   H11   S    
O12   Zn3   S    
C40   C41   S    
C48   H60   S    
C34   O5    A    
O14   Zn2   S    
C14   C16   D    
C6    O19   A    
C34   O31   A    
C25   H6    S    
C39   H40   S    
C42   O27   S    
C18   C50   D    
C2    C19   S    
C7    C9    S    
C46   C47   S    
C31   H20   S    
C50   H45   S    
O3    Zn5   S    
C49   H63   S    
C8    O17   A    
O6    Zn6   S    
C20   O25   S    
C37   H35   S    
C40   H42   S    
C23   C50   S    
C10   C13   D    
C32   H24   S    
O13   Zn6   S    
C24   H4    S    
C47   H58   S    
C38   H38   S    
C13   C17   S    
C32   C33   S    
C28   H13   S    
C43   H50   S    
C11   H23   S    
C42   H47   S    
C4    C21   S    
C52   O8    A    
C1    C45   S    
C41   H43   S    
C14   O20   S    
C36   H32   S    
C46   H54   S    
C33   C35   S    
O2    Zn4   S    
O1    Zn2   S    
C22   C24   S    
O31   Zn3   S    
O12   Zn8   S    
C19   C51   D    
C48   H59   S    
C8    C10   S    
C42   C43   S    
C38   H36   S    
C27   C28   S    
C41   H46   S    
C25   H7    S    
C26   H8    S    
C2    O7    A    
C48   H61   S    
C15   O21   S    
