data_mof_unit_34541.cif
_audit_creation_date              2012-12-11T14:29:45-0500
_audit_creation_method            fapswitch 2.2
_symmetry_space_group_name_H-M    P1
_symmetry_Int_Tables_number       1
_space_group_crystal_system       triclinic
_cell_length_a                    6.936499
_cell_length_b                    14.66469
_cell_length_c                    16.377145
_cell_angle_alpha                 90.374953
_cell_angle_beta                  89.544974
_cell_angle_gamma                 90.030011
_cell_volume                      1665.82112491

loop_
_atom_site_label
_atom_site_type_symbol
_atom_type_description
_atom_site_fract_x
_atom_site_fract_y
_atom_site_fract_z
_atom_type_partial_charge
O1    O     O_R   0.494400 0.416610 0.413880 -0.541202
O2    O     O_R   0.823920 0.406790 0.585520 -0.558530
O3    O     O_R   0.994250 0.583390 0.586120 -0.534393
C1    C     C_R   0.653844 0.383094 0.611752 0.680130
O4    O     O_R   0.824110 0.405730 0.414490 -0.549536
O5    O     O_R   0.994440 0.582310 0.413870 -0.536056
C2    C     C_R   0.655221 0.382497 0.387569 0.726776
O6    O     O_R   0.494210 0.417690 0.586130 -0.518719
O7    O     O_3   0.660810 0.557940 0.500000 -0.365041
V1    V     V_3+5 0.935650 0.489250 0.500000 1.500284
O8    O     O_R   0.324160 0.593210 0.414480 -0.529865
C3    C     C_R   0.156928 0.609966 0.382800 0.853305
O9    O     O_R   0.323970 0.594270 0.585510 -0.533559
C4    C     C_R   0.154029 0.618698 0.612179 0.790398
V2    V     V_3+5 0.435660 0.510750 0.500000 1.539924
O10   O     O_3   0.160630 0.442060 0.500000 -0.373547
H1    H     H_    0.344906 0.936353 0.524651 0.168558
C5    C     C_R   0.024190 0.566536 0.772587 -0.151094
C6    C     C_R   0.958834 0.538061 0.848912 -0.119176
C7    C     C_R   0.945184 0.599906 0.913238 -0.084155
C8    C     C_R   0.997869 0.690589 0.901858 -0.127318
C9    C     C_R   0.063485 0.721833 0.824861 0.065610
C10   C     C_R   0.075603 0.658761 0.758367 0.058457
C11   C     C_R   0.123006 0.813412 0.814486 -0.150387
C12   C     C_R   0.194407 0.842244 0.737523 0.029002
C13   C     C_R   0.191407 0.781842 0.668513 -0.000598
C14   C     C_R   0.139570 0.687953 0.679868 -0.172624
C15   C     C_R   0.262883 0.932665 0.727388 -0.151465
C16   C     C_R   0.326243 0.963682 0.652149 -0.173505
C17   C     C_R   0.309263 0.908463 0.583984 -0.102330
C18   C     C_R   0.235370 0.820267 0.590618 0.360915
H2    H     H_    0.034411 0.514911 0.725347 0.105231
H3    H     H_    0.919501 0.467405 0.858243 0.125724
H4    H     H_    0.895385 0.577325 0.972576 0.147875
H5    H     H_    0.988623 0.735405 0.954461 0.125312
H6    H     H_    0.267428 0.981467 0.776951 0.138315
H7    H     H_    0.379507 0.032692 0.645971 0.199119
C19   C     C_2   0.988244 0.698634 0.276565 -0.137920
C20   C     C_2   0.153567 0.673896 0.313039 -0.292227
H8    H     H_    0.853807 0.669609 0.298877 0.176891
H9    H     H_    0.291461 0.698933 0.291255 0.157901
C21   C     C_2   0.972056 0.761593 0.205574 0.398296
C22   C     C_2   0.119972 0.814118 0.177676 -0.340713
H10   H     H_    0.259543 0.809905 0.206532 0.147055
C23   C     C_2   0.774368 0.207555 0.779739 -0.075714
C24   C     C_2   0.616266 0.187021 0.824047 -0.257586
H11   H     H_    0.908207 0.171412 0.790740 0.148890
H12   H     H_    0.486340 0.227366 0.817868 0.187199
C25   C     C_2   0.780669 0.283851 0.720284 -0.192332
C26   C     C_2   0.635626 0.306517 0.669542 0.237033
H13   H     H_    0.915356 0.321522 0.716780 0.129488
C27   C     C_2   0.767985 0.206155 0.216893 -0.174038
C28   C     C_2   0.613183 0.191514 0.168545 0.225637
H14   H     H_    0.893068 0.162177 0.209918 0.132133
C29   C     C_2   0.786275 0.281354 0.278013 -0.070124
C30   C     C_2   0.639249 0.308975 0.326085 -0.242515
H15   H     H_    0.928630 0.310507 0.286807 0.155712
H16   H     H_    0.500084 0.275711 0.321549 0.186775
O11   O     O_R   0.770210 0.079270 0.910680 -0.545732
O12   O     O_R   0.440150 0.091160 0.082270 -0.515951
O13   O     O_R   0.269970 0.914530 0.082860 -0.534114
C31   C     C_R   0.608422 0.115101 0.108917 0.698229
O14   O     O_R   0.440480 0.090100 0.911240 -0.546354
O15   O     O_R   0.270310 0.913460 0.910610 -0.545166
C32   C     C_R   0.609803 0.113266 0.884676 0.719619
O16   O     O_R   0.769870 0.080340 0.082930 -0.554842
O17   O     O_3   0.603660 0.938980 0.996790 -0.353278
V3    V     V_3+5 0.328750 0.007610 0.996740 1.516325
O18   O     O_R   0.940600 0.902510 0.911180 -0.541743
C33   C     C_R   0.110297 0.879855 0.883656 0.670321
O19   O     O_R   0.940270 0.903570 0.082200 -0.506610
C34   C     C_R   0.108322 0.880734 0.109704 0.783143
V4    V     V_3+5 0.828770 0.986010 0.996670 1.520421
O20   O     O_3   0.103730 0.054750 0.996710 -0.375352
Cl1   Cl    Cl    0.741528 0.763212 0.160290 -0.667165
Cl2   Cl    Cl    0.423154 0.240152 0.660885 -0.702936
Cl3   Cl    Cl    0.416397 0.268322 0.165519 -0.666827
Cl4   Cl    Cl    0.165594 0.772641 0.497605 -0.693659

loop_
_geom_bond_atom_site_label_1
_geom_bond_atom_site_label_2
_ccdc_geom_bond_type
C29   C30   D    
O14   C32   A    
C22   C34   S    
V4    O20   S    
O2    C1    A    
C6    C7    A    
C1    O6    A    
C11   C33   S    
C20   H9    S    
C23   C24   D    
C12   C15   A    
C21   Cl1   S    
O15   V3    S    
C15   C16   A    
C19   C21   S    
O5    C3    A    
C17   C18   A    
V3    O20   S    
V2    O10   S    
O12   C31   A    
C5    C6    A    
O8    V2    S    
C25   H13   S    
O18   V4    S    
O17   V4    S    
C10   C14   A    
C4    C14   S    
O7    V1    S    
O11   V4    S    
C27   C29   S    
C7    H4    S    
C13   C18   A    
O9    C4    A    
H1    C17   S    
C2    C30   S    
C27   H14   S    
C23   H11   S    
C24   H12   S    
C31   O16   A    
O17   V3    S    
C11   C12   A    
C24   C32   S    
C6    H3    S    
O19   V4    S    
C12   C13   A    
O16   V4    S    
C5    C10   A    
C1    C26   S    
C28   Cl3   S    
C22   H10   S    
C16   C17   A    
C26   Cl2   S    
C28   C31   S    
C23   C25   S    
C13   C14   A    
C15   H6    S    
O3    C4    A    
O1    V2    S    
O13   C34   A    
O6    V2    S    
O15   C33   A    
O9    V2    S    
C9    C11   A    
C5    H2    S    
C21   C22   D    
O2    V1    S    
C27   C28   D    
C18   Cl4   S    
O4    C2    A    
O14   V3    S    
O1    C2    A    
O5    V1    S    
O8    C3    A    
C8    H5    S    
C3    C20   S    
C29   H15   S    
O7    V2    S    
O4    V1    S    
O3    V1    S    
V1    O10   S    
O11   C32   A    
C19   H8    S    
O13   V3    S    
C19   C20   D    
C30   H16   S    
O18   C33   A    
O19   C34   A    
C7    C8    A    
O12   V3    S    
C25   C26   D    
C16   H7    S    
C9    C10   A    
C8    C9    A    
