data_mof_unit_52208.cif
_audit_creation_date              2012-12-10T16:57:49-0500
_audit_creation_method            fapswitch 2.2
_symmetry_space_group_name_H-M    P1
_symmetry_Int_Tables_number       1
_space_group_crystal_system       triclinic
_cell_length_a                    7.758533
_cell_length_b                    8.622764
_cell_length_c                    19.221629
_cell_angle_alpha                 91.826357
_cell_angle_beta                  84.312397
_cell_angle_gamma                 93.62544
_cell_volume                      1276.61109498

loop_
_atom_site_label
_atom_site_type_symbol
_atom_type_description
_atom_site_fract_x
_atom_site_fract_y
_atom_site_fract_z
_atom_type_partial_charge
C1    C     C_R   0.545435 0.794437 0.498236 0.827079
C2    C     C_R   0.663210 0.470965 0.174327 -0.268419
C3    C     C_R   0.483585 0.482881 0.855769 -0.334162
C4    C     C_R   0.516417 0.517127 0.144231 -0.334160
C5    C     C_R   0.631805 0.440068 0.813785 0.593547
C6    C     C_R   0.368196 0.559938 0.186215 0.593548
C7    C     C_R   0.638022 0.446670 0.741758 0.555590
C8    C     C_R   0.361978 0.553333 0.258242 0.555588
C9    C     C_R   0.495398 0.496402 0.710771 -0.447103
C10   C     C_R   0.504603 0.503601 0.289228 -0.447101
C11   C     C_R   0.509391 0.509115 0.069324 0.448022
C12   C     C_R   0.454564 0.205563 0.501764 0.827080
C13   C     C_R   0.490611 0.490894 0.930675 0.448023
C14   C     C_2   0.171976 0.563070 0.868497 1.141837
C15   C     C_2   0.828026 0.436939 0.131502 1.141846
C16   C     C_2   0.569861 0.956742 0.497335 0.324944
C17   C     C_2   0.430139 0.043258 0.502664 0.324944
C18   C     C_R   0.499504 0.500103 0.634680 0.956283
C19   C     C_R   0.500496 0.499898 0.365320 0.956284
C20   C     C_R   0.345140 0.537738 0.753031 0.601874
C21   C     C_R   0.654862 0.462269 0.246969 0.601873
C22   C     C_R   0.336792 0.529044 0.825672 -0.268416
F1    F     F_    0.204822 0.583640 0.723708 -0.527247
F2    F     F_    0.968910 0.644546 0.561944 -0.464722
F3    F     F_    0.795180 0.416366 0.276291 -0.527247
F4    F     F_    0.773305 0.396315 0.842822 -0.579954
F5    F     F_    0.226695 0.603690 0.157177 -0.579954
F6    F     F_    0.783734 0.403791 0.702702 -0.532065
F7    F     F_    0.216265 0.596208 0.297298 -0.532064
F8    F     F_    0.737540 0.016869 0.491089 -0.554103
F9    F     F_    0.262460 0.983131 0.508911 -0.554103
F10   F     F_    0.031090 0.355454 0.438056 -0.464722
H1    H     H_    0.959538 0.688540 0.880888 0.366227
H2    H     H_    0.040463 0.311467 0.119108 0.366227
N1    N     N_R   0.541998 0.368715 0.964160 -0.064910
N2    N     N_R   0.458004 0.631294 0.035839 -0.064909
N3    N     N_R   0.550584 0.377545 0.032717 -0.142744
N4    N     N_R   0.449417 0.622464 0.967283 -0.142742
N5    N     N_2   0.950330 0.457950 0.481240 0.296679
N6    N     N_2   0.049670 0.542050 0.518760 0.296679
O1    O     O_R   0.389250 0.738570 0.504600 -0.577209
O2    O     O_R   0.068729 0.677354 0.847930 -0.681840
O3    O     O_2   0.875243 0.510567 0.078931 -0.554504
O4    O     O_R   0.931273 0.322655 0.152067 -0.681841
O5    O     O_R   0.610750 0.261430 0.495400 -0.577209
O6    O     O_R   0.678400 0.711620 0.492580 -0.550585
O7    O     O_R   0.321600 0.288380 0.507420 -0.550585
O8    O     O_R   0.355380 0.513500 0.607880 -0.552599
O9    O     O_R   0.644620 0.486500 0.392120 -0.552600
O10   O     O_R   0.644530 0.486550 0.595850 -0.545870
O11   O     O_R   0.355470 0.513450 0.404150 -0.545871
O12   O     O_2   0.124760 0.489444 0.921068 -0.554504
Zn1   Zn    Zn3+2 0.306930 0.517990 0.508030 1.265946
Zn2   Zn    Zn3+2 0.693070 0.482010 0.491970 1.265946

loop_
_geom_bond_atom_site_label_1
_geom_bond_atom_site_label_2
_ccdc_geom_bond_type
C12   C17   S    
C15   O4    S    
C2    C4    A    
C19   O11   A    
C6    F5    S    
C19   O9    A    
C9    C20   A    
O6    Zn2   S    
C3    C13   S    
C20   F1    S    
C14   O2    S    
C10   C19   S    
O7    Zn1   S    
C14   C22   S    
C2    C21   A    
N2    N4    A    
C3    C5    A    
C15   O3    D    
C1    C16   S    
C4    C11   S    
C2    C15   S    
O1    Zn1   S    
C13   N4    A    
O10   Zn2   S    
C12   O7    A    
C8    F7    S    
C8    C10   A    
C11   N2    A    
N1    N3    A    
C20   C22   A    
O5    Zn2   S    
C13   N1    A    
C5    C7    A    
C10   C21   A    
O8    Zn1   S    
C17   F9    S    
C1    O6    A    
N5    Zn2   S    
H1    O2    S    
C16   F8    S    
C5    F4    S    
C7    C9    A    
C9    C18   S    
H2    O4    S    
C18   O10   A    
C4    C6    A    
N6    Zn1   S    
F10   N5    S    
C1    O1    A    
N5    N6    D    
C11   N3    A    
C21   F3    S    
C12   O5    A    
C3    C22   A    
C6    C8    A    
F2    N6    S    
C14   O12   D    
C7    F6    S    
O9    Zn2   S    
C16   C17   D    
O11   Zn1   S    
C18   O8    A    
