data_mof_unit_15844.cif
_audit_creation_date              2012-12-11T14:27:01-0500
_audit_creation_method            fapswitch 2.2
_symmetry_space_group_name_H-M    P1
_symmetry_Int_Tables_number       1
_space_group_crystal_system       triclinic
_cell_length_a                    15.20363
_cell_length_b                    14.924492
_cell_length_c                    14.925551
_cell_angle_alpha                 109.368478
_cell_angle_beta                  109.869492
_cell_angle_gamma                 109.607299
_cell_volume                      2593.06882262

loop_
_atom_site_label
_atom_site_type_symbol
_atom_type_description
_atom_site_fract_x
_atom_site_fract_y
_atom_site_fract_z
_atom_type_partial_charge
C1    C     C_R   0.933306 0.748343 0.022984 0.604578
C2    C     C_R   0.213178 0.798471 0.304540 -0.054037
C3    C     C_R   0.968449 0.410560 0.225155 0.520244
C4    C     C_R   0.781476 0.255856 0.686633 -0.109889
C5    C     C_R   0.302868 0.591127 0.005372 0.610691
C6    C     C_R   0.046732 0.502923 0.328778 -0.150704
C7    C     C_R   0.313146 0.500172 0.963642 -0.053949
C8    C     C_R   0.312237 0.854145 0.315073 -0.238309
C9    C     C_R   0.969572 0.149434 0.962178 -0.053416
C10   C     C_3   0.519631 0.408856 0.053088 0.523528
C11   C     C_3   0.410683 0.405312 0.015149 -0.537578
C12   C     C_R   0.681586 0.235492 0.674298 0.152983
C13   C     C_3   0.620357 0.613034 0.124534 -0.628023
C14   C     C_3   0.540575 0.480219 0.922239 0.195740
C15   C     C_3   0.596489 0.499278 0.042176 0.111493
C16   C     C_R   0.086906 0.590526 0.788194 -0.148404
C17   C     C_3   0.416549 0.501926 0.993246 0.055538
C18   C     C_3   0.513678 0.612766 0.099861 0.315692
C19   C     C_3   0.437528 0.489002 0.896589 0.317614
C20   C     C_2   0.393286 0.046252 0.454527 0.466835
C21   C     C_2   0.405002 0.958676 0.410931 0.395051
C22   C     C_2   0.485766 0.146423 0.557981 -0.273997
C23   C     C_R   0.053043 0.498680 0.693319 0.179671
C24   C     C_2   0.584156 0.187272 0.569130 -0.129655
C25   C     C_2   0.094252 0.425349 0.547854 0.668013
C26   C     C_2   0.075596 0.499868 0.607014 -0.372741
C27   C     C_2   0.083962 0.418358 0.442745 -0.318025
C28   C     C_R   0.703830 0.408941 0.008411 0.593353
C29   C     C_2   0.105801 0.507747 0.432436 -0.198254
C30   C     C_2   0.934339 0.966277 0.847288 -0.096595
C31   C     C_2   0.957988 0.043565 0.943682 -0.168725
C32   C     C_2   0.932209 0.864794 0.838490 -0.138515
C33   C     C_2   0.897101 0.822763 0.894226 -0.142911
C34   C     C_R   0.698420 0.499020 0.064313 -0.046192
C35   C     C_R   0.998027 0.407946 0.698168 -0.094668
C36   C     C_R   0.792031 0.589790 0.096958 -0.194260
C37   C     C_R   0.690199 0.259763 0.775979 -0.137235
C38   C     C_R   0.022239 0.744621 0.931199 -0.205469
C39   C     C_R   0.945585 0.769685 0.943273 -0.035159
C40   C     C_3   0.955147 0.866205 0.181129 -0.313601
C41   C     C_3   0.834927 0.083908 0.058239 -0.129327
C42   C     C_3   0.830326 0.317500 0.244841 -0.276336
C43   C     C_3   0.534313 0.336043 0.170198 -0.283333
C44   C     C_3   0.145653 0.292154 0.524763 -0.232048
C45   C     C_R   0.058886 0.592748 0.314873 0.450387
C46   C     C_3   0.663961 0.233285 0.977578 -0.223557
C47   C     C_R   0.215631 0.408033 0.921223 -0.133887
C48   C     C_R   0.305754 0.794793 0.217202 0.556245
C49   C     C_R   0.922163 0.202267 0.008099 0.622558
C50   C     C_R   0.019759 0.209020 0.923652 -0.207967
H1    H     H_    0.190383 0.322498 0.873556 0.148403
H2    H     H_    0.451711 0.564096 0.889443 -0.041414
H3    H     H_    0.670619 0.679269 0.115123 0.166919
H4    H     H_    0.522106 0.682774 0.085752 0.125776
H5    H     H_    0.144599 0.674374 0.817025 0.124747
H6    H     H_    0.474756 0.171731 0.628465 0.154962
H7    H     H_    0.591477 0.163238 0.495952 0.147257
H8    H     H_    0.067458 0.561437 0.587344 0.115665
H9    H     H_    0.039404 0.337246 0.370773 0.195536
H10   H     H_    0.161394 0.588050 0.506148 0.133588
H11   H     H_    0.926425 0.981598 0.779514 0.138554
H12   H     H_    0.052186 0.184319 0.871854 0.132605
H13   H     H_    0.973872 0.030766 0.013644 0.123126
H14   H     H_    0.976570 0.838068 0.803112 0.133003
H15   H     H_    0.847228 0.846517 0.922779 0.157563
H16   H     H_    0.971240 0.323443 0.643667 0.146341
H17   H     H_    0.823602 0.673353 0.157589 0.185011
H18   H     H_    0.626798 0.256051 0.793379 0.185238
H19   H     H_    0.053070 0.753817 0.877679 0.133034
H20   H     H_    0.011616 0.938467 0.183118 0.155940
H21   H     H_    0.001416 0.839215 0.230789 0.167419
H22   H     H_    0.911534 0.893117 0.220363 0.175841
H23   H     H_    0.185909 0.832885 0.357711 0.213573
H24   H     H_    0.438131 0.904802 0.243350 0.314333
H25   H     H_    0.917797 0.119364 0.127643 0.112732
H26   H     H_    0.803565 0.998952 0.994118 0.126026
H27   H     H_    0.780533 0.077522 0.092833 0.167759
H28   H     H_    0.765720 0.233415 0.213497 0.162442
H29   H     H_    0.790248 0.360425 0.215368 0.134623
H30   H     H_    0.872788 0.360372 0.336223 0.159896
H31   H     H_    0.387074 0.676634 0.961664 0.279702
H32   H     H_    0.564862 0.358843 0.257903 0.180902
H33   H     H_    0.569813 0.288518 0.137943 0.145960
H34   H     H_    0.500864 0.326432 0.995856 0.141547
H35   H     H_    0.444475 0.284151 0.125102 0.140034
H36   H     H_    0.509031 0.583768 0.217948 0.360728
H37   H     H_    0.517230 0.383560 0.780596 0.310505
H38   H     H_    0.352995 0.407032 0.736607 0.316932
H39   H     H_    0.301267 0.109923 0.452457 0.316279
H40   H     H_    0.495422 0.891676 0.420757 0.333990
H41   H     H_    0.220178 0.350056 0.532004 0.127939
H42   H     H_    0.083025 0.229886 0.437150 0.129722
H43   H     H_    0.168199 0.246931 0.565581 0.195521
H44   H     H_    0.630363 0.200733 0.022492 0.148574
H45   H     H_    0.348580 0.324986 0.938162 0.186890
H46   H     H_    0.752901 0.275112 0.026486 0.192351
H47   H     H_    0.635491 0.161572 0.898494 0.190778
H48   H     H_    0.126834 0.703482 0.467700 0.314270
H49   H     H_    0.801915 0.245155 0.622820 0.094773
H50   H     H_    0.384639 0.406921 0.076620 0.194297
H51   H     H_    0.667367 0.633909 0.211292 0.252511
H52   H     H_    0.598419 0.546524 0.918023 0.053291
N1    N     N_R   0.993980 0.704500 0.053430 -0.107257
N2    N     N_R   0.053690 0.556380 0.849240 -0.044321
N3    N     N_R   0.790390 0.443640 0.997160 -0.117700
N4    N     N_R   0.998260 0.443670 0.792970 -0.062325
N5    N     N_R   0.845830 0.556350 0.053430 -0.074546
N6    N     N_R   0.792820 0.295510 0.849240 -0.052553
N7    N     N_R   0.051260 0.704510 0.997160 -0.069948
N8    N     N_R   0.001740 0.556330 0.207030 -0.109516
N9    N     N_R   0.154170 0.443650 0.946570 -0.085202
N10   N     N_R   0.207180 0.704490 0.150760 -0.081846
N11   N     N_R   0.948740 0.295490 0.002840 -0.109106
N12   N     N_R   0.006020 0.295500 0.946570 -0.074066
N13   N     N_R   0.149890 0.704480 0.207030 -0.086040
N14   N     N_R   0.946310 0.443620 0.150760 -0.154755
N15   N     N_R   0.209610 0.556360 0.002840 -0.082865
N16   N     N_R   0.850110 0.295520 0.792970 -0.045969
Ni1   Ni    Ni4+2 0.997880 0.629240 0.129060 0.209813
Ni2   Ni    Ni4+2 0.002120 0.370760 0.870940 0.203255
Ni3   Ni    Ni4+2 0.129260 0.629260 0.000000 0.277322
Ni4   Ni    Ni4+2 0.870740 0.370740 0.000000 0.217923
O1    O     O_3   0.878328 0.779502 0.071896 -0.651624
O2    O     O_3   0.293513 0.038545 0.407850 -0.803173
O3    O     O_3   0.503751 0.964692 0.460687 -0.774386
O4    O     O_3   0.103736 0.348182 0.577638 -0.616464
O5    O     O_3   0.623078 0.300181 0.955826 -0.650690
O6    O     O_3   0.104949 0.699609 0.395582 -0.784239
O7    O     O_3   0.375514 0.831870 0.181941 -0.696387
O8    O     O_3   0.828778 0.150342 0.010351 -0.625088
O9    O     O_3   0.901695 0.308917 0.205993 -0.610489
O10   O     O_3   0.352222 0.687680 0.006426 -0.713847
O11   O     O_3   0.567341 0.433323 0.164413 -0.619685
O12   O     O_3   0.498185 0.633757 0.191020 -0.720699
O13   O     O_3   0.514721 0.376915 0.843831 -0.704634
O14   O     O_3   0.347150 0.396282 0.796943 -0.696334

loop_
_geom_bond_atom_site_label_1
_geom_bond_atom_site_label_2
_ccdc_geom_bond_type
C49   N11   A    
C42   H30   S    
C6    C45   A    
C27   C29   D    
C43   H33   S    
C10   O11   S    
C3    C6    A    
N16   Ni2   S    
N2    N4    A    
C36   H17   S    
C33   H15   S    
N3    N5    A    
C44   O4    S    
C33   C39   S    
C40   H20   S    
C13   C18   S    
C3    O9    S    
C40   H21   S    
C3    N14   A    
C41   H27   S    
C30   C31   D    
C14   H52   S    
C14   O13   S    
C45   O6    S    
C37   H18   S    
C23   C26   S    
C12   C37   A    
C43   O11   S    
N15   Ni3   S    
C44   H43   S    
C19   H2    S    
H36   O12   S    
C5    O10   S    
N11   Ni4   S    
C24   H7    S    
C7    C17   S    
C42   O9    S    
C4    C12   A    
C1    N1    A    
C15   C34   S    
C44   H42   S    
C28   O5    S    
H48   O6    S    
C38   H19   S    
C28   C34   A    
C42   H29   S    
C36   N5    A    
C4    N16   A    
N5    Ni1   S    
C16   N2    A    
C8    C21   S    
C13   H3    S    
C38   C39   A    
N1    Ni1   S    
C30   H11   S    
C43   H35   S    
N6    N16   A    
C46   O5    S    
C9    C49   A    
C32   H14   S    
C37   N6    A    
C5    C7    A    
C18   H4    S    
C45   N8    A    
H31   O10   S    
C22   H6    S    
N2    Ni3   S    
C35   H16   S    
C25   C26   D    
C5    N15   A    
C11   H50   S    
C50   N12   A    
C7    C47   A    
C25   O4    S    
C1    O1    S    
H37   O13   S    
C41   H25   S    
C2    N13   A    
C1    C39   A    
C46   H44   S    
C29   H10   S    
C28   N3    A    
C17   C18   S    
C38   N7    A    
C26   H8    S    
H38   O14   S    
C2    H23   S    
N14   Ni4   S    
C48   N10   A    
C46   H47   S    
C20   C22   S    
C42   H28   S    
C16   C23   A    
C23   C35   A    
C13   C15   S    
C50   H12   S    
C22   C24   D    
C48   O7    S    
H24   O7    S    
C13   H51   S    
N8    N14   A    
N11   N12   A    
C11   H45   S    
C40   O1    S    
C11   C17   S    
C40   H22   S    
N4    Ni2   S    
C10   C15   S    
C14   C19   S    
C2    C8    A    
C9    C50   A    
N6    Ni4   S    
N8    Ni1   S    
C47   H1    S    
H39   O2    S    
C25   C27   S    
C31   H13   S    
C49   O8    S    
C12   C24   S    
N13   Ni1   S    
N9    N15   A    
N1    N7    A    
C32   C33   D    
C19   O14   S    
C16   H5    S    
N10   Ni3   S    
C35   N4    A    
C27   H9    S    
C8    C48   A    
C41   H26   S    
C30   C32   S    
N7    Ni3   S    
C41   O8    S    
C47   N9    A    
C10   H34   S    
C17   C19   S    
H40   O3    S    
N3    Ni4   S    
C18   O12   S    
C34   C36   A    
C44   H41   S    
C20   O2    S    
C10   C11   S    
C9    C31   S    
C6    C29   S    
C46   H46   S    
C20   C21   D    
C4    H49   S    
C43   H32   S    
C14   C15   S    
N9    Ni2   S    
C21   O3    S    
N10   N13   A    
N12   Ni2   S    
