data_mof_unit_31576.cif
_audit_creation_date              2013-03-05T15:48:37-0500
_audit_creation_method            fapswitch 2.2
_symmetry_space_group_name_H-M    P1
_symmetry_Int_Tables_number       1
_space_group_crystal_system       triclinic
_cell_length_a                    11.759869
_cell_length_b                    13.005592
_cell_length_c                    13.848258
_cell_angle_alpha                 87.963714
_cell_angle_beta                  92.43445
_cell_angle_gamma                 99.477955
_cell_volume                      2086.33506165

loop_
_atom_site_label
_atom_site_type_symbol
_atom_site_description
_atom_site_fract_x
_atom_site_fract_y
_atom_site_fract_z
_atom_type_partial_charge
O1    O     O_R   0.581500 0.354430 0.495010 -0.549873
O2    O     O_R   0.418500 0.645570 0.504990 -0.548814
O3    O     O_R   0.386890 0.341450 0.506880 -0.601720
O4    O     O_R   0.613110 0.658550 0.493120 -0.595705
C1    C     C_R   0.479173 0.299428 0.502199 0.839756
C2    C     C_R   0.521091 0.700585 0.498991 0.836064
O5    O     O_R   0.611060 0.507430 0.631070 -0.520501
O6    O     O_R   0.388940 0.492570 0.368930 -0.525581
O7    O     O_R   0.416450 0.494450 0.642940 -0.595105
O8    O     O_R   0.583550 0.505550 0.357060 -0.600730
C3    C     C_R   0.519622 0.501077 0.681906 0.822815
C4    C     C_R   0.480396 0.498857 0.318097 0.825118
Cu1   Cu    Cu3+1 0.615220 0.507680 0.492970 1.015795
Cu2   Cu    Cu3+1 0.384780 0.492320 0.507030 1.014619
C5    C     C_1   0.467430 0.498191 0.215158 -0.105982
C6    C     C_1   0.532683 0.501745 0.784842 -0.099736
C7    C     C_2   0.452238 0.497530 0.024733 -0.150732
C8    C     C_2   0.548039 0.502473 0.975269 -0.149555
C9    C     C_1   0.541109 0.502151 0.871610 0.050601
C10   C     C_1   0.459110 0.497816 0.128389 0.042246
H1    H     H_    0.631959 0.506772 0.012309 0.168752
H2    H     H_    0.368325 0.493237 0.987688 0.170660
C11   C     C_R   0.533619 0.813953 0.498182 -0.136124
C12   C     C_R   0.467776 0.186137 0.506091 -0.120920
C13   C     C_R   0.353461 0.016864 0.539624 0.361489
C14   C     C_R   0.648980 0.983359 0.466889 0.357218
C15   C     C_R   0.363416 0.124949 0.531181 -0.237241
C16   C     C_R   0.637942 0.875090 0.472905 -0.223185
C17   C     C_R   0.562722 0.139388 0.487038 -0.149831
C18   C     C_R   0.440188 0.860917 0.520853 -0.135129
C19   C     C_R   0.554126 0.031166 0.489812 -0.011440
C20   C     C_R   0.448753 0.969143 0.517793 -0.007440
H3    H     H_    0.360499 0.812173 0.540132 0.234564
H4    H     H_    0.643435 0.188250 0.470361 0.217739
H5    H     H_    0.710149 0.838577 0.454147 0.196613
H6    H     H_    0.290334 0.161337 0.547872 0.184587
N1    N     N_R   0.788370 0.519230 0.482390 -0.253152
N2    N     N_R   0.211630 0.480770 0.517610 -0.254631
C21   C     C_R   0.036929 0.400763 0.591774 0.168280
C22   C     C_R   0.959624 0.587464 0.397529 0.180284
C23   C     C_R   0.156752 0.412374 0.582905 -0.053745
C24   C     C_R   0.840942 0.580034 0.410759 -0.051939
C25   C     C_R   0.150497 0.539282 0.456128 0.517884
C26   C     C_R   0.850623 0.463194 0.545138 0.510295
C27   C     C_R   0.027794 0.530931 0.461087 -0.140492
C28   C     C_R   0.971091 0.464017 0.533408 -0.143907
H7    H     H_    0.789870 0.623148 0.362546 0.154388
H8    H     H_    0.206355 0.364408 0.627432 0.149985
N3    N     N_R   0.246916 0.957634 0.571661 0.121345
O9    O     O_R   0.247168 0.895359 0.647298 -0.348552
O10   O     O_R   0.149164 0.981202 0.537960 -0.309866
N4    N     N_R   0.755490 0.042475 0.434572 0.098147
O11   O     O_R   0.754734 0.107050 0.360669 -0.361351
O12   O     O_R   0.853164 0.016287 0.465309 -0.331324
N5    N     N_R   0.796688 0.413676 0.629185 0.159742
O13   O     O_R   0.822142 0.455548 0.712943 -0.344690
O14   O     O_R   0.738980 0.319557 0.625501 -0.366192
N6    N     N_R   0.212100 0.612467 0.389666 0.159770
O15   O     O_R   0.229077 0.711106 0.408799 -0.349163
O16   O     O_R   0.222817 0.585348 0.301425 -0.356166
N7    N     N_2   0.983872 0.320371 0.655198 -0.390001
H9    H     H_    0.028707 0.315757 0.720469 0.258142
C29   C     C_3   0.955619 0.219770 0.610923 -0.464230
H10   H     H_    0.906889 0.163005 0.662046 0.244016
H11   H     H_    0.035640 0.190696 0.592701 0.215314
H12   H     H_    0.900917 0.225391 0.544102 0.257773
N8    N     N_2   0.007217 0.650050 0.318287 -0.355589
H13   H     H_    0.988729 0.724911 0.317889 0.277029
C30   C     C_3   0.980664 0.602659 0.225251 -0.552358
H14   H     H_    0.029431 0.651896 0.168757 0.247355
H15   H     H_    0.886938 0.595821 0.206461 0.185676
H16   H     H_    0.006017 0.523977 0.226126 0.248634

loop_
_geom_bond_atom_site_label_1
_geom_bond_atom_site_label_2
_geom_bond_distance
_ccdc_geom_bond_type
C30   H16   1.111523 S    
C18   C20   1.393749 A    
O7    Cu2   1.903312 S    
C29   H11   1.111906 S    
C14   N4    1.437457 S    
C15   H6    1.083795 S    
Cu2   N2    2.028121 S    
C8    H1    1.086758 S    
O7    C3    1.297669 A    
C3    C6    1.427414 S    
C14   C16   1.392448 A    
C19   C20   1.423293 A    
C25   N6    1.430092 S    
C4    C5    1.427393 S    
O5    Cu1   1.915021 S    
O6    C4    1.300085 A    
C12   C15   1.398249 A    
C7    C10   1.434392 S    
C13   C20   1.415473 A    
C22   C24   1.402466 A    
C7    C8    1.334609 D    
C29   H12   1.111552 S    
C30   H15   1.111521 S    
C14   C19   1.415681 A    
C17   C19   1.393678 A    
O2    C2    1.301689 A    
C11   C16   1.398319 A    
O5    C3    1.299850 A    
C25   C27   1.433508 A    
C26   N5    1.430607 S    
N7    H9    1.031834 S    
O3    Cu2   1.966467 S    
O8    C4    1.297386 A    
N1    C26   1.377978 A    
C6    C9    1.201588 T    
O1    C1    1.300503 A    
C2    C11   1.457110 S    
O4    C2    1.296901 A    
C24   H7    1.082191 S    
C23   H8    1.082416 S    
N4    O12   1.301363 A    
C21   C28   1.427894 A    
C30   H14   1.110210 S    
N5    O14   1.299778 A    
C22   C27   1.430431 A    
O2    Cu2   1.966514 S    
Cu1   Cu2   2.699146 S    
C13   N3    1.437073 S    
N5    O13   1.301239 A    
C13   C15   1.392372 A    
N1    C24   1.351630 A    
C29   H10   1.110239 S    
N6    O16   1.300723 A    
N8    H13   1.031734 S    
C11   C18   1.393848 A    
N2    C25   1.379488 A    
C21   N7    1.421393 S    
O1    Cu1   1.966514 S    
N4    O11   1.301313 A    
N2    C23   1.352297 A    
C21   C23   1.402410 A    
C8    C9    1.434464 S    
N8    C30   1.447818 S    
O4    Cu1   1.966469 S    
N3    O9    1.301292 A    
C12   C17   1.394985 A    
C1    C12   1.456614 S    
O6    Cu2   1.915020 S    
C18   H3    1.079330 S    
N3    O10   1.301353 A    
N6    O15   1.300417 A    
C27   C28   1.417283 A    
Cu1   N1    2.028122 S    
C17   H4    1.080581 S    
O8    Cu1   1.903311 S    
N7    C29   1.447312 S    
C7    H2    1.086720 S    
C16   H5    1.083672 S    
C26   C28   1.431064 A    
C5    C10   1.201543 T    
O3    C1    1.297862 A    
C22   N8    1.420799 S    
