data_mof_unit_14123.cif
_audit_creation_date              2012-12-10T17:44:32-0500
_audit_creation_method            fapswitch 2.2
_symmetry_space_group_name_H-M    P1
_symmetry_Int_Tables_number       1
_space_group_crystal_system       triclinic
_cell_length_a                    9.983666
_cell_length_b                    10.610569
_cell_length_c                    15.441747
_cell_angle_alpha                 93.028762
_cell_angle_beta                  68.391724
_cell_angle_gamma                 90.199517
_cell_volume                      1518.47444819

loop_
_atom_site_label
_atom_site_type_symbol
_atom_type_description
_atom_site_fract_x
_atom_site_fract_y
_atom_site_fract_z
_atom_type_partial_charge
C1    C     C_R   0.501506 0.738957 0.497502 0.871398
C2    C     C_R   0.396247 0.428811 0.917471 -0.105259
C3    C     C_R   0.250509 0.459771 0.971418 -0.027242
C4    C     C_R   0.488482 0.388821 0.962017 0.054756
C5    C     C_R   0.450103 0.420598 0.057708 -0.035284
C6    C     C_R   0.305315 0.455432 0.111215 -0.306062
C7    C     C_R   0.205318 0.469316 0.068749 0.618736
C8    C     C_R   0.619410 0.322269 0.913378 -0.110223
C9    C     C_R   0.719027 0.303613 0.955401 -0.263343
C10   C     C_R   0.692190 0.354846 0.045446 0.140142
C11   C     C_R   0.558627 0.417005 0.095938 0.123912
C12   C     C_R   0.409999 0.497450 0.676070 0.883176
C13   C     C_R   0.796145 0.344741 0.086237 -0.202825
C14   C     C_R   0.768058 0.396329 0.176488 -0.077463
C15   C     C_R   0.539653 0.478746 0.181549 -0.268345
C16   C     C_R   0.483496 0.856554 0.336469 -0.167242
C17   C     C_R   0.473952 0.916752 0.260728 -0.122832
C18   C     C_R   0.474395 0.047968 0.260746 -0.118234
C19   C     C_R   0.484010 0.119400 0.336617 -0.167494
C20   C     C_R   0.492363 0.059744 0.414373 0.099496
C21   C     C_R   0.492470 0.927629 0.414222 0.095476
C22   C     C_R   0.504985 0.870966 0.491571 -0.109057
C23   C     C_R   0.501124 0.260743 0.497775 0.847394
C24   C     C_R   0.520142 0.940705 0.566018 -0.184243
C25   C     C_R   0.520193 0.069497 0.566158 -0.157680
C26   C     C_R   0.504274 0.127956 0.491974 -0.091688
C27   C     C_R   0.798451 0.689225 0.600488 -0.212317
C28   C     C_R   0.839836 0.797155 0.636537 0.554186
C29   C     C_R   0.976119 0.803413 0.637921 -0.389871
C30   C     C_R   0.070581 0.696973 0.608543 0.510844
C31   C     C_R   0.041565 0.596100 0.551501 0.030331
C32   C     C_R   0.898219 0.594445 0.549827 -0.065164
C33   C     C_R   0.956692 0.410559 0.450929 0.689315
C34   C     C_R   0.589805 0.495376 0.324253 0.825013
C35   C     C_R   0.099194 0.410701 0.450945 -0.214140
C36   C     C_R   0.354765 0.483282 0.777630 -0.175365
C37   C     C_R   0.639511 0.464048 0.224108 -0.084128
C38   C     C_R   0.155363 0.487610 0.926881 -0.164545
C39   C     C_R   0.206475 0.494384 0.830225 -0.293108
C40   C     C_R   0.450797 0.456707 0.822671 0.483550
H1    H     H_    0.897052 0.294307 0.049401 0.156128
H2    H     H_    0.528139 0.895016 0.625095 0.188754
H3    H     H_    0.485472 0.754593 0.332908 0.137755
H4    H     H_    0.467384 0.861363 0.201543 0.142567
H5    H     H_    0.468317 0.094579 0.201556 0.147729
H6    H     H_    0.486553 0.220954 0.333154 0.140359
H7    H     H_    0.529753 0.123988 0.625005 0.167355
H8    H     H_    0.685871 0.680416 0.617684 0.221797
H9    H     H_    0.445048 0.537315 0.217463 0.161137
H10   H     H_    0.999599 0.887669 0.671767 0.186095
H11   H     H_    0.175203 0.337592 0.410568 0.172624
H12   H     H_    0.843652 0.379483 0.210163 0.224482
H13   H     H_    0.819136 0.253261 0.916238 0.157896
H14   H     H_    0.042083 0.506501 0.966660 0.201651
H15   H     H_    0.130684 0.514713 0.797337 0.207455
H16   H     H_    0.266235 0.468428 0.186353 0.179852
H17   H     H_    0.644819 0.283167 0.842897 0.201604
N1    N     N_R   0.856800 0.501200 0.500850 -0.131823
N2    N     N_R   0.142390 0.501280 0.500880 -0.118389
O1    O     O_R   0.385310 0.683220 0.500000 -0.560756
O2    O     O_R   0.614640 0.683250 0.500010 -0.635169
O3    O     O_R   0.319840 0.499980 0.632240 -0.542148
O4    O     O_R   0.549160 0.500000 0.632250 -0.584874
O5    O     O_R   0.385360 0.316750 0.499990 -0.628397
O6    O     O_R   0.614690 0.316780 0.500000 -0.547743
O7    O     O_R   0.450840 0.500000 0.367750 -0.634185
O8    O     O_R   0.680160 0.500020 0.367760 -0.568917
Zn1   Zn    Zn3+2 0.346880 0.499980 0.499990 0.983958
Zn2   Zn    Zn3+2 0.653120 0.500020 0.500010 1.032006
F1    F     F_    0.067994 0.504310 0.122435 -0.692002
F2    F     F_    0.919547 0.319003 0.399826 -0.651740
F3    F     F_    0.742666 0.891290 0.679201 -0.685727
O9    O     O_3   0.179071 0.681587 0.642878 -0.547368
C41   C     C_3   0.188173 0.775469 0.708924 -0.346563
H18   H     H_    0.086767 0.782738 0.771512 0.167046
H19   H     H_    0.219051 0.867535 0.676580 0.169838
H20   H     H_    0.275274 0.747983 0.732921 0.175747
O10   O     O_3   0.597991 0.468439 0.776112 -0.608649
C42   C     C_3   0.641074 0.585177 0.805164 -0.273220
H21   H     H_    0.619078 0.592769 0.881212 0.163628
H22   H     H_    0.587665 0.665676 0.786607 0.167818
H23   H     H_    0.759306 0.592746 0.769569 0.187821

loop_
_geom_bond_atom_site_label_1
_geom_bond_atom_site_label_2
_ccdc_geom_bond_type
C27   H8    S    
O7    Zn1   S    
C33   N1    A    
C34   C37   S    
C24   H2    S    
O9    C41   S    
C19   C20   A    
C32   N1    A    
C4    C8    A    
C34   O7    A    
C7    F1    S    
C13   H1    S    
C19   H6    S    
C16   C21   A    
C41   H19   S    
O5    Zn1   S    
C28   C29   A    
C5    C11   A    
C3    C7    A    
C5    C6    A    
C8    H17   S    
C35   N2    A    
C18   C19   A    
C23   C26   S    
C31   N2    A    
C15   C37   A    
C11   C15   A    
C14   H12   S    
O4    Zn2   S    
C3    C38   A    
C16   C17   A    
C41   H20   S    
C12   C36   S    
C9    C10   A    
C25   H7    S    
C1    C22   S    
C21   C22   A    
C28   F3    S    
C29   H10   S    
C38   C39   A    
C39   H15   S    
C41   H18   S    
C36   C40   A    
C24   C25   A    
C1    O1    A    
C42   H22   S    
C30   O9    S    
O10   C42   S    
C8    C9    A    
C25   C26   A    
O8    Zn2   S    
C2    C4    A    
C29   C30   A    
N2    Zn1   S    
C12   O3    A    
C31   C32   A    
C38   H14   S    
C17   C18   A    
C16   H3    S    
C23   O5    A    
C35   H11   S    
C22   C24   A    
C9    H13   S    
C18   H5    S    
O2    Zn2   S    
C12   O4    A    
C27   C32   A    
C36   C39   A    
C6    H16   S    
C4    C5    A    
C10   C13   A    
C1    O2    A    
C34   O8    A    
C42   H23   S    
N1    Zn2   S    
C6    C7    A    
O3    Zn1   S    
C23   O6    A    
C2    C3    A    
C17   H4    S    
C14   C37   A    
C30   C31   A    
C20   C26   A    
O6    Zn2   S    
C33   C35   A    
C40   O10   S    
C15   H9    S    
C10   C11   A    
C33   F2    S    
C42   H21   S    
C2    C40   A    
C20   C21   A    
O1    Zn1   S    
C27   C28   A    
C13   C14   A    
