data_mof_unit_34705.cif
_audit_creation_date              2013-03-05T16:45:50-0500
_audit_creation_method            fapswitch 2.2
_symmetry_space_group_name_H-M    P1
_symmetry_Int_Tables_number       1
_space_group_crystal_system       triclinic
_cell_length_a                    18.188727
_cell_length_b                    18.26672
_cell_length_c                    18.232447
_cell_angle_alpha                 60.830457
_cell_angle_beta                  60.812286
_cell_angle_gamma                 60.867428
_cell_volume                      4364.25861771

loop_
_atom_site_label
_atom_site_type_symbol
_atom_site_description
_atom_site_fract_x
_atom_site_fract_y
_atom_site_fract_z
_atom_type_partial_charge
Zn1   Zn    Zn3+2 0.206620 0.206630 0.380140 1.030481
Zn2   Zn    Zn3+2 0.793380 0.793370 0.619860 0.999726
Zn3   Zn    Zn3+2 0.206630 0.380140 0.206620 1.009447
Zn4   Zn    Zn3+2 0.793370 0.619860 0.793380 1.042658
Zn5   Zn    Zn3+2 0.380140 0.206620 0.206630 0.966239
Zn6   Zn    Zn3+2 0.619860 0.793380 0.793370 0.998644
Zn7   Zn    Zn3+2 0.206620 0.206620 0.206620 1.120130
Zn8   Zn    Zn3+2 0.793380 0.793380 0.793380 1.129812
O1    O     O_3   0.250000 0.250000 0.250000 -0.514845
O2    O     O_3   0.750000 0.750000 0.750000 -0.515667
O3    O     O_R   0.305080 0.134200 0.134200 -0.612067
O4    O     O_R   0.694920 0.865800 0.865800 -0.618739
O5    O     O_R   0.134200 0.134200 0.305080 -0.569124
O6    O     O_R   0.865800 0.865800 0.694920 -0.588415
O7    O     O_R   0.134200 0.305080 0.134200 -0.584793
O8    O     O_R   0.865800 0.694920 0.865800 -0.552434
O9    O     O_R   0.134200 0.305090 0.426530 -0.625393
O10   O     O_R   0.865800 0.694910 0.573470 -0.644171
O11   O     O_R   0.305090 0.426530 0.134200 -0.657697
O12   O     O_R   0.694910 0.573470 0.865800 -0.658048
O13   O     O_R   0.426530 0.134200 0.305090 -0.658034
O14   O     O_R   0.573470 0.865800 0.694910 -0.658464
O15   O     O_R   0.134190 0.426530 0.134200 -0.632262
O16   O     O_R   0.865810 0.573470 0.865800 -0.623531
O17   O     O_R   0.426530 0.134200 0.134190 -0.649795
O18   O     O_R   0.573470 0.865800 0.865810 -0.625402
O19   O     O_R   0.134200 0.134190 0.426530 -0.611766
O20   O     O_R   0.865800 0.865810 0.573470 -0.636670
O21   O     O_R   0.426530 0.305080 0.134210 -0.628457
O22   O     O_R   0.573470 0.694920 0.865790 -0.621036
O23   O     O_R   0.305080 0.134210 0.426530 -0.639346
O24   O     O_R   0.694920 0.865790 0.573470 -0.641118
O25   O     O_R   0.134210 0.426530 0.305080 -0.626933
O26   O     O_R   0.865790 0.573470 0.694920 -0.614035
C1    C     C_R   0.388954 0.103562 0.116232 0.806607
C2    C     C_R   0.610237 0.889653 0.890958 0.859815
C3    C     C_R   0.108709 0.111642 0.389292 0.871470
C4    C     C_R   0.891132 0.889540 0.611261 0.830609
C5    C     C_R   0.108823 0.388661 0.110531 0.841787
C6    C     C_R   0.891365 0.610746 0.888205 0.907688
C7    C     C_R   0.110969 0.390258 0.389743 0.845311
C8    C     C_R   0.889161 0.609720 0.610265 0.840446
C9    C     C_R   0.390436 0.389571 0.110818 0.791753
C10   C     C_R   0.609533 0.610458 0.889448 0.812039
C11   C     C_R   0.389713 0.110729 0.390333 0.785408
C12   C     C_R   0.610268 0.889218 0.609674 0.780208
H1    H     H_    0.271120 0.831844 0.560333 0.176367
H2    H     H_    0.722708 0.173591 0.439703 0.178264
H3    H     H_    0.277814 0.559357 0.825607 0.157118
H4    H     H_    0.729503 0.437095 0.167173 0.167324
H5    H     H_    0.659648 0.893014 0.204730 0.165647
H6    H     H_    0.329293 0.086367 0.831852 0.165452
C13   C     C_R   0.916487 0.185635 0.410561 0.375700
C14   C     C_R   0.048020 0.865734 0.649536 0.368890
C15   C     C_R   0.952165 0.350252 0.134293 0.364806
C16   C     C_R   0.083530 0.589382 0.813952 0.374395
C17   C     C_R   0.314344 0.048272 0.040263 0.358436
C18   C     C_R   0.651694 0.841356 0.053602 0.361846
C19   C     C_R   0.832472 0.212303 0.405018 -0.190947
C20   C     C_R   0.138407 0.828399 0.642430 -0.177122
C21   C     C_R   0.861974 0.356641 0.171653 -0.183779
C22   C     C_R   0.167690 0.594715 0.787097 -0.159178
C23   C     C_R   0.287157 0.072841 0.969057 -0.182893
C24   C     C_R   0.683514 0.838253 0.111717 -0.152992
C25   C     C_R   0.788210 0.151713 0.443426 -0.157063
C26   C     C_R   0.201743 0.860084 0.564767 -0.136954
C27   C     C_R   0.798653 0.433403 0.139360 -0.202114
C28   C     C_R   0.212143 0.555909 0.847661 -0.204746
C29   C     C_R   0.350335 0.066395 0.887006 -0.217266
C30   C     C_R   0.636974 0.899288 0.156297 -0.231459
C31   C     C_R   0.824408 0.064910 0.493091 -0.117191
C32   C     C_R   0.174322 0.934837 0.497093 -0.100899
C33   C     C_R   0.826005 0.500881 0.064288 -0.075755
C34   C     C_R   0.175870 0.506252 0.934640 -0.147175
C35   C     C_R   0.440423 0.026078 0.878624 -0.130772
C36   C     C_R   0.556478 0.962414 0.145997 -0.139271
C37   C     C_R   0.909318 0.035275 0.499978 0.036060
C38   C     C_R   0.083417 0.973682 0.503292 0.020352
C39   C     C_R   0.916612 0.495980 0.026078 0.037510
C40   C     C_R   0.090718 0.499742 0.964532 0.058110
C41   C     C_R   0.468302 0.996979 0.951403 0.036424
C42   C     C_R   0.525800 0.972799 0.082362 0.063831
C43   C     C_R   0.959570 0.093993 0.451096 -0.018427
C44   C     C_R   0.023076 0.929392 0.572567 -0.031949
C45   C     C_R   0.976816 0.427278 0.070695 -0.029991
C46   C     C_R   0.040406 0.548806 0.905825 -0.029527
C47   C     C_R   0.406509 0.025877 0.024247 -0.026892
C48   C     C_R   0.578239 0.916072 0.029546 -0.030052
C49   C     C_R   0.941866 0.951672 0.560514 -0.116839
C50   C     C_R   0.050387 0.058284 0.445638 -0.101526
C51   C     C_R   0.949574 0.554216 0.941651 -0.102224
C52   C     C_R   0.058029 0.439382 0.048351 -0.117258
C53   C     C_R   0.553761 0.936798 0.956163 -0.128636
C54   C     C_R   0.440500 0.032269 0.075661 -0.121706
H7    H     H_    0.799022 0.281529 0.374740 0.168048
H8    H     H_    0.159003 0.779833 0.699620 0.171162
H9    H     H_    0.841697 0.299317 0.220190 0.173937
H10   H     H_    0.201108 0.625109 0.717713 0.162959
H11   H     H_    0.217408 0.093519 0.977849 0.201859
H12   H     H_    0.740777 0.783842 0.128475 0.198272
H13   H     H_    0.783282 0.023048 0.528349 0.159005
H14   H     H_    0.224386 0.962815 0.440952 0.133402
H15   H     H_    0.776014 0.555638 0.035534 0.179349
H16   H     H_    0.217131 0.470680 0.976430 0.145289
H17   H     H_    0.487321 0.017498 0.815343 0.143759
H18   H     H_    0.517775 0.998705 0.192299 0.172011
H19   H     H_    0.216313 0.695092 0.070879 0.164265
H20   H     H_    0.787046 0.305702 0.930787 0.166780
H21   H     H_    0.696337 0.071572 0.214399 0.162752
H22   H     H_    0.302961 0.930502 0.791229 0.159881
H23   H     H_    0.067626 0.207359 0.697469 0.166216
H24   H     H_    0.931848 0.792082 0.302153 0.168900
C55   C     C_R   0.224042 0.619109 0.203164 -0.066313
C56   C     C_R   0.778575 0.379634 0.798624 -0.073424
C57   C     C_R   0.623273 0.204045 0.221372 -0.081048
C58   C     C_R   0.372852 0.798167 0.783608 -0.082034
C59   C     C_R   0.200044 0.216239 0.625190 -0.090933
C60   C     C_R   0.799238 0.783657 0.373986 -0.089697
H25   H     H_    0.292042 0.614961 0.184006 0.203065
H26   H     H_    0.710731 0.382960 0.818460 0.201522
H27   H     H_    0.621412 0.185196 0.288306 0.197175
H28   H     H_    0.372430 0.817702 0.717431 0.200904
H29   H     H_    0.180081 0.282978 0.624014 0.210445
H30   H     H_    0.818900 0.717222 0.374545 0.210294
C61   C     C_R   0.178953 0.579086 0.291709 -0.249700
C62   C     C_R   0.823068 0.419216 0.709662 -0.249353
C63   C     C_R   0.583125 0.292472 0.176689 -0.266099
C64   C     C_R   0.412952 0.709305 0.827285 -0.270483
C65   C     C_R   0.289269 0.172852 0.584927 -0.266466
C66   C     C_R   0.710113 0.827102 0.414425 -0.270778
H31   H     H_    0.212589 0.544075 0.340600 0.159107
H32   H     H_    0.789110 0.453087 0.661174 0.159734
H33   H     H_    0.550296 0.341531 0.209592 0.153513
H34   H     H_    0.443450 0.660671 0.794336 0.151531
H35   H     H_    0.337764 0.206547 0.552792 0.154881
H36   H     H_    0.661391 0.793774 0.446048 0.156260
C67   C     C_R   0.091024 0.583577 0.316724 0.003004
C68   C     C_R   0.910726 0.415971 0.683743 -0.004038
C69   C     C_R   0.584605 0.317149 0.090177 0.011040
C70   C     C_R   0.414588 0.683658 0.912749 0.001716
C71   C     C_R   0.315458 0.086691 0.585225 0.014233
C72   C     C_R   0.684306 0.912868 0.414895 0.015900
C73   C     C_R   0.048713 0.628424 0.252226 0.664289
C74   C     C_R   0.953442 0.372676 0.747728 0.681042
C75   C     C_R   0.626835 0.252489 0.048731 0.662803
C76   C     C_R   0.375382 0.747797 0.954242 0.677140
C77   C     C_R   0.251506 0.044245 0.626397 0.647920
C78   C     C_R   0.748498 0.954908 0.374259 0.646485
C79   C     C_R   0.094008 0.668642 0.163846 -0.213189
C80   C     C_R   0.908734 0.332892 0.836548 -0.213730
C81   C     C_R   0.667021 0.164167 0.093693 -0.214903
C82   C     C_R   0.335231 0.836588 0.910275 -0.210091
C83   C     C_R   0.162386 0.087846 0.666901 -0.197254
C84   C     C_R   0.837518 0.911253 0.333574 -0.201080
H37   H     H_    0.061528 0.702894 0.114133 0.175521
H38   H     H_    0.941473 0.299940 0.885885 0.177645
H39   H     H_    0.699068 0.114277 0.062000 0.172324
H40   H     H_    0.305584 0.886065 0.941966 0.172828
H41   H     H_    0.113072 0.055342 0.698194 0.178530
H42   H     H_    0.887026 0.943444 0.302636 0.181389
C85   C     C_R   0.181484 0.664091 0.139371 -0.179526
C86   C     C_R   0.821468 0.336295 0.861950 -0.180986
C87   C     C_R   0.665329 0.139999 0.179833 -0.179698
C88   C     C_R   0.333898 0.861725 0.825109 -0.187363
C89   C     C_R   0.136690 0.173704 0.666357 -0.178715
C90   C     C_R   0.862858 0.825759 0.333406 -0.179025
C91   C     C_R   0.988815 0.590468 0.465311 -0.213132
C92   C     C_R   0.011700 0.409405 0.534774 -0.202957
C93   C     C_R   0.590663 0.465966 0.989357 -0.242302
C94   C     C_R   0.409094 0.534289 0.011803 -0.251316
C95   C     C_R   0.464973 0.987331 0.591037 -0.249931
C96   C     C_R   0.534868 0.012295 0.409068 -0.250818
H43   H     H_    0.981393 0.660396 0.438164 0.171160
H44   H     H_    0.019097 0.339484 0.561923 0.178835
H45   H     H_    0.660829 0.439265 0.982038 0.166645
H46   H     H_    0.338928 0.561010 0.019123 0.167521
H47   H     H_    0.437636 0.979041 0.661348 0.164744
H48   H     H_    0.562157 0.020461 0.338788 0.162699
C97   C     C_R   0.944758 0.552516 0.555031 -0.052078
C98   C     C_R   0.055698 0.447377 0.445041 -0.060632
C99   C     C_R   0.552164 0.555420 0.945574 -0.042000
C100  C     C_R   0.447643 0.444779 0.055393 -0.041997
C101  C     C_R   0.555080 0.944745 0.552468 -0.042500
C102  C     C_R   0.444822 0.055037 0.447593 -0.043021
C103  C     C_R   0.956395 0.460677 0.590220 0.063649
C104  C     C_R   0.044417 0.539116 0.409946 0.064557
C105  C     C_R   0.459997 0.590175 0.957319 0.068805
C106  C     C_R   0.539627 0.410205 0.044261 0.068811
C107  C     C_R   0.590491 0.957342 0.460212 0.070253
C108  C     C_R   0.409351 0.042331 0.539885 0.069757
N1    N     N_R   0.949717 0.253709 0.387437 0.173576
O27   O     O_R   0.963071 0.259148 0.448281 -0.402523
O28   O     O_R   0.944546 0.321741 0.315516 -0.422542
N2    N     N_R   0.984062 0.858022 0.737415 0.229117
O29   O     O_R   0.921856 0.929305 0.754947 -0.366281
O30   O     O_R   0.999049 0.785455 0.803411 -0.383391
N3    N     N_R   0.016380 0.262952 0.141015 0.234991
O31   O     O_R   0.078341 0.246567 0.068952 -0.361694
O32   O     O_R   0.001699 0.196509 0.213227 -0.351490
N4    N     N_R   0.050183 0.612758 0.745765 0.166022
O33   O     O_R   0.036854 0.552177 0.740020 -0.361355
O34   O     O_R   0.055260 0.684729 0.677814 -0.436308
N5    N     N_R   0.252459 0.029040 0.129566 0.234608
O35   O     O_R   0.281644 0.972200 0.196126 -0.393040
O36   O     O_R   0.167329 0.057782 0.143486 -0.305156
N6    N     N_R   0.684620 0.761747 0.033517 0.192282
O37   O     O_R   0.628882 0.732473 0.039260 -0.422613
O38   O     O_R   0.764808 0.707745 0.032499 -0.420081
F1    F     F_    0.964708 0.631276 0.274517 -0.685397
F2    F     F_    0.037192 0.371064 0.724517 -0.667087
F3    F     F_    0.627284 0.274651 0.965885 -0.692389
F4    F     F_    0.377842 0.724634 0.036131 -0.672898
F5    F     F_    0.275068 0.961873 0.625333 -0.710585
F6    F     F_    0.725207 0.037022 0.375810 -0.710647

loop_
_geom_bond_atom_site_label_1
_geom_bond_atom_site_label_2
_geom_bond_distance
_ccdc_geom_bond_type
N2    O30   1.300990 A    
N5    O35   1.302284 A    
C40   C52   1.419234 A    
C57   H27   1.081867 S    
H3    C28   1.082837 S    
Zn2   O10   1.942869 S    
C7    C98   1.459906 S    
C91   C97   1.398417 A    
O26   C8    1.280366 A    
C31   C37   1.415217 A    
C74   F2    1.356516 S    
C99   C105  1.416096 A    
C73   F1    1.356455 S    
Zn3   O25   1.940489 S    
C94   H46   1.084285 S    
C38   C50   1.408047 A    
Zn7   O3    1.946861 S    
N5    O36   1.301032 A    
C4    C49   1.469377 S    
C37   C49   1.419447 A    
Zn5   O1    1.953241 S    
C58   H28   1.081605 S    
C3    C50   1.448581 S    
C42   C54   1.420082 A    
C81   H39   1.082474 S    
C95   C101  1.397689 A    
O19   C3    1.269303 A    
C56   H26   1.081852 S    
C46   C51   1.420332 A    
O10   C8    1.291805 A    
Zn4   O16   1.927850 S    
C42   C48   1.423131 A    
C56   C86   1.398081 A    
C55   C61   1.398303 A    
C18   N6    1.436884 S    
C28   C34   1.390303 A    
Zn6   O14   1.939131 S    
C47   C54   1.420157 A    
Zn1   O23   1.937153 S    
C57   C63   1.398233 A    
C61   H31   1.083115 S    
Zn2   O24   1.937155 S    
N3    O32   1.301070 A    
C21   C27   1.386902 A    
C23   H11   1.082562 S    
H6    C29   1.082881 S    
C82   C88   1.397639 A    
C65   H35   1.083132 S    
Zn3   O15   1.927852 S    
C2    C53   1.468252 S    
C26   C32   1.389429 A    
H19   C85   1.081573 S    
C59   C89   1.398074 A    
N4    O33   1.301282 A    
C94   C105  1.385953 A    
C33   H15   1.081823 S    
C32   C38   1.415520 A    
Zn3   O11   1.936304 S    
C15   N3    1.434501 S    
C27   C33   1.388736 A    
H5    C30   1.083295 S    
C24   C30   1.383319 A    
H2    C25   1.082849 S    
O4    C2    1.274738 A    
C59   C65   1.397711 A    
H4    C27   1.082717 S    
C39   C51   1.408972 A    
H1    C26   1.082742 S    
O5    C3    1.271680 A    
C13   C19   1.400203 A    
C41   C47   1.398433 A    
C91   H43   1.084355 S    
C16   C22   1.400054 A    
C83   C89   1.397820 A    
Zn7   O7    1.946289 S    
N2    O29   1.302444 A    
C67   C73   1.405697 A    
C20   C26   1.387950 A    
Zn8   O8    1.946291 S    
C34   C40   1.415219 A    
C94   C100  1.399004 A    
C68   C74   1.405882 A    
C57   C87   1.398115 A    
O22   C10   1.280070 A    
C78   C84   1.398506 A    
O13   C11   1.289435 A    
C66   C72   1.402853 A    
C101  C107  1.416850 A    
C14   C44   1.429663 A    
O12   C10   1.289668 A    
C45   C52   1.428323 A    
O11   C9    1.289162 A    
C17   C23   1.404807 A    
Zn5   O21   1.940665 S    
C18   C24   1.403057 A    
C80   C86   1.397396 A    
Zn4   O26   1.940487 S    
N1    O27   1.301251 A    
C66   H36   1.083142 S    
C23   C29   1.391262 A    
C68   C103  1.478528 S    
Zn1   O1    1.957154 S    
H21   C87   1.081676 S    
C70   C76   1.406368 A    
O17   C1    1.287179 A    
H22   C88   1.082019 S    
N6    O37   1.301718 A    
C35   C41   1.416583 A    
C65   C71   1.402951 A    
C14   C20   1.404082 A    
Zn8   O6    1.945018 S    
C61   C67   1.403513 A    
C92   C98   1.398383 A    
C74   C80   1.398452 A    
H20   C86   1.081688 S    
C60   C90   1.398106 A    
C17   C47   1.426225 A    
C95   C108  1.385617 A    
C18   C48   1.432737 A    
C12   C101  1.456996 S    
C15   C45   1.429008 A    
C92   H44   1.084344 S    
N1    O28   1.300272 A    
C84   H42   1.082418 S    
C60   C66   1.397602 A    
C64   H34   1.083137 S    
O6    C4    1.261438 A    
C41   C53   1.416676 A    
C96   C102  1.397450 A    
C16   C46   1.429950 A    
Zn7   O5    1.945016 S    
C8    C97   1.460226 S    
Zn8   O4    1.946863 S    
H24   C90   1.081869 S    
C17   N5    1.442702 S    
C93   H45   1.084318 S    
Zn5   O13   1.939128 S    
C55   H25   1.081984 S    
C95   H47   1.084394 S    
Zn3   O1    1.961862 S    
C13   N1    1.435800 S    
C72   C78   1.405889 A    
O7    C5    1.263384 A    
C75   C81   1.398641 A    
C98   C104  1.416959 A    
C19   H7    1.082575 S    
C82   H40   1.082630 S    
H23   C89   1.081994 S    
C20   H8    1.081796 S    
O18   C2    1.274690 A    
O14   C12   1.289306 A    
O8    C6    1.274397 A    
C35   H17   1.081457 S    
C81   C87   1.397380 A    
C30   C36   1.386309 A    
Zn5   O17   1.932811 S    
C79   C85   1.397304 A    
C44   C49   1.428253 A    
C58   C64   1.398102 A    
C36   C42   1.416783 A    
C69   C106  1.478642 S    
Zn2   O2    1.957151 S    
C60   H30   1.081500 S    
C5    C52   1.470196 S    
C39   C45   1.404053 A    
C83   H41   1.082476 S    
C31   H13   1.079953 S    
C34   H16   1.079947 S    
C67   C104  1.478691 S    
C1    C54   1.481866 S    
C96   H48   1.084425 S    
Zn7   O1    1.924686 S    
C43   C50   1.420498 A    
C48   C53   1.433463 A    
C62   C68   1.403312 A    
C36   H18   1.076657 S    
C92   C103  1.387355 A    
Zn6   O22   1.940664 S    
C93   C99   1.399010 A    
C70   C105  1.478922 S    
O24   C12   1.277523 A    
C58   C88   1.398224 A    
C21   H9    1.081674 S    
C71   C108  1.478217 S    
C63   H33   1.083127 S    
C93   C106  1.386221 A    
C33   C39   1.416578 A    
C78   F6    1.356880 S    
Zn6   O2    1.953243 S    
C76   F4    1.356877 S    
C77   F5    1.356678 S    
C97   C103  1.417156 A    
C96   C107  1.385486 A    
C80   H38   1.082460 S    
C9    C100  1.457269 S    
Zn1   O9    1.942870 S    
C22   C28   1.387548 A    
C13   C43   1.429740 A    
O25   C7    1.280530 A    
O3    C1    1.268009 A    
C79   H37   1.082404 S    
C24   H12   1.082785 S    
C14   N2    1.435943 S    
C25   C31   1.390327 A    
C19   C25   1.387679 A    
C91   C104  1.387561 A    
Zn6   O18   1.932809 S    
C32   H14   1.082686 S    
C76   C82   1.398881 A    
O15   C5    1.293659 A    
C15   C21   1.403548 A    
O16   C6    1.269285 A    
C29   C35   1.393264 A    
C102  C108  1.416993 A    
C6    C51   1.448351 S    
C59   H29   1.081500 S    
N3    O31   1.302566 A    
C77   C83   1.398584 A    
O9    C7    1.291480 A    
C62   H32   1.083115 S    
C71   C77   1.405995 A    
C55   C85   1.397996 A    
Zn4   O12   1.936302 S    
C38   C44   1.403840 A    
C40   C46   1.417047 A    
C73   C79   1.398409 A    
C22   H10   1.082597 S    
Zn8   O2    1.924684 S    
O23   C11   1.277249 A    
Zn1   O19   1.928965 S    
C56   C62   1.398158 A    
C37   C43   1.417173 A    
C84   C90   1.397772 A    
Zn2   O20   1.928966 S    
C75   F3    1.356712 S    
O20   C4    1.292358 A    
C100  C106  1.415683 A    
N6    O38   1.300483 A    
Zn4   O2    1.961865 S    
C10   C99   1.457345 S    
C63   C69   1.403289 A    
N4    O34   1.300274 A    
O21   C9    1.280553 A    
C72   C107  1.477779 S    
C11   C102  1.456733 S    
C69   C75   1.405912 A    
C64   C70   1.403009 A    
C16   N4    1.435832 S    
