data_mof_unit_39957.cif
_audit_creation_date              2012-12-10T18:59:18-0500
_audit_creation_method            fapswitch 2.2
_symmetry_space_group_name_H-M    P1
_symmetry_Int_Tables_number       1
_space_group_crystal_system       triclinic
_cell_length_a                    10.766212
_cell_length_b                    10.818331
_cell_length_c                    9.553316
_cell_angle_alpha                 89.932917
_cell_angle_beta                  89.740792
_cell_angle_gamma                 89.998745
_cell_volume                      1112.68592318

loop_
_atom_site_label
_atom_site_type_symbol
_atom_type_description
_atom_site_fract_x
_atom_site_fract_y
_atom_site_fract_z
_atom_type_partial_charge
C1    C     C_R   0.502585 0.262317 0.499990 0.793720
C2    C     C_R   0.064966 0.608422 0.568063 0.099238
C3    C     C_R   0.128774 0.510689 0.500678 -0.096433
C4    C     C_R   0.064379 0.418255 0.429705 -0.230248
C5    C     C_R   0.936228 0.418103 0.429458 -0.192001
C6    C     C_R   0.870965 0.511069 0.499003 -0.090908
C7    C     C_R   0.521519 0.063406 0.625040 0.137954
C8    C     C_R   0.515836 0.129206 0.499480 -0.096629
C9    C     C_R   0.528716 0.064514 0.372616 -0.223798
C10   C     C_R   0.528725 0.935664 0.372590 -0.220618
C11   C     C_R   0.515904 0.870695 0.499415 -0.092233
C12   C     C_R   0.262576 0.503289 0.500297 0.787352
C13   C     C_R   0.521623 0.936173 0.625053 0.114958
C14   C     C_3   0.440123 0.929607 0.751852 -0.467424
C15   C     C_3   0.440134 0.069912 0.751834 -0.483351
C16   C     C_R   0.546050 0.598743 0.072681 0.176253
C17   C     C_R   0.443097 0.408635 0.074836 -0.060213
C18   C     C_R   0.443253 0.408537 0.926019 -0.058845
C19   C     C_R   0.544185 0.599550 0.925696 0.173411
C20   C     C_3   0.670753 0.654157 0.915832 -0.539404
C21   C     C_3   0.674511 0.651994 0.075211 0.298864
C22   C     C_R   0.502621 0.737656 0.499883 0.768945
C23   C     C_R   0.737351 0.503077 0.499673 0.791558
C24   C     C_R   0.128316 0.707229 0.633125 -0.182736
C25   C     C_R   0.062663 0.803835 0.695633 -0.145588
C26   C     C_R   0.933492 0.805059 0.692379 -0.140905
C27   C     C_R   0.869221 0.709462 0.627138 -0.201970
C28   C     C_R   0.933723 0.609115 0.566085 0.086111
Cu1   Cu    Cu3+1 0.499990 0.499980 0.640670 0.940797
Cu2   Cu    Cu3+1 0.500010 0.500020 0.359330 0.967539
H1    H     H_    0.113748 0.344434 0.376672 0.147311
H2    H     H_    0.488740 0.889306 0.843522 0.188276
H3    H     H_    0.347491 0.110769 0.729550 0.193050
H4    H     H_    0.489306 0.110085 0.843182 0.193894
H5    H     H_    0.398750 0.333545 0.130687 0.128673
H6    H     H_    0.398886 0.333518 0.870833 0.131640
H7    H     H_    0.738825 0.590796 0.865548 0.245714
H8    H     H_    0.669385 0.749317 0.872108 0.143040
H9    H     H_    0.676132 0.744867 0.125806 0.054177
H10   H     H_    0.228544 0.711875 0.634565 0.139257
H11   H     H_    0.112175 0.878916 0.745203 0.128060
H12   H     H_    0.882852 0.881016 0.739301 0.132418
H13   H     H_    0.769112 0.716051 0.623394 0.141501
H14   H     H_    0.887529 0.344114 0.376449 0.157617
H15   H     H_    0.532263 0.112686 0.273218 0.163247
H16   H     H_    0.532140 0.887742 0.273190 0.151968
H17   H     H_    0.347569 0.889056 0.729533 0.191318
N1    N     N_R   0.500790 0.500930 0.147930 -0.163540
N2    N     N_R   0.500790 0.500890 0.852020 -0.165699
O1    O     O_R   0.500000 0.319640 0.618810 -0.580890
O2    O     O_R   0.500010 0.319680 0.381230 -0.591483
O3    O     O_R   0.319640 0.499980 0.618820 -0.582574
O4    O     O_R   0.319650 0.500020 0.381230 -0.581085
O5    O     O_R   0.499990 0.680320 0.618770 -0.586748
O6    O     O_R   0.500000 0.680360 0.381190 -0.594298
O7    O     O_R   0.680350 0.499980 0.618770 -0.587137
O8    O     O_R   0.680360 0.500020 0.381180 -0.518775
O9    O     O_3   0.762576 0.566069 0.125208 -0.521212
C29   C     C_3   0.877825 0.626119 0.141742 -0.278137
H18   H     H_    0.873559 0.693284 0.229727 0.155103
H19   H     H_    0.908263 0.673082 0.043620 0.155241
H20   H     H_    0.949154 0.555910 0.167637 0.196679

loop_
_geom_bond_atom_site_label_1
_geom_bond_atom_site_label_2
_ccdc_geom_bond_type
C10   H16   S    
Cu2   O2    S    
C15   H4    S    
C9    H15   S    
C16   C21   S    
Cu1   O7    S    
C1    C8    S    
C20   H8    S    
C9    C10   A    
C19   N2    A    
C11   C22   S    
C12   O4    A    
C21   H9    S    
C17   N1    A    
Cu1   O5    S    
C21   O9    S    
C16   N1    A    
C7    C15   S    
C17   C18   A    
O9    C29   S    
C22   O6    A    
C29   H18   S    
C22   O5    A    
Cu1   N2    S    
C13   C14   S    
C20   C21   S    
C20   H7    S    
C1    O2    A    
C23   O7    A    
C26   C27   A    
C14   H17   S    
C16   C19   A    
C6    C23   S    
Cu2   N1    S    
C12   O3    A    
C5    H14   S    
C2    C3    A    
Cu1   O1    S    
C2    C24   A    
C5    C6    A    
Cu2   O4    S    
C29   H19   S    
C11   C13   A    
C7    C8    A    
C10   C11   A    
Cu1   Cu2   S    
C3    C4    A    
C4    H1    S    
Cu2   O8    S    
C27   H13   S    
C7    C13   A    
C24   C25   A    
C26   H12   S    
C1    O1    A    
C25   H11   S    
C27   C28   A    
C23   O8    A    
C14   C15   S    
C4    C5    A    
C29   H20   S    
C2    C28   A    
C3    C12   S    
C17   H5    S    
C24   H10   S    
C25   C26   A    
C18   H6    S    
Cu2   O6    S    
C15   H3    S    
C6    C28   A    
C19   C20   S    
C18   N2    A    
C14   H2    S    
C8    C9    A    
Cu1   O3    S    
