data_mof_unit_43500.cif
_audit_creation_date              2012-12-10T21:00:50-0500
_audit_creation_method            fapswitch 2.2
_symmetry_space_group_name_H-M    P1
_symmetry_Int_Tables_number       1
_space_group_crystal_system       triclinic
_cell_length_a                    18.136717
_cell_length_b                    18.182923
_cell_length_c                    18.308444
_cell_angle_alpha                 119.959091
_cell_angle_beta                  89.885932
_cell_angle_gamma                 120.030008
_cell_volume                      4274.25145782

loop_
_atom_site_label
_atom_site_type_symbol
_atom_type_description
_atom_site_fract_x
_atom_site_fract_y
_atom_site_fract_z
_atom_type_partial_charge
C1    C     C_R   0.112135 0.220049 0.609752 0.500349
C2    C     C_3   0.450576 0.897513 0.947491 0.048161
C3    C     C_3   0.445813 0.032318 0.013461 -0.069551
C4    C     C_3   0.554260 0.967717 0.986522 -0.072192
C5    C     C_3   0.412990 0.429702 0.448080 -0.078594
C6    C     C_3   0.587054 0.570349 0.551933 -0.088047
C7    C     C_3   0.483116 0.405156 0.448826 -0.105638
C8    C     C_3   0.516930 0.594897 0.551200 -0.113228
C9    C     C_3   0.550828 0.500145 0.449403 0.049850
C10   C     C_3   0.449207 0.499900 0.550616 0.053893
C11   C     C_3   0.481643 0.524747 0.447840 -0.135488
C12   C     C_R   0.887747 0.779937 0.390245 0.499866
C13   C     C_3   0.518410 0.475316 0.552191 -0.127481
C14   C     C_R   0.224853 0.188451 0.804246 -0.097251
C15   C     C_R   0.772873 0.811343 0.196927 -0.100486
C16   C     C_R   0.392933 0.781180 0.888300 0.507235
C17   C     C_R   0.607078 0.218829 0.111694 0.504235
C18   C     C_R   0.182558 0.144329 0.715560 -0.058261
C19   C     C_R   0.815788 0.854854 0.285232 -0.058202
C20   C     C_R   0.089779 0.098218 0.684654 0.057502
C21   C     C_R   0.908814 0.901765 0.315624 0.056143
C22   C     C_R   0.039790 0.095761 0.743101 -0.072288
C23   C     C_3   0.926557 0.402664 0.442083 -0.116103
C24   C     C_R   0.958379 0.905551 0.257007 -0.069183
C25   C     C_R   0.082413 0.140340 0.831778 -0.080742
C26   C     C_R   0.915140 0.861577 0.168708 -0.082062
C27   C     C_R   0.174841 0.186700 0.862336 -0.090009
C28   C     C_R   0.822500 0.814499 0.138693 -0.100989
C29   C     C_R   0.986766 0.943413 0.535171 -0.150937
C30   C     C_R   0.012742 0.056556 0.464870 -0.148295
C31   C     C_R   0.942773 0.892276 0.445085 0.018059
C32   C     C_R   0.056817 0.107689 0.554937 0.018643
C33   C     C_R   0.955144 0.949431 0.409359 -0.035595
C34   C     C_3   0.073494 0.597435 0.557990 -0.123829
C35   C     C_R   0.044186 0.050521 0.590709 -0.035699
C36   C     C_R   0.660710 0.624338 0.812818 -0.098231
C37   C     C_R   0.343142 0.374933 0.188461 -0.089967
C38   C     C_R   0.612817 0.567495 0.846907 -0.142417
C39   C     C_R   0.390748 0.432425 0.154800 -0.132832
C40   C     C_R   0.109773 0.499632 0.888590 0.502850
C41   C     C_R   0.890208 0.500354 0.111394 0.502420
C42   C     C_R   0.594169 0.614023 0.925411 0.044309
C43   C     C_R   0.405820 0.385215 0.073977 0.045530
C44   C     C_R   0.624011 0.717948 0.969649 -0.130134
C45   C     C_3   0.451706 0.966333 0.921389 -0.105003
C46   C     C_R   0.372783 0.280029 0.027057 -0.123827
C47   C     C_R   0.671582 0.774543 0.935334 -0.083766
C48   C     C_R   0.325182 0.222644 0.060742 -0.099578
C49   C     C_R   0.690771 0.728300 0.857217 0.307758
C50   C     C_R   0.309720 0.269668 0.141302 0.255384
C51   C     C_R   0.592591 0.550394 0.015494 -0.165170
C52   C     C_R   0.407419 0.449580 0.984505 -0.165313
C53   C     C_R   0.550037 0.497796 0.054288 0.021244
C54   C     C_R   0.449989 0.502285 0.945787 0.021763
C55   C     C_R   0.456137 0.445618 0.038033 -0.028829
C56   C     C_3   0.548384 0.033713 0.078598 -0.119663
C57   C     C_R   0.543878 0.554311 0.961920 -0.027131
C58   C     C_R   0.071292 0.729467 0.886628 0.263884
C59   C     C_R   0.929749 0.271196 0.113951 0.302419
C60   C     C_R   0.071686 0.689581 0.935257 -0.033064
C61   C     C_R   0.928940 0.310665 0.065060 -0.043588
C62   C     C_R   0.002186 0.586930 0.903458 0.007093
C63   C     C_R   0.998022 0.413436 0.096779 0.004372
C64   C     C_R   0.392353 0.499996 0.607716 0.507166
C65   C     C_R   0.607654 0.500015 0.392286 0.504934
C66   C     C_R   0.930670 0.525783 0.824517 -0.114982
C67   C     C_3   0.556077 0.037973 0.961149 -0.109917
C68   C     C_R   0.069460 0.475136 0.175941 -0.117179
C69   C     C_R   0.929474 0.566145 0.776937 -0.154728
C70   C     C_R   0.071031 0.435180 0.223785 -0.165705
C71   C     C_R   0.999895 0.667292 0.807391 -0.081539
C72   C     C_R   0.001054 0.333886 0.193379 -0.057887
C73   C     C_R   0.951157 0.541928 0.008048 -0.148833
C74   C     C_R   0.048710 0.457944 0.991839 -0.149127
C75   C     C_R   0.946855 0.499262 0.055077 0.020481
C76   C     C_R   0.053058 0.500665 0.944848 0.019889
C77   C     C_R   0.996214 0.456515 0.046861 -0.029049
C78   C     C_3   0.444003 0.962072 0.038848 -0.111183
C79   C     C_R   0.003704 0.543432 0.953076 -0.030470
C80   C     C_R   0.394023 0.500298 0.888872 0.504817
C81   C     C_R   0.605984 0.499711 0.111138 0.505743
C82   C     C_R   0.109016 0.500207 0.607635 0.504252
C83   C     C_R   0.891003 0.499819 0.392377 0.506509
C84   C     C_3   0.025148 0.438685 0.448217 -0.106189
C85   C     C_3   0.974903 0.561417 0.551851 -0.112313
C86   C     C_3   0.046466 0.536023 0.454955 -0.126236
C87   C     C_3   0.953585 0.464081 0.545120 -0.131079
C88   C     C_3   0.948708 0.499927 0.449527 0.065576
C89   C     C_3   0.549485 0.102517 0.052493 0.040391
C90   C     C_3   0.051338 0.500162 0.550532 0.063181
H1    H     H_    0.083815 0.566181 0.417534 0.106764
H2    H     H_    0.030255 0.942014 0.279636 0.129725
H3    H     H_    0.043786 0.138902 0.876800 0.151853
H4    H     H_    0.953468 0.864112 0.123577 0.154704
H5    H     H_    0.978219 0.899832 0.562566 0.154235
H6    H     H_    0.021249 0.100172 0.437524 0.155743
H7    H     H_    0.674282 0.587233 0.751960 0.134060
H8    H     H_    0.332362 0.412508 0.251135 0.131733
H9    H     H_    0.590071 0.487316 0.812143 0.106856
H10   H     H_    0.416123 0.513625 0.191718 0.103716
H11   H     H_    0.610016 0.754737 0.030346 0.108676
H12   H     H_    0.916251 0.433989 0.582589 0.107489
H13   H     H_    0.384133 0.242761 0.964627 0.112768
H14   H     H_    0.046544 0.388292 0.406232 0.136901
H15   H     H_    0.953524 0.611823 0.593858 0.134909
H16   H     H_    0.693447 0.854323 0.969635 0.150083
H17   H     H_    0.300384 0.141647 0.024033 0.176149
H18   H     H_    0.664500 0.589032 0.026739 0.146905
H19   H     H_    0.335499 0.410853 0.973201 0.145824
H20   H     H_    0.998919 0.697058 0.769135 0.137789
H21   H     H_    0.002356 0.304382 0.231777 0.155266
H22   H     H_    0.126869 0.736842 0.996280 0.144375
H23   H     H_    0.207524 0.221194 0.931024 0.126868
H24   H     H_    0.873816 0.262908 0.003843 0.141304
H25   H     H_    0.876223 0.446881 0.799758 0.113279
H26   H     H_    0.123585 0.554136 0.200641 0.115648
H27   H     H_    0.874155 0.518762 0.716074 0.113288
H28   H     H_    0.126335 0.482960 0.284768 0.112474
H29   H     H_    0.912651 0.573662 0.013327 0.144600
H30   H     H_    0.087233 0.426237 0.986587 0.144223
H31   H     H_    0.865474 0.322684 0.393566 0.132519
H32   H     H_    0.134585 0.677410 0.606500 0.110323
H33   H     H_    0.602812 0.070276 0.929703 0.141481
H34   H     H_    0.789350 0.780566 0.070325 0.121421
H35   H     H_    0.397276 0.929782 0.070305 0.141189
H36   H     H_    0.411652 0.937689 0.856063 0.142379
H37   H     H_    0.588590 0.062429 0.143886 0.139972
H38   H     H_    0.401477 0.059656 0.024931 0.173142
H39   H     H_    0.598638 0.940440 0.975075 0.179113
H40   H     H_    0.470371 0.327460 0.405801 0.148419
H41   H     H_    0.529695 0.672604 0.594217 0.143181
H42   H     H_    0.340598 0.372104 0.406695 0.204272
H43   H     H_    0.659462 0.627927 0.593249 0.191306
H44   H     H_    0.467696 0.544953 0.403982 0.109030
H45   H     H_    0.296384 0.224092 0.827934 0.103400
H46   H     H_    0.532471 0.455264 0.596145 0.111730
H47   H     H_    0.717071 0.840526 0.733824 0.360227
H48   H     H_    0.346532 0.163945 0.194957 0.346182
H49   H     H_    0.186620 0.803722 0.796412 0.328542
H50   H     H_    0.831403 0.028543 0.090472 0.359007
H51   H     H_    0.701174 0.775161 0.173645 0.103625
H52   H     H_    0.221844 0.146180 0.671081 0.095198
H53   H     H_    0.776811 0.852044 0.329854 0.093237
H54   H     H_    0.968094 0.059973 0.720068 0.118121
O1    O     O_3   0.251620 0.500000 0.748430 -0.448845
O2    O     O_R   0.570330 0.268390 0.136490 -0.556577
O3    O     O_R   0.134680 0.268390 0.572240 -0.545589
O4    O     O_R   0.865320 0.731610 0.427760 -0.548620
O5    O     O_R   0.306670 0.731630 0.863510 -0.501097
O6    O     O_R   0.693330 0.268370 0.136490 -0.500005
O7    O     O_R   0.135450 0.439270 0.865360 -0.550066
O8    O     O_R   0.864550 0.560730 0.134640 -0.549700
O9    O     O_R   0.429670 0.560710 0.692610 -0.522838
O10   O     O_R   0.570330 0.439290 0.307390 -0.534059
O11   O     O_R   0.308540 0.439240 0.865360 -0.555359
O12   O     O_3   0.748380 0.500000 0.251570 -0.447358
O13   O     O_R   0.691460 0.560760 0.134640 -0.554431
O14   O     O_R   0.133580 0.439310 0.571150 -0.541714
O15   O     O_R   0.866420 0.560690 0.428850 -0.543746
O16   O     O_R   0.430770 0.560690 0.864590 -0.534742
O17   O     O_R   0.569230 0.439310 0.135410 -0.534971
O18   O     O_R   0.133580 0.560760 0.692610 -0.541397
O19   O     O_R   0.866420 0.439240 0.307390 -0.528462
O20   O     O_2   0.825945 0.909493 0.891045 -0.203078
O21   O     O_2   0.791218 0.751010 0.752468 -0.318636
O22   O     O_3   0.680732 0.804324 0.760142 -0.534794
O23   O     O_R   0.134680 0.560740 0.864590 -0.540427
O24   O     O_2   0.209629 0.245765 0.245914 -0.279500
O25   O     O_2   0.175255 0.087673 0.107805 -0.186705
O26   O     O_3   0.320631 0.193875 0.238919 -0.523866
O27   O     O_2   0.125153 0.909902 0.913108 -0.246461
O28   O     O_2   0.216782 0.917217 0.018156 -0.268701
O29   O     O_3   0.227174 0.846504 0.858333 -0.524731
O30   O     O_2   0.779543 0.152397 0.132557 -0.318576
O31   O     O_2   0.788028 0.080848 0.980852 -0.271808
O32   O     O_3   0.883362 0.088570 0.094182 -0.482528
O33   O     O_R   0.865320 0.439260 0.135410 -0.541034
O34   O     O_R   0.306670 0.439270 0.571150 -0.543698
O35   O     O_R   0.693330 0.560730 0.428850 -0.544360
O36   O     O_R   0.135450 0.268370 0.694460 -0.535071
O37   O     O_R   0.864550 0.731630 0.305540 -0.533840
O38   O     O_R   0.429670 0.731610 0.863510 -0.545427
S1    S     S_3+6 0.751521 0.800604 0.815097 0.012588
S2    S     S_3+6 0.249690 0.196849 0.183290 0.028254
S3    S     S_3+6 0.161302 0.855389 0.922337 0.011306
S4    S     S_3+6 0.840765 0.144912 0.078045 0.005262
Zn1   Zn    Zn3+2 0.207400 0.586780 0.791530 0.955433
Zn2   Zn    Zn3+2 0.792600 0.413220 0.208470 0.967725
Zn3   Zn    Zn3+2 0.208510 0.413230 0.792630 0.927335
Zn4   Zn    Zn3+2 0.791490 0.586770 0.207370 0.928760
Zn5   Zn    Zn3+2 0.383150 0.586740 0.791530 0.948225
Zn6   Zn    Zn3+2 0.616850 0.413260 0.208470 0.931461
Zn7   Zn    Zn3+2 0.207400 0.413250 0.618010 0.942648
Zn8   Zn    Zn3+2 0.792600 0.586750 0.381990 0.937778

loop_
_geom_bond_atom_site_label_1
_geom_bond_atom_site_label_2
_ccdc_geom_bond_type
C26   H4    S    
O15   Zn8   S    
C25   H3    S    
C73   H29   S    
H48   O26   S    
C14   C18   A    
O12   Zn8   S    
C17   O6    A    
C84   C90   S    
C76   C79   A    
C66   C69   A    
C6    C9    S    
C39   H10   S    
C23   H31   S    
C41   O8    A    
C26   C28   A    
C15   C19   A    
O29   S3    S    
O33   Zn2   S    
C74   C76   A    
O1    Zn1   S    
C60   H22   S    
C53   C81   S    
C19   C21   A    
C84   C86   S    
C5    C11   S    
C6    H43   S    
O36   Zn3   S    
O6    Zn2   S    
O18   Zn1   S    
C82   O14   A    
C1    O36   A    
C16   O38   A    
C58   C71   A    
C80   O16   A    
C48   H17   S    
C21   C33   S    
C14   H45   S    
C58   C60   A    
C71   H20   S    
C67   C89   S    
C56   C78   S    
C59   S4    S    
C60   C62   A    
C34   C86   S    
C56   H37   S    
C69   C71   A    
O13   Zn4   S    
H47   O22   S    
C7    H40   S    
O8    Zn4   S    
O11   Zn3   S    
C15   H51   S    
C20   C35   S    
C5    H42   S    
C28   H34   S    
C51   H18   S    
O24   S2    D    
C22   C25   A    
C45   C67   S    
C30   H6    S    
C31   C33   A    
C36   H7    S    
C51   C57   A    
C14   C27   A    
C2    C16   S    
O28   S3    D    
O1    Zn7   S    
C44   C47   A    
C59   C72   A    
O26   S2    S    
C85   C87   S    
C83   C88   S    
C72   H21   S    
C34   H32   S    
C23   C87   S    
O1    Zn5   S    
C58   S3    S    
C73   C75   A    
O2    Zn6   S    
C42   C44   A    
O17   Zn6   S    
C85   H15   S    
C24   H2    S    
C42   C57   S    
C37   H8    S    
C52   C54   A    
C54   C80   S    
C53   C55   A    
C2    C45   S    
C37   C39   A    
O34   Zn7   S    
C46   C48   A    
C59   C61   A    
O14   Zn7   S    
C81   O13   A    
C66   H25   S    
O27   S3    D    
C86   C88   S    
O21   S1    D    
C32   C35   A    
C62   C79   S    
C18   H52   S    
C17   C89   S    
C47   C49   A    
C23   C84   S    
C11   H44   S    
C29   H5    S    
C62   C66   A    
C3    H38   S    
C39   C43   A    
C82   O18   A    
C64   O9    A    
C3    C45   S    
C1    C32   S    
C40   C76   S    
C40   O7    A    
O19   Zn2   S    
C51   C53   A    
C34   C85   S    
C2    C4    S    
C34   C90   S    
O25   S2    D    
C65   O10   A    
C2    C78   S    
C41   C75   S    
C87   H12   S    
C64   O34   A    
O37   Zn4   S    
C12   O37   A    
C7    C13   S    
C45   H36   S    
H50   O32   S    
C47   H16   S    
O23   Zn1   S    
C74   C77   A    
C8    H41   S    
C61   C63   A    
C73   C79   A    
C48   C50   A    
C75   C77   A    
C16   O5    A    
C68   H26   S    
O12   Zn6   S    
O4    Zn8   S    
C56   C89   S    
C65   O35   A    
C20   C22   A    
O5    Zn1   S    
C23   C88   S    
C9    C11   S    
C12   C31   S    
C84   H14   S    
C13   H46   S    
C1    O3    A    
C25   C27   A    
O38   Zn5   S    
C21   C24   A    
C27   H23   S    
C80   O11   A    
C5    C7    S    
C63   C77   S    
C85   C88   S    
C41   O33   A    
C7    C9    S    
C83   O19   A    
C63   C68   A    
C19   H53   S    
C30   C33   A    
O1    Zn3   S    
C70   C72   A    
O10   Zn6   S    
C8    C10   S    
C50   S2    S    
O22   S1    S    
O16   Zn5   S    
C24   C26   A    
C38   H9    S    
C10   C13   S    
C67   H33   S    
C4    C67   S    
C6    C8    S    
C44   H11   S    
C52   C55   A    
O32   S4    S    
C4    H39   S    
C43   C55   S    
O12   Zn2   S    
C74   H30   S    
C46   H13   S    
C29   C35   A    
C10   C64   S    
C82   C90   S    
C3    C89   S    
C86   H1    S    
C12   O4    A    
C36   C38   A    
C17   O2    A    
C5    C10   S    
C29   C31   A    
O20   S1    D    
C49   S1    S    
O30   S4    D    
O31   S4    D    
C30   C32   A    
C37   C50   A    
C78   H35   S    
C15   C28   A    
C52   H19   S    
C70   H28   S    
C8    C11   S    
C69   H27   S    
O3    Zn7   S    
C18   C20   A    
C43   C46   A    
C9    C65   S    
H49   O29   S    
C40   O23   A    
C38   C42   A    
O7    Zn3   S    
C83   O15   A    
C68   C70   A    
C87   C90   S    
C22   H54   S    
C61   H24   S    
C81   O17   A    
C3    C78   S    
O35   Zn8   S    
C4    C56   S    
C36   C49   A    
O12   Zn4   S    
C6    C13   S    
C54   C57   A    
O9    Zn5   S    
