data_mof_unit_11241.cif
_audit_creation_date              2013-03-05T15:48:11-0500
_audit_creation_method            fapswitch 2.2
_symmetry_space_group_name_H-M    P1
_symmetry_Int_Tables_number       1
_space_group_crystal_system       triclinic
_cell_length_a                    10.137464
_cell_length_b                    10.644595
_cell_length_c                    15.71834
_cell_angle_alpha                 90.095747
_cell_angle_beta                  81.500966
_cell_angle_gamma                 95.088374
_cell_volume                      1670.80331179

loop_
_atom_site_label
_atom_site_type_symbol
_atom_site_description
_atom_site_fract_x
_atom_site_fract_y
_atom_site_fract_z
_atom_type_partial_charge
O1    O     O_R   0.431060 0.692470 0.506960 -0.647011
O2    O     O_R   0.568940 0.307530 0.493040 -0.628335
O3    O     O_R   0.651120 0.659650 0.484770 -0.576799
O4    O     O_R   0.348880 0.340350 0.515230 -0.560200
C1    C     C_R   0.555799 0.733655 0.490029 0.820905
C2    C     C_R   0.443674 0.265997 0.503685 0.826430
O5    O     O_R   0.389990 0.516420 0.634310 -0.592250
O6    O     O_R   0.610010 0.483580 0.365690 -0.581823
O7    O     O_R   0.610050 0.483600 0.612130 -0.614819
O8    O     O_R   0.389950 0.516400 0.387870 -0.635614
C3    C     C_R   0.500768 0.501186 0.661936 0.907752
C4    C     C_R   0.499365 0.499279 0.338040 0.869782
Zn1   Zn    Zn3+2 0.353060 0.521920 0.514810 1.001139
Zn2   Zn    Zn3+2 0.646940 0.478080 0.485190 1.015917
C5    C     C_3   0.438881 0.597946 0.035469 0.412081
C6    C     C_3   0.586351 0.424108 0.961106 0.482234
C7    C     C_3   0.563992 0.627381 0.966371 -0.463057
C8    C     C_3   0.461581 0.393122 0.029792 -0.496868
H1    H     H_    0.604082 0.721505 0.938962 0.177133
H2    H     H_    0.422009 0.299040 0.057310 0.164006
C9    C     C_1   0.503421 0.507132 0.750384 -0.161170
C10   C     C_1   0.499682 0.500267 0.249238 -0.184358
C11   C     C_3   0.386801 0.486650 0.984166 0.440149
C12   C     C_3   0.638782 0.534670 0.013535 0.466124
C13   C     C_3   0.510224 0.514677 0.915604 -0.040640
C14   C     C_3   0.514117 0.505906 0.082122 -0.107650
C15   C     C_1   0.506393 0.512054 0.825236 0.096227
C16   C     C_1   0.504709 0.502120 0.173600 0.018492
H3    H     H_    0.587628 0.116122 0.410353 0.198057
H4    H     H_    0.389610 0.883866 0.442939 0.193956
C17   C     C_2   0.587336 0.866317 0.467477 0.179775
C18   C     C_2   0.410797 0.130788 0.498370 0.131729
C19   C     C_2   0.488525 0.930575 0.446257 -0.202057
C20   C     C_2   0.499406 0.066718 0.447464 -0.271293
H5    H     H_    0.117646 0.499582 0.415241 0.133092
H6    H     H_    0.885462 0.570164 0.560389 0.138402
N1    N     N_2   0.842700 0.448880 0.465440 0.044756
N2    N     N_2   0.157300 0.551120 0.534560 0.042943
C21   C     C_2   0.926031 0.517820 0.504739 0.124893
C22   C     C_2   0.075641 0.521836 0.480330 0.022743
O9    O     O_3   0.360707 0.687028 0.080486 -0.646107
C23   C     C_3   0.308175 0.764031 0.022691 0.100528
H7    H     H_    0.198242 0.761471 0.043226 0.152716
H8    H     H_    0.323016 0.732412 0.954413 0.149551
C24   C     C_3   0.369700 0.899897 0.027555 -0.364046
H9    H     H_    0.350160 0.933009 0.094981 0.234352
H10   H     H_    0.479801 0.903382 0.007781 0.213612
C25   C     C_3   0.311428 0.988155 0.969329 -0.945170
H11   H     H_    0.332806 0.958706 0.901229 0.279902
H12   H     H_    0.357648 0.085822 0.974749 0.264113
H13   H     H_    0.201399 0.987507 0.988622 0.265434
O10   O     O_3   0.666688 0.340474 0.912163 -0.615304
C26   C     C_3   0.696164 0.243729 0.965359 0.096912
H14   H     H_    0.603123 0.183456 0.990280 0.135639
H15   H     H_    0.743955 0.283411 0.020175 0.157209
C27   C     C_3   0.792871 0.162125 0.911584 -0.267543
H16   H     H_    0.748931 0.127918 0.854104 0.243299
H17   H     H_    0.888589 0.219717 0.889220 0.235503
C28   C     C_3   0.820893 0.048635 0.962814 -1.014436
H18   H     H_    0.866025 0.079811 0.020262 0.274172
H19   H     H_    0.891872 0.991939 0.921966 0.277593
H20   H     H_    0.726459 0.988473 0.983584 0.261431
O11   O     O_3   0.777246 0.551722 0.019707 -0.640473
C29   C     C_3   0.803521 0.619423 0.093750 0.087037
H21   H     H_    0.911849 0.617610 0.097014 0.156516
H22   H     H_    0.752438 0.572033 0.153744 0.151485
C30   C     C_3   0.774529 0.758166 0.089655 -0.412301
H23   H     H_    0.824605 0.799466 0.027126 0.241350
H24   H     H_    0.665116 0.765484 0.094777 0.237225
C31   C     C_3   0.825896 0.833471 0.162676 -0.881502
H25   H     H_    0.777803 0.792766 0.225936 0.284898
H26   H     H_    0.801326 0.932720 0.158879 0.263254
H27   H     H_    0.936320 0.832874 0.157609 0.258693
O12   O     O_3   0.257105 0.463901 0.961653 -0.643175
C32   C     C_3   0.160144 0.445460 0.036122 0.107158
H28   H     H_    0.075966 0.501342 0.027117 0.170926
H29   H     H_    0.195872 0.478762 0.096811 0.157913
C33   C     C_3   0.106906 0.306405 0.046020 -0.335989
H30   H     H_    0.061725 0.276057 0.988257 0.242183
H31   H     H_    0.190468 0.247672 0.051504 0.221117
C34   C     C_3   0.001751 0.284818 0.126041 -0.969689
H32   H     H_    0.044692 0.316363 0.184302 0.274217
H33   H     H_    0.968191 0.182852 0.133781 0.260885
H34   H     H_    0.913805 0.337829 0.120352 0.272030
N3    N     N_R   0.292532 0.070548 0.550208 0.211854
O13   O     O_R   0.185698 0.130616 0.567918 -0.373488
O14   O     O_R   0.297651 0.965037 0.590791 -0.430382
N4    N     N_R   0.721690 0.923324 0.464767 0.208316
O15   O     O_R   0.794210 0.891897 0.521718 -0.396037
O16   O     O_R   0.779528 0.984709 0.395915 -0.474261
O17   O     O_3   0.099420 0.552775 0.617494 -0.570788
C35   C     C_3   0.139645 0.670325 0.651124 0.209388
H35   H     H_    0.086016 0.744884 0.624912 0.159503
H36   H     H_    0.249086 0.695369 0.634544 0.201336
C36   C     C_3   0.103643 0.665060 0.749109 -0.361082
H37   H     H_    0.993572 0.644176 0.766762 0.241369
H38   H     H_    0.153884 0.588052 0.775221 0.256060
C37   C     C_3   0.147098 0.789299 0.789826 -0.906221
H39   H     H_    0.257450 0.810162 0.774936 0.272056
H40   H     H_    0.118627 0.782293 0.860774 0.256273
H41   H     H_    0.097227 0.867779 0.765414 0.294324
O18   O     O_3   0.893615 0.408074 0.387079 -0.585539
C38   C     C_3   0.900900 0.276181 0.392461 0.191923
H42   H     H_    0.855602 0.232767 0.338007 0.173018
H43   H     H_    0.844223 0.231597 0.452837 0.177037
C39   C     C_3   0.048299 0.247712 0.383419 -0.448885
H44   H     H_    0.107354 0.303406 0.328755 0.218619
H45   H     H_    0.089197 0.275435 0.443083 0.255832
C40   C     C_3   0.066956 0.108549 0.368153 -0.746098
H46   H     H_    0.018859 0.051501 0.425227 0.328303
H47   H     H_    0.175553 0.095113 0.358024 0.235689
H48   H     H_    0.024256 0.075507 0.310047 0.263987

loop_
_geom_bond_atom_site_label_1
_geom_bond_atom_site_label_2
_geom_bond_distance
_ccdc_geom_bond_type
C2    C18   1.453349 S    
O9    C23   1.415496 S    
C36   H37   1.111844 S    
C8    C14   1.553791 S    
O7    Zn2   1.976719 S    
C34   H32   1.109831 S    
C36   C37   1.526358 S    
C26   H14   1.113089 S    
O5    C3    1.285560 A    
O1    C1    1.290216 A    
C12   C14   1.543659 S    
C40   H47   1.110771 S    
N3    O13   1.300915 A    
N1    O18   1.349900 S    
C33   H31   1.109767 S    
C24   C25   1.526537 S    
C39   H44   1.111233 S    
C4    C10   1.395399 S    
C27   H16   1.111934 S    
O4    Zn1   1.929444 S    
C25   H13   1.111218 S    
C17   C19   1.342965 D    
C31   H25   1.111220 S    
C5    C11   1.531097 S    
C24   H10   1.110814 S    
C9    C15   1.182339 T    
C28   H18   1.108615 S    
C6    C12   1.536877 S    
C10   C16   1.182570 T    
O2    C2    1.293792 A    
C23   H8    1.117030 S    
C34   H33   1.109651 S    
C26   H15   1.114187 S    
C28   H19   1.110583 S    
C7    C12   1.549085 S    
O12   C32   1.414680 S    
N3    O14   1.301355 A    
C8    C11   1.541789 S    
C29   C30   1.534455 S    
C5    O9    1.411807 S    
O4    C2    1.290614 A    
C40   H48   1.110872 S    
C21   C22   1.505273 S    
C33   H30   1.110939 S    
C5    C14   1.542585 S    
C24   H9    1.111668 S    
N2    O17   1.348926 S    
C3    C9    1.395712 S    
C35   C36   1.529370 S    
C30   H23   1.109656 S    
C30   H24   1.109827 S    
C23   C24   1.529768 S    
C18   C20   1.344122 D    
C32   H28   1.108197 S    
C32   H29   1.115817 S    
O6    C4    1.285506 A    
C31   H27   1.111024 S    
C35   H36   1.110035 S    
C19   C20   1.443897 S    
C38   H43   1.117105 S    
O7    C3    1.286536 A    
Zn1   N2    2.014511 S    
O3    Zn2   1.929444 S    
O8    C4    1.286694 A    
C25   H11   1.110590 S    
N4    O16   1.299544 A    
C12   O11   1.416919 S    
C37   H40   1.110773 S    
O1    Zn1   1.911425 S    
C23   H7    1.111405 S    
C11   O12   1.411833 S    
O17   C35   1.407978 S    
C34   H34   1.110967 S    
O10   C26   1.407217 S    
C26   C27   1.527664 S    
C6    C13   1.527735 S    
C5    C7    1.552381 S    
C28   H20   1.110283 S    
O6    Zn2   1.970752 S    
C17   N4    1.435769 S    
H4    C19   1.087361 S    
H6    C21   1.085087 S    
C6    O10   1.410235 S    
O3    C1    1.293191 A    
O8    Zn1   1.976721 S    
C36   H38   1.112104 S    
C13   C15   1.426849 S    
C37   H41   1.110884 S    
C14   C16   1.427311 S    
C27   C28   1.523241 S    
C30   C31   1.526648 S    
C7    C13   1.543525 S    
C29   H21   1.108777 S    
H5    C22   1.082812 S    
N1    C21   1.294792 D    
C40   H46   1.109641 S    
Zn2   N1    2.014511 S    
N2    C22   1.292656 D    
C33   C34   1.527223 S    
C39   H45   1.109406 S    
C18   N3    1.445372 S    
H3    C20   1.086308 S    
C25   H12   1.110277 S    
C35   H35   1.113124 S    
C7    H1    1.109983 S    
C27   H17   1.111451 S    
C38   C39   1.536949 S    
C8    H2    1.108991 S    
C11   C13   1.533683 S    
O18   C38   1.415743 S    
O2    Zn2   1.911425 S    
C32   C33   1.529930 S    
O11   C29   1.414064 S    
O5    Zn1   1.970753 S    
N4    O15   1.301102 A    
C6    C8    1.548474 S    
C37   H39   1.110979 S    
C38   H42   1.110971 S    
C31   H26   1.110414 S    
C29   H22   1.105803 S    
C1    C17   1.452610 S    
C39   C40   1.524082 S    
