data_mof_unit_31727.cif
_audit_creation_date              2012-12-10T17:50:39-0500
_audit_creation_method            fapswitch 2.2
_symmetry_space_group_name_H-M    P1
_symmetry_Int_Tables_number       1
_space_group_crystal_system       triclinic
_cell_length_a                    15.691094
_cell_length_b                    10.641432
_cell_length_c                    9.931037
_cell_angle_alpha                 88.085202
_cell_angle_beta                  88.649942
_cell_angle_gamma                 91.061495
_cell_volume                      1656.54642624

loop_
_atom_site_label
_atom_site_type_symbol
_atom_type_description
_atom_site_fract_x
_atom_site_fract_y
_atom_site_fract_z
_atom_type_partial_charge
C1    C     C_R   0.507713 0.260235 0.503734 0.981722
C2    C     C_R   0.409466 0.039190 0.848097 -0.082543
C3    C     C_R   0.365204 0.932317 0.811196 -0.182480
C4    C     C_R   0.338161 0.497164 0.501358 0.970471
C5    C     C_R   0.382524 0.879377 0.686236 -0.095880
C6    C     C_R   0.447529 0.935303 0.599205 0.082776
C7    C     C_R   0.477288 0.056483 0.624153 0.092821
C8    C     C_R   0.519131 0.126010 0.516065 -0.166431
C9    C     C_R   0.557678 0.064180 0.408098 -0.031852
C10   C     C_R   0.541717 0.937030 0.398322 -0.198311
C11   C     C_R   0.487839 0.873223 0.492551 -0.089302
C12   C     C_3   0.083322 0.486636 0.502274 -0.074442
C13   C     C_R   0.357924 0.389499 0.143197 0.431338
C14   C     C_R   0.281056 0.400523 0.075535 -0.259907
C15   C     C_R   0.283819 0.384356 0.937016 -0.133037
C16   C     C_R   0.493864 0.739519 0.497859 0.874573
C17   C     C_R   0.362507 0.390697 0.869083 -0.138220
C18   C     C_R   0.432961 0.444217 0.931718 0.090086
C19   C     C_R   0.432064 0.443780 0.075876 0.064429
C20   C     C_R   0.564919 0.552566 0.067159 -0.061194
C21   C     C_R   0.564825 0.552687 0.924229 -0.056872
C22   C     C_R   0.661940 0.499761 0.498639 0.907147
C23   C     C_3   0.974407 0.604714 0.471976 -0.189397
C24   C     C_3   0.968852 0.447201 0.619863 0.328971
C25   C     C_3   0.026095 0.369984 0.527725 0.314246
C26   C     C_1   0.249320 0.492275 0.503929 -0.040015
C27   C     C_1   0.750810 0.495254 0.495933 -0.072767
C28   C     C_3   0.027216 0.564456 0.595898 -0.195434
C29   C     C_2   0.322684 0.780733 0.640556 0.940721
C30   C     C_2   0.620129 0.126895 0.311238 1.005456
C31   C     C_3   0.916914 0.487324 0.497604 -0.102367
C32   C     C_3   0.032304 0.527187 0.378273 -0.261822
C33   C     C_3   0.973815 0.410493 0.405422 0.292523
C34   C     C_1   0.174057 0.488972 0.504043 0.114109
C35   C     C_1   0.826062 0.491008 0.495654 0.136042
C36   C     C_R   0.464202 0.101977 0.755531 -0.164115
H1    H     H_    0.316331 0.892920 0.879737 0.174347
H2    H     H_    0.051080 0.626982 0.674571 0.211928
H3    H     H_    0.498729 0.181939 0.792110 0.187916
H4    H     H_    0.398872 0.076542 0.946855 0.233959
H5    H     H_    0.008583 0.032016 0.605340 0.387152
H6    H     H_    0.311823 0.688108 0.822337 0.307830
H7    H     H_    0.235947 0.149139 0.198765 0.397891
H8    H     H_    0.005956 0.276931 0.899040 0.411345
H9    H     H_    0.058086 0.313678 0.171907 0.343331
H10   H     H_    0.677827 0.128103 0.127392 0.375080
H11   H     H_    0.575161 0.885891 0.321217 0.190506
H12   H     H_    0.617738 0.596265 0.117126 0.161176
H13   H     H_    0.221241 0.379552 0.129063 0.166690
H14   H     H_    0.226828 0.356572 0.885367 0.218309
H15   H     H_    0.367612 0.350663 0.771831 0.206624
H16   H     H_    0.617599 0.596633 0.867334 0.169668
H17   H     H_    0.060307 0.559215 0.279005 0.194715
H18   H     H_    0.951402 0.700925 0.449033 0.204042
N1    N     N_R   0.499210 0.498800 0.142780 -0.126547
N2    N     N_R   0.499180 0.498720 0.857170 -0.122888
O1    O     O_R   0.500000 0.316780 0.614690 -0.671108
O2    O     O_2   0.117015 0.218115 0.688794 -0.310480
O3    O     O_3   0.982367 0.114646 0.587224 -0.465048
O4    O     O_2   0.302831 0.780688 0.522404 -0.586358
O5    O     O_R   0.284664 0.691446 0.730843 -0.773833
O6    O     O_2   0.447928 0.180110 0.189344 -0.287210
O7    O     O_2   0.341821 0.234610 0.364122 -0.315244
O8    O     O_3   0.289169 0.140681 0.144423 -0.540540
O9    O     O_2   0.869469 0.499505 0.833993 -0.245633
O10   O     O_2   0.870949 0.280523 0.765972 -0.237081
O11   O     O_3   0.003660 0.369623 0.888143 -0.503933
O12   O     O_R   0.499990 0.316750 0.385360 -0.528494
O13   O     O_2   0.878036 0.210699 0.340826 -0.184568
O14   O     O_2   0.887696 0.387327 0.176132 -0.222934
O15   O     O_3   0.018945 0.243124 0.200299 -0.472695
O16   O     O_2   0.661542 0.219010 0.343912 -0.601880
O17   O     O_R   0.633565 0.077891 0.183670 -0.769540
O18   O     O_R   0.376780 0.500000 0.614650 -0.628493
O19   O     O_R   0.376770 0.499980 0.385310 -0.625192
O20   O     O_R   0.500010 0.683250 0.614640 -0.633967
O21   O     O_R   0.500000 0.683220 0.385310 -0.613326
O22   O     O_R   0.623230 0.500020 0.614690 -0.613264
O23   O     O_R   0.623220 0.500000 0.385350 -0.598274
O24   O     O_2   0.120117 0.176491 0.447369 -0.254159
S1    S     S_3+6 0.065074 0.216233 0.563666 0.089098
S2    S     S_3+6 0.361847 0.234764 0.215394 0.035452
S3    S     S_3+6 0.924548 0.397656 0.780364 0.110009
S4    S     S_3+6 0.936135 0.311021 0.277652 0.125835
Zn1   Zn    Zn3+2 0.500010 0.500020 0.653130 0.962441
Zn2   Zn    Zn3+2 0.499990 0.499980 0.346870 1.036302

loop_
_geom_bond_atom_site_label_1
_geom_bond_atom_site_label_2
_ccdc_geom_bond_type
O11   S3    S    
H9    O15   S    
C1    C8    S    
O12   Zn2   S    
C7    C36   A    
C17   H15   S    
C7    C8    A    
C12   C28   S    
C24   S3    S    
C22   O23   A    
C18   C19   A    
C5    C6    A    
O23   Zn2   S    
O9    S3    D    
C14   H13   S    
C19   N1    A    
C1    O12   A    
C16   O21   A    
C15   H14   S    
C4    O19   A    
O10   S3    D    
C26   C34   T    
C8    C9    A    
C31   C33   S    
O14   S4    D    
C9    C10   A    
C4    O18   A    
C18   N2    A    
O6    S2    D    
C13   C14   A    
C12   C32   S    
C25   S1    S    
C20   N1    A    
H7    O8    S    
C5    C29   S    
C29   O5    S    
C13   C19   A    
O7    S2    D    
C24   C28   S    
C24   C25   S    
C22   O22   A    
O2    S1    D    
C6    C11   A    
C30   O17   S    
C27   C35   T    
C13   S2    S    
C23   C31   S    
C1    O1    A    
C11   C16   S    
O19   Zn2   S    
C30   O16   D    
C29   O4    D    
C28   H2    S    
C17   C18   A    
C23   C28   S    
H6    O5    S    
O8    S2    S    
C20   H12   S    
C9    C30   S    
O22   Zn1   S    
O21   Zn2   S    
C22   C27   S    
C31   C35   S    
C12   C34   S    
C32   H17   S    
C23   H18   S    
O15   S4    S    
C2    C36   A    
C15   C17   A    
C16   O20   A    
C36   H3    S    
O3    S1    S    
O24   S1    D    
C3    C5    A    
C21   N2    A    
C4    C26   S    
C6    C7    A    
C12   C25   S    
C23   C32   S    
N1    Zn2   S    
C2    C3    A    
C24   C31   S    
O13   S4    D    
C32   C33   S    
N2    Zn1   S    
O1    Zn1   S    
H10   O17   S    
O18   Zn1   S    
C33   S4    S    
C10   C11   A    
C2    H4    S    
C20   C21   A    
C3    H1    S    
H5    O3    S    
C10   H11   S    
C14   C15   A    
H8    O11   S    
O20   Zn1   S    
C21   H16   S    
C25   C33   S    
