data_mof_unit_25958.cif
_audit_creation_date              2012-12-10T17:08:46-0500
_audit_creation_method            fapswitch 2.2
_symmetry_space_group_name_H-M    P1
_symmetry_Int_Tables_number       1
_space_group_crystal_system       triclinic
_cell_length_a                    27.748949
_cell_length_b                    11.051796
_cell_length_c                    9.827931
_cell_angle_alpha                 111.601053
_cell_angle_beta                  98.024615
_cell_angle_gamma                 90.970649
_cell_volume                      2767.22139664

loop_
_atom_site_label
_atom_site_type_symbol
_atom_type_description
_atom_site_fract_x
_atom_site_fract_y
_atom_site_fract_z
_atom_type_partial_charge
C1    C     C_R   0.496585 0.253799 0.439737 0.799408
C2    C     C_R   0.502987 0.746140 0.560328 0.856077
C3    C     C_R   0.101394 0.493317 0.493118 -0.050173
C4    C     C_R   0.898397 0.504766 0.502378 -0.050079
C5    C     C_R   0.127571 0.398520 0.528650 -0.067090
C6    C     C_R   0.872247 0.599944 0.467524 -0.067522
C7    C     C_R   0.102149 0.294057 0.541446 -0.146375
C8    C     C_R   0.897693 0.704384 0.454765 -0.146531
C9    C     C_R   0.126333 0.586800 0.457226 -0.007839
C10   C     C_R   0.873444 0.411101 0.537972 -0.007947
C11   C     C_R   0.354834 0.491491 0.502197 -0.046727
C12   C     C_R   0.645228 0.508291 0.497680 -0.047605
C13   C     C_R   0.974968 0.403383 0.531930 0.052442
C14   C     C_R   0.024803 0.594442 0.463136 0.052409
C15   C     C_R   0.974824 0.606100 0.480221 -0.012507
C16   C     C_R   0.024968 0.391844 0.515059 -0.012458
C17   C     C_R   0.949531 0.504027 0.503095 0.052641
C18   C     C_R   0.050250 0.493907 0.492148 0.052684
C19   C     C_R   0.950330 0.325056 0.589930 -0.235181
C20   C     C_R   0.049419 0.672595 0.404880 -0.235272
C21   C     C_R   0.900134 0.325074 0.587453 -0.147399
C22   C     C_R   0.099618 0.672554 0.407312 -0.147304
C23   C     C_R   0.407591 0.496599 0.500497 0.804843
C24   C     C_R   0.592434 0.503417 0.499532 0.804670
C25   C     C_R   0.051024 0.280816 0.514350 0.134582
C26   C     C_R   0.948823 0.717304 0.481296 0.134639
C27   C     C_2   0.494476 0.113351 0.403776 -0.019588
C28   C     C_2   0.503940 0.886225 0.597291 -0.035011
C29   C     C_2   0.497064 0.069664 0.514342 -0.146796
C30   C     C_2   0.496371 0.930874 0.486956 -0.174283
C31   C     C_2   0.504172 0.510597 0.081475 -0.060382
C32   C     C_2   0.495852 0.489323 0.918494 -0.065972
C33   C     C_R   0.178553 0.404170 0.537815 0.548236
C34   C     C_R   0.821286 0.594703 0.459120 0.548243
C35   C     C_R   0.177230 0.587419 0.464564 0.536302
C36   C     C_R   0.822563 0.410633 0.530902 0.536196
C37   C     C_R   0.285781 0.597495 0.609855 -0.100254
C38   C     C_R   0.713808 0.404443 0.384723 -0.101315
C39   C     C_R   0.335902 0.595124 0.608314 -0.259559
C40   C     C_R   0.663754 0.407236 0.387367 -0.260190
C41   C     C_R   0.322895 0.386373 0.398555 0.118818
C42   C     C_R   0.677598 0.610569 0.604707 0.115338
C43   C     C_R   0.272580 0.390999 0.401128 -0.129324
C44   C     C_R   0.727833 0.605642 0.600576 -0.130216
C45   C     C_R   0.253982 0.495811 0.505809 0.319070
C46   C     C_R   0.745951 0.503287 0.491681 0.322058
Cu1   Cu    Cu3+1 0.508480 0.521810 0.644910 0.950091
Cu2   Cu    Cu3+1 0.491520 0.478190 0.355090 0.935930
H1    H     H_    0.467541 0.416572 0.845085 0.157179
H2    H     H_    0.532499 0.583301 0.154866 0.163306
H3    H     H_    0.547857 0.623038 0.934918 0.196196
H4    H     H_    0.452138 0.376975 0.065088 0.188904
H5    H     H_    0.247480 0.312061 0.322741 0.141272
H6    H     H_    0.753273 0.682352 0.681270 0.139276
H7    H     H_    0.121958 0.215335 0.557010 0.191542
H8    H     H_    0.877914 0.783297 0.439597 0.191653
H9    H     H_    0.639415 0.328998 0.304626 0.157185
H10   H     H_    0.359971 0.675528 0.688529 0.159099
H11   H     H_    0.727670 0.325365 0.299788 0.149853
H12   H     H_    0.271597 0.678462 0.691654 0.151494
H13   H     H_    0.882487 0.258574 0.626400 0.184674
H14   H     H_    0.117254 0.738926 0.368170 0.184723
H15   H     H_    0.969605 0.263978 0.639890 0.146601
H16   H     H_    0.030122 0.733593 0.354840 0.146568
H17   H     H_    0.489901 0.862476 0.372569 0.203817
H18   H     H_    0.500161 0.138562 0.627869 0.151090
N1    N     N_R   0.202295 0.497756 0.506004 -0.460438
N2    N     N_R   0.797553 0.500839 0.490434 -0.461006
N3    N     N_2   0.478780 0.445430 0.137360 -0.284902
N4    N     N_2   0.521220 0.554570 0.862640 -0.280488
O1    O     O_R   0.504520 0.332330 0.577400 -0.590122
O2    O     O_R   0.495480 0.667670 0.422600 -0.602462
O3    O     O_R   0.490210 0.295500 0.332650 -0.573238
O4    O     O_R   0.509790 0.704500 0.667350 -0.541309
O5    O     O_R   0.437420 0.518430 0.622370 -0.576754
O6    O     O_R   0.562580 0.481570 0.377630 -0.577669
O7    O     O_R   0.423110 0.481600 0.377610 -0.573199
O8    O     O_R   0.576890 0.518400 0.622390 -0.574295
O9    O     O_2   0.204194 0.316133 0.576846 -0.543157
O10   O     O_2   0.795660 0.683469 0.421503 -0.542239
O11   O     O_2   0.798349 0.321923 0.565891 -0.540038
O12   O     O_2   0.201398 0.675749 0.428878 -0.540430
C47   C     C_3   0.341065 0.265296 0.290581 -0.418958
C48   C     C_3   0.363187 0.178935 0.369976 -0.791728
H19   H     H_    0.394401 0.232209 0.456640 0.232710
H20   H     H_    0.335229 0.146746 0.422606 0.266586
H21   H     H_    0.376311 0.091229 0.288822 0.239420
H22   H     H_    0.310507 0.206635 0.204045 0.204187
H23   H     H_    0.367922 0.291114 0.230341 0.222674
C49   C     C_3   0.660074 0.728833 0.718949 -0.411492
C50   C     C_3   0.637071 0.819939 0.647528 -0.778943
H24   H     H_    0.664497 0.856554 0.596894 0.261929
H25   H     H_    0.605671 0.768901 0.560502 0.232006
H26   H     H_    0.623993 0.904576 0.733188 0.241398
H27   H     H_    0.634022 0.699556 0.778994 0.226081
H28   H     H_    0.691086 0.785288 0.805153 0.202319
N5    N     N_3   0.512995 0.971292 0.751074 -0.583493
H29   H     H_    0.544019 0.033727 0.769725 0.223031
H30   H     H_    0.482947 0.026633 0.776042 0.220744
N6    N     N_3   0.490152 0.024797 0.252076 -0.590995
H31   H     H_    0.519733 0.046953 0.207893 0.232093
H32   H     H_    0.458263 0.041824 0.193523 0.228875
C51   C     C_3   0.026992 0.142805 0.462816 -0.436735
C52   C     C_3   0.048856 0.045131 0.334919 -0.824179
H33   H     H_    0.049641 0.082867 0.244866 0.265207
H34   H     H_    0.086327 0.025135 0.373154 0.251995
H35   H     H_    0.026167 0.951106 0.289189 0.230517
H36   H     H_    0.030903 0.109392 0.557163 0.204267
H37   H     H_    0.987806 0.138095 0.418245 0.226441
C53   C     C_3   0.972949 0.855205 0.532686 -0.436684
C54   C     C_3   0.951263 0.953009 0.660914 -0.824183
H38   H     H_    0.913798 0.973311 0.623044 0.252004
H39   H     H_    0.950517 0.915212 0.750932 0.265238
H40   H     H_    0.974042 0.046886 0.706566 0.230485
H41   H     H_    0.012158 0.859698 0.576876 0.226507
H42   H     H_    0.968967 0.888659 0.438366 0.204213

loop_
_geom_bond_atom_site_label_1
_geom_bond_atom_site_label_2
_ccdc_geom_bond_type
C28   N5    S    
C20   H16   S    
C27   C29   D    
C8    C26   A    
C14   C18   A    
C54   H38   S    
C48   H21   S    
C7    H7    S    
Cu2   N3    S    
C8    H8    S    
C52   H34   S    
N5    H29   S    
C49   H27   S    
C1    O1    A    
C47   C48   S    
C19   C21   A    
C48   H20   S    
C9    C22   A    
C50   H25   S    
C41   C47   S    
C3    C18   A    
Cu2   O6    S    
C53   C54   S    
C12   C42   A    
H4    N3    S    
C34   O10   S    
C43   H5    S    
C31   C32   S    
C19   H15   S    
C5    C33   A    
C45   N1    S    
C51   H36   S    
H3    N4    S    
C26   C53   S    
C21   H13   S    
C2    O4    A    
C38   H11   S    
C47   H22   S    
C41   C43   A    
C42   C44   A    
Cu2   O2    S    
C2    O2    A    
C52   H33   S    
N5    H30   S    
C35   O12   S    
C44   C46   A    
C10   C21   A    
C47   H23   S    
C27   N6    S    
C13   C19   A    
C30   H17   S    
C14   C20   A    
C48   H19   S    
C4    C6    A    
C34   N2    A    
C50   H24   S    
C5    C7    A    
C33   O9    S    
C15   C26   A    
C6    C8    A    
C39   H10   S    
C6    C34   A    
C42   C49   S    
Cu2   O7    S    
C12   C40   A    
Cu1   N4    S    
C46   N2    S    
C29   C30   S    
C3    C9    A    
C22   H14   S    
Cu1   Cu2   S    
C35   N1    A    
C36   O11   S    
N6    H32   S    
C54   H39   S    
C23   O7    A    
C11   C39   A    
C43   C45   A    
Cu1   O1    S    
C4    C17   A    
C24   O8    A    
C20   C22   A    
C31   H2    S    
C4    C10   A    
C53   H42   S    
C33   N1    A    
C1    C27   S    
C16   C25   A    
C15   C17   A    
C40   H9    S    
Cu2   O3    S    
C24   O6    A    
Cu1   O4    S    
C23   O5    A    
C3    C5    A    
C32   N4    D    
C36   N2    A    
C49   H28   S    
C12   C24   S    
C7    C25   A    
C13   C17   A    
C51   H37   S    
C1    O3    A    
C28   C30   D    
Cu1   O5    S    
C37   C39   A    
C50   H26   S    
C38   C40   A    
C49   C50   S    
C11   C23   S    
N6    H31   S    
C10   C36   A    
C11   C41   A    
C54   H40   S    
C25   C51   S    
C32   H1    S    
C38   C46   A    
C37   H12   S    
C29   H18   S    
C44   H6    S    
C31   N3    D    
C16   C18   A    
C13   C16   A    
C51   C52   S    
C9    C35   A    
C14   C15   A    
C2    C28   S    
Cu1   O8    S    
C37   C45   A    
C53   H41   S    
C52   H35   S    
