data_mof_unit_30618.cif
_audit_creation_date              2012-12-11T15:55:36-0500
_audit_creation_method            fapswitch 2.2
_symmetry_space_group_name_H-M    P1
_symmetry_Int_Tables_number       1
_space_group_crystal_system       triclinic
_cell_length_a                    6.960694
_cell_length_b                    14.514867
_cell_length_c                    16.090833
_cell_angle_alpha                 90.06786
_cell_angle_beta                  90.022315
_cell_angle_gamma                 90.12581
_cell_volume                      1625.70875803

loop_
_atom_site_label
_atom_site_type_symbol
_atom_type_description
_atom_site_fract_x
_atom_site_fract_y
_atom_site_fract_z
_atom_type_partial_charge
O1    O     O_R   0.505680 0.583900 0.413320 -0.540667
O2    O     O_R   0.176010 0.594950 0.586080 -0.543101
O3    O     O_R   0.005680 0.416100 0.586680 -0.535636
C1    C     C_R   0.345115 0.617162 0.614915 0.687577
O4    O     O_R   0.175960 0.594930 0.413930 -0.545736
O5    O     O_R   0.005640 0.416080 0.413300 -0.531946
C2    C     C_R   0.345017 0.616896 0.384897 0.689738
O6    O     O_R   0.505720 0.583920 0.586700 -0.541076
O7    O     O_3   0.339190 0.441320 0.500000 -0.365535
V1    V     V_3+5 0.064350 0.510890 0.500000 1.407336
O8    O     O_R   0.675920 0.405050 0.413920 -0.541619
C3    C     C_R   0.844236 0.385960 0.382882 0.703240
O9    O     O_R   0.675960 0.405070 0.586070 -0.545854
C4    C     C_R   0.844774 0.382967 0.614684 0.702821
V2    V     V_3+5 0.564340 0.489110 0.500000 1.407525
O10   O     O_3   0.839370 0.558680 0.500000 -0.373533
C5    C     C_R   0.006749 0.318292 0.741425 0.021980
C6    C     C_R   0.854001 0.316575 0.684477 -0.095848
C7    C     C_R   0.713256 0.247709 0.694553 -0.152668
H1    H     H_    0.596024 0.241877 0.650661 0.150855
C8    C     C_R   0.729390 0.182009 0.758610 -0.134984
H2    H     H_    0.630421 0.125665 0.762109 0.176764
C9    C     C_R   0.878665 0.185364 0.816672 -0.114668
C10   C     C_R   0.020806 0.251921 0.804428 0.068818
C11   C     C_3   0.226630 0.234177 0.784306 0.276071
C12   C     C_3   0.215332 0.311881 0.721364 -0.388441
H3    H     H_    0.242615 0.289747 0.656288 0.183478
H4    H     H_    0.293257 0.375773 0.739615 0.151319
C13   C     C_R   0.996460 0.272787 0.176664 0.160835
C14   C     C_R   0.976737 0.340722 0.240618 0.174167
C15   C     C_R   0.854071 0.323026 0.309710 -0.082845
C16   C     C_R   0.739396 0.243583 0.309375 -0.191686
H5    H     H_    0.642099 0.229943 0.360467 0.137007
C17   C     C_R   0.750781 0.179733 0.244712 -0.191685
H6    H     H_    0.660580 0.118863 0.247226 0.131509
C18   C     C_R   0.881176 0.191581 0.179166 -0.088847
C19   C     C_R   0.188805 0.725114 0.717008 -0.150801
H7    H     H_    0.048634 0.706802 0.692819 0.117809
C20   C     C_R   0.199836 0.788813 0.782219 -0.127518
H8    H     H_    0.067650 0.817792 0.806077 0.123292
C21   C     C_R   0.378661 0.814717 0.816004 -0.041166
C22   C     C_R   0.546180 0.775401 0.782568 -0.148327
H9    H     H_    0.686355 0.793741 0.806738 0.117659
C23   C     C_R   0.535155 0.711721 0.717345 -0.147327
H10   H     H_    0.667363 0.682809 0.693445 0.118804
C24   C     C_R   0.356307 0.685653 0.683679 -0.048047
C25   C     C_R   0.188548 0.722637 0.280982 -0.154158
H11   H     H_    0.048185 0.702993 0.304003 0.115675
C26   C     C_R   0.199681 0.786304 0.215817 -0.148857
H12   H     H_    0.067318 0.813909 0.190863 0.118554
C27   C     C_R   0.378772 0.813986 0.183500 -0.046189
C28   C     C_R   0.546384 0.775997 0.218099 -0.156653
H13   H     H_    0.686747 0.795531 0.195006 0.116335
C29   C     C_R   0.535255 0.712358 0.283286 -0.147686
H14   H     H_    0.667612 0.684696 0.308203 0.117825
C30   C     C_R   0.356193 0.684944 0.315801 -0.044222
O11   O     O_R   0.229200 0.915950 0.913350 -0.533762
O12   O     O_R   0.559090 0.905000 0.086080 -0.545020
O13   O     O_R   0.729280 0.083880 0.086680 -0.540376
C31   C     C_R   0.390000 0.882634 0.114855 0.680206
O14   O     O_R   0.558920 0.904980 0.913920 -0.543550
O15   O     O_R   0.729110 0.083860 0.913300 -0.543383
C32   C     C_R   0.389828 0.882904 0.884991 0.717568
O16   O     O_R   0.229360 0.915970 0.086730 -0.541450
O17   O     O_3   0.395680 0.058580 0.000030 -0.372258
V3    V     V_3+5 0.670570 0.989070 0.999990 1.404036
O18   O     O_R   0.058820 0.094950 0.913870 -0.525923
C33   C     C_R   0.890154 0.116607 0.884825 0.732193
O19   O     O_R   0.058990 0.094970 0.086020 -0.539523
C34   C     C_R   0.890381 0.119111 0.113282 0.701562
V4    V     V_3+5 0.170560 0.010930 0.999930 1.420617
O20   O     O_3   0.895590 0.941310 0.999960 -0.373424
I1    I     I_    0.254941 0.100609 0.723740 -0.479904
C35   C     C_3   0.358124 0.253964 0.858913 -0.748759
H15   H     H_    0.287540 0.300025 0.904891 0.185541
H16   H     H_    0.395890 0.188713 0.890319 0.247591
H17   H     H_    0.491720 0.288956 0.838893 0.206785
C36   C     C_3   0.134606 0.286693 0.104573 -0.764517
H18   H     H_    0.206832 0.354523 0.103433 0.205288
H19   H     H_    0.251349 0.234926 0.107915 0.224032
H20   H     H_    0.056585 0.279321 0.044688 0.186078
C37   C     C_3   0.077389 0.433126 0.232044 -0.780647
H21   H     H_    0.043257 0.463882 0.170673 0.200011
H22   H     H_    0.029552 0.485301 0.277656 0.200074
H23   H     H_    0.235087 0.424108 0.238389 0.211245

loop_
_geom_bond_atom_site_label_1
_geom_bond_atom_site_label_2
_ccdc_geom_bond_type
C21   C22   A    
C4    C6    S    
C7    H1    S    
C1    O6    A    
C25   C26   A    
C1    C24   S    
C28   H13   S    
C13   C18   A    
C12   H3    S    
C19   H7    S    
C35   H16   S    
C5    C12   S    
C7    C8    A    
C11   C35   S    
O13   V3    S    
O5    C3    A    
C14   C15   A    
C36   H19   S    
O18   V4    S    
O12   C31   A    
V2    O10   S    
O14   C32   A    
C17   H6    S    
O16   V4    S    
O19   V4    S    
O8    V2    S    
O14   V3    S    
O12   V3    S    
V3    O20   S    
C13   C36   S    
C25   H11   S    
C23   C24   A    
C26   C27   A    
C35   H17   S    
C9    C10   A    
O1    V2    S    
O7    V1    S    
C17   C18   A    
C28   C29   A    
O9    C4    A    
C22   C23   A    
C2    C30   S    
C18   C34   S    
O11   C32   A    
C29   C30   A    
C5    C10   A    
C35   H15   S    
O15   V3    S    
C27   C28   A    
C10   C11   S    
C20   C21   A    
C20   H8    S    
O4    C2    A    
C36   H18   S    
C6    C7    A    
C11   C12   S    
O17   V4    S    
O18   C33   A    
C16   C17   A    
C9    C33   S    
C14   C37   S    
O2    C1    A    
C13   C14   A    
C15   C16   A    
C5    C6    A    
O11   V4    S    
O3    C4    A    
C37   H21   S    
O6    V2    S    
C37   H22   S    
O9    V2    S    
C3    C15   S    
C26   H12   S    
C22   H9    S    
C21   C32   S    
O2    V1    S    
C23   H10   S    
C29   H14   S    
O1    C2    A    
O5    V1    S    
O8    C3    A    
C37   H23   S    
C12   H4    S    
O15   C33   A    
C31   O16   A    
C16   H5    S    
C8    C9    A    
O7    V2    S    
O4    V1    S    
C19   C20   A    
O3    V1    S    
V1    O10   S    
C36   H20   S    
C11   I1    S    
O19   C34   A    
O13   C34   A    
V4    O20   S    
O17   V3    S    
C27   C31   S    
C19   C24   A    
C8    H2    S    
C25   C30   A    
