data_mof_unit_26096.cif
_audit_creation_date              2013-03-05T15:42:34-0500
_audit_creation_method            fapswitch 2.2
_symmetry_space_group_name_H-M    P1
_symmetry_Int_Tables_number       1
_space_group_crystal_system       triclinic
_cell_length_a                    10.785644
_cell_length_b                    10.950394
_cell_length_c                    9.732672
_cell_angle_alpha                 91.255858
_cell_angle_beta                  90.299846
_cell_angle_gamma                 90.146345
_cell_volume                      1149.20124053

loop_
_atom_site_label
_atom_site_type_symbol
_atom_site_description
_atom_site_fract_x
_atom_site_fract_y
_atom_site_fract_z
_atom_type_partial_charge
O1    O     O_R   0.500020 0.321960 0.617040 -0.588365
O2    O     O_R   0.499980 0.321920 0.382900 -0.509340
C1    C     C_R   0.500267 0.265474 0.498208 0.886901
O3    O     O_R   0.319670 0.500020 0.617100 -0.592418
O4    O     O_R   0.319630 0.499980 0.382950 -0.538447
C2    C     C_R   0.262846 0.504274 0.499945 0.797432
Cu1   Cu    Cu3+1 0.500020 0.500020 0.638630 1.082480
Cu2   Cu    Cu3+1 0.499980 0.499980 0.361370 1.095959
O5    O     O_R   0.500020 0.678080 0.617100 -0.517554
O6    O     O_R   0.499980 0.678040 0.382960 -0.587271
O7    O     O_R   0.680370 0.500020 0.617050 -0.564572
O8    O     O_R   0.680330 0.499980 0.382900 -0.535039
C3    C     C_R   0.504981 0.734573 0.501620 0.718565
C4    C     C_R   0.737354 0.503486 0.500297 0.846213
H1    H     H_    0.112873 0.354455 0.364440 0.223209
C5    C     C_R   0.130424 0.700062 0.646526 -0.114463
H2    H     H_    0.230447 0.706299 0.646145 0.159127
C6    C     C_R   0.065872 0.791346 0.717813 -0.123083
H3    H     H_    0.116150 0.863415 0.772062 0.175522
C7    C     C_R   0.936931 0.791208 0.717447 -0.038467
H4    H     H_    0.887166 0.863147 0.771460 0.205016
C8    C     C_R   0.871725 0.699734 0.645890 -0.067538
H5    H     H_    0.771796 0.705915 0.644676 0.180635
C9    C     C_R   0.935096 0.604640 0.575252 -0.010717
C10   C     C_R   0.066280 0.605058 0.575224 0.089897
C11   C     C_R   0.129241 0.512485 0.499882 -0.183581
C12   C     C_R   0.064153 0.424753 0.422584 -0.201263
C13   C     C_R   0.936313 0.423927 0.422695 0.640605
C14   C     C_R   0.871352 0.511222 0.500577 -0.232674
C15   C     C_2   0.507014 0.930250 0.392162 -0.306864
C16   C     C_2   0.529090 0.865436 0.505763 0.125157
H6    H     H_    0.473138 0.885012 0.298768 0.212319
C17   C     C_2   0.526621 0.062461 0.386477 0.398965
C18   C     C_2   0.491690 0.133497 0.494512 -0.328912
H7    H     H_    0.449589 0.093009 0.583890 0.162039
C19   C     C_2   0.431866 0.427859 0.921523 -0.021382
N1    N     N_2   0.498640 0.498660 0.846910 -0.089894
H8    H     H_    0.382315 0.353184 0.870595 0.151801
C20   C     C_2   0.417386 0.442052 0.074992 0.449497
N2    N     N_2   0.498610 0.498630 0.153040 -0.304816
H9    H     H_    0.582213 0.520345 0.109517 0.225026
N3    N     N_R   0.526509 0.614015 0.901972 0.224570
O9    O     O_R   0.636105 0.659946 0.882412 -0.302403
O10   O     O_R   0.437797 0.685899 0.944133 -0.315024
N4    N     N_R   0.310474 0.386862 0.133926 0.132159
O11   O     O_R   0.201071 0.423342 0.096155 -0.337538
O12   O     O_R   0.320995 0.281593 0.191971 -0.334689
F1    F     F_    0.875673 0.335239 0.349382 -0.587350
N5    N     N_R   0.590633 0.918152 0.624939 0.109368
O13   O     O_R   0.550898 0.895321 0.747750 -0.256176
O14   O     O_R   0.692759 0.980221 0.611263 -0.341735
N6    N     N_R   0.581093 0.111021 0.264488 0.162513
O15   O     O_R   0.551178 0.064601 0.144585 -0.284556
O16   O     O_R   0.678362 0.181169 0.274604 -0.238842

loop_
_geom_bond_atom_site_label_1
_geom_bond_atom_site_label_2
_geom_bond_distance
_ccdc_geom_bond_type
O4    Cu2   1.957590 S    
Cu1   O7    1.957589 S    
C9    C10   1.414900 A    
C5    C10   1.414976 A    
H1    C12   1.083988 S    
C1    C18   1.447563 S    
C20   N4    1.429151 S    
Cu2   O8    1.955354 S    
C19   H8    1.084983 S    
C17   C18   1.349958 D    
Cu1   N1    2.027634 S    
Cu1   Cu2   2.698469 S    
C5    C6    1.394112 A    
O1    Cu1   1.956533 S    
N4    O11   1.300531 A    
N6    O15   1.301367 A    
C17   N6    1.439078 S    
C15   H6    1.086744 S    
C11   C12   1.393230 A    
C2    C11   1.444045 S    
N3    O10   1.302804 A    
C19   N1    1.293992 D    
C16   N5    1.442165 S    
O3    Cu1   1.955354 S    
O4    C2    1.295758 A    
O3    C2    1.293481 A    
N2    H9    1.027806 S    
N6    O16   1.300712 A    
C18   H7    1.086044 S    
C6    C7    1.390697 A    
N4    O12   1.299764 A    
C15   C16   1.347355 D    
O7    C4    1.295956 A    
C8    C9    1.414679 A    
N3    O9    1.299998 A    
C4    C14   1.447501 S    
C20   N2    1.303060 D    
O8    C4    1.294546 A    
N1    N3    1.392794 S    
C6    H3    1.082684 S    
C7    H4    1.082574 S    
Cu2   O6    1.956532 S    
N5    O13   1.301073 A    
O2    Cu2   1.965617 S    
C12   C13   1.378858 A    
Cu1   O5    1.965616 S    
O5    C3    1.296033 A    
C8    H5    1.080115 S    
C13   C14   1.398732 A    
O2    C1    1.293019 A    
Cu2   N2    2.027315 S    
C15   C17   1.464876 S    
N5    O14   1.301783 A    
C10   C11   1.415123 A    
C9    C14   1.416312 A    
C3    C16   1.455405 S    
C19   C20   1.507305 S    
C13   F1    1.357040 S    
C7    C8    1.394168 A    
C5    H2    1.080831 S    
O1    C1    1.299581 A    
O6    C3    1.299125 A    
