data_mof_unit_43754.cif
_audit_creation_date              2012-12-10T20:44:04-0500
_audit_creation_method            fapswitch 2.2
_symmetry_space_group_name_H-M    P1
_symmetry_Int_Tables_number       1
_space_group_crystal_system       triclinic
_cell_length_a                    17.549215
_cell_length_b                    10.65322
_cell_length_c                    9.867468
_cell_angle_alpha                 90.330953
_cell_angle_beta                  90.115977
_cell_angle_gamma                 89.845589
_cell_volume                      1844.73768047

loop_
_atom_site_label
_atom_site_type_symbol
_atom_type_description
_atom_site_fract_x
_atom_site_fract_y
_atom_site_fract_z
_atom_type_partial_charge
C1    C     C_R   0.500380 0.260354 0.499507 0.881900
C2    C     C_R   0.114523 0.512946 0.508940 0.005190
C3    C     C_R   0.556460 0.064242 0.573334 0.070567
C4    C     C_R   0.353953 0.502960 0.499965 0.882970
C5    C     C_R   0.503237 0.128621 0.495588 -0.077586
C6    C     C_R   0.457888 0.064587 0.401312 -0.228043
C7    C     C_R   0.457661 0.935024 0.401626 -0.234785
C8    C     C_R   0.502336 0.871510 0.496952 -0.105803
C9    C     C_R   0.555947 0.936015 0.573834 0.103801
C10   C     C_3   0.576458 0.930138 0.720935 -0.115227
C11   C     C_3   0.577250 0.073473 0.720037 -0.500336
C12   C     C_R   0.886500 0.510708 0.505446 0.161129
C13   C     C_R   0.485661 0.392014 0.070205 0.134030
C14   C     C_R   0.520360 0.603901 0.072703 -0.127473
C15   C     C_R   0.520234 0.603876 0.928976 -0.125060
C16   C     C_R   0.500035 0.739704 0.500019 0.861372
C17   C     C_R   0.485423 0.392269 0.927759 0.132045
C18   C     C_3   0.414355 0.316158 0.920728 -0.569207
C19   C     C_3   0.415333 0.313345 0.075057 0.357229
C20   C     C_R   0.646451 0.500316 0.500184 0.854603
C21   C     C_R   0.847510 0.476939 0.622493 -0.163376
C22   C     C_R   0.768626 0.472908 0.620626 -0.229587
C23   C     C_1   0.966635 0.513035 0.507179 -0.064348
C24   C     C_R   0.729035 0.502495 0.501277 -0.023365
C25   C     C_R   0.768905 0.535794 0.383863 -0.200848
C26   C     C_R   0.847831 0.540075 0.386191 -0.173630
C27   C     C_3   0.653996 0.866719 0.751339 -0.385655
C28   C     C_3   0.716610 0.889046 0.644946 -0.311641
C29   C     C_3   0.792146 0.831198 0.689609 -0.880531
C30   C     C_3   0.292432 0.297409 0.153850 -0.335967
C31   C     C_3   0.138229 0.342049 0.802020 -0.334719
C32   C     C_3   0.270943 0.704512 0.346429 -0.409752
C33   C     C_3   0.264075 0.682185 0.193231 -0.296669
C34   C     C_1   0.034221 0.513617 0.508356 0.027616
C35   C     C_3   0.312107 0.775418 0.113738 -0.886729
C36   C     C_R   0.153821 0.426860 0.589758 0.575917
C37   C     C_R   0.233205 0.424061 0.582216 -0.357570
C38   C     C_R   0.271910 0.509975 0.500901 -0.111079
C39   C     C_R   0.231867 0.601292 0.425282 0.101067
C40   C     C_R   0.152563 0.600045 0.429033 -0.295171
H1    H     H_    0.878019 0.453829 0.714687 0.142638
H2    H     H_    0.738772 0.446581 0.712093 0.157322
H3    H     H_    0.427307 0.219278 0.119268 0.054760
H4    H     H_    0.739214 0.559551 0.291110 0.152368
H5    H     H_    0.878629 0.565991 0.295501 0.129885
H6    H     H_    0.265014 0.353722 0.637673 0.157387
H7    H     H_    0.120317 0.668204 0.370954 0.158672
H8    H     H_    0.419711 0.114200 0.333903 0.145698
H9    H     H_    0.812969 0.877928 0.783480 0.256605
H10   H     H_    0.785143 0.729398 0.708944 0.272221
H11   H     H_    0.835333 0.843373 0.608665 0.255863
H12   H     H_    0.419892 0.885245 0.333347 0.157298
H13   H     H_    0.699653 0.845336 0.546880 0.217447
H14   H     H_    0.725251 0.991044 0.628774 0.222705
H15   H     H_    0.673945 0.899891 0.852350 0.202665
H16   H     H_    0.644503 0.763903 0.758476 0.204685
H17   H     H_    0.307019 0.226196 0.231723 0.158286
H18   H     H_    0.274567 0.250859 0.057672 0.153126
H19   H     H_    0.243114 0.352270 0.192337 0.188856
H20   H     H_    0.146624 0.439279 0.841654 0.157363
H21   H     H_    0.191166 0.285757 0.813974 0.163252
H22   H     H_    0.093823 0.297541 0.865389 0.193245
H23   H     H_    0.529246 0.892882 0.783880 0.151166
H24   H     H_    0.295331 0.873303 0.139482 0.248510
H25   H     H_    0.373512 0.761620 0.136879 0.266593
H26   H     H_    0.303349 0.759950 0.003423 0.254169
H27   H     H_    0.283501 0.585922 0.167680 0.282651
H28   H     H_    0.203536 0.691577 0.161476 0.202213
H29   H     H_    0.244286 0.796204 0.373016 0.188238
H30   H     H_    0.331755 0.713092 0.375264 0.202189
H31   H     H_    0.531152 0.115585 0.782439 0.190640
H32   H     H_    0.634123 0.116712 0.735948 0.198536
H33   H     H_    0.535672 0.688540 0.127120 0.143340
H34   H     H_    0.535130 0.688384 0.875960 0.130559
H35   H     H_    0.365678 0.369439 0.876830 0.231030
H36   H     H_    0.423932 0.222282 0.874399 0.154413
N1    N     N_R   0.499490 0.499140 0.142800 -0.081398
N2    N     N_R   0.499490 0.499180 0.857150 -0.086316
O1    O     O_R   0.500010 0.316790 0.614690 -0.615298
O2    O     O_3   0.113209 0.340555 0.665842 -0.605190
O3    O     O_R   0.500000 0.316760 0.385350 -0.622492
O4    O     O_R   0.389120 0.500020 0.614710 -0.617613
O5    O     O_R   0.389110 0.499990 0.385370 -0.558985
O6    O     O_R   0.500000 0.683240 0.614650 -0.628762
O7    O     O_R   0.499990 0.683210 0.385310 -0.633734
O8    O     O_R   0.610890 0.500010 0.614630 -0.623031
O9    O     O_R   0.610880 0.499980 0.385290 -0.622750
O10   O     O_3   0.353784 0.380061 0.132888 -0.565164
Zn1   Zn    Zn3+2 0.500010 0.500020 0.653130 0.939409
Zn2   Zn    Zn3+2 0.499990 0.499980 0.346870 0.969457

loop_
_geom_bond_atom_site_label_1
_geom_bond_atom_site_label_2
_ccdc_geom_bond_type
C10   C27   S    
C40   H7    S    
C20   O9    A    
C18   H35   S    
C31   H21   S    
C10   H23   S    
C7    C8    A    
C29   H9    S    
C12   C23   S    
O4    Zn1   S    
C6    H8    S    
C1    C5    S    
C28   C29   S    
C7    H12   S    
C5    C6    A    
C11   H31   S    
C14   N1    A    
C15   N2    A    
C35   H25   S    
C1    O3    A    
C30   H17   S    
C16   O6    A    
C18   C19   S    
C32   C39   S    
C26   H5    S    
C20   C24   S    
C8    C9    A    
C20   O8    A    
C35   H24   S    
C9    C10   S    
C2    C34   S    
C8    C16   S    
C21   C22   A    
C31   H22   S    
C25   H4    S    
C19   H3    S    
C29   H10   S    
N2    Zn1   S    
C38   C39   A    
C13   N1    A    
N1    Zn2   S    
C13   C19   S    
C14   H33   S    
C31   O2    S    
C24   C25   A    
C19   O10   S    
C36   O2    S    
C39   C40   A    
C28   H14   S    
C11   H32   S    
C32   H30   S    
C35   H26   S    
C25   C26   A    
C12   C21   A    
C12   C26   A    
C31   H20   S    
C37   C38   A    
C3    C9    A    
O7    Zn2   S    
C23   C34   T    
C30   H19   S    
C17   C18   S    
C32   H29   S    
C21   H1    S    
O3    Zn2   S    
C4    C38   S    
C16   O7    A    
C1    O1    A    
C22   C24   A    
O6    Zn1   S    
C30   O10   S    
C33   H27   S    
C29   H11   S    
C2    C36   A    
O5    Zn2   S    
C36   C37   A    
C18   H36   S    
C27   H16   S    
C3    C5    A    
O8    Zn1   S    
C28   H13   S    
C6    C7    A    
C13   C17   A    
C32   C33   S    
C22   H2    S    
C4    O5    A    
C30   H18   S    
C17   N2    A    
C33   C35   S    
C27   H15   S    
O1    Zn1   S    
C3    C11   S    
C10   C11   S    
C2    C40   A    
C15   H34   S    
C4    O4    A    
O9    Zn2   S    
C27   C28   S    
C14   C15   A    
C37   H6    S    
C33   H28   S    
