data_mof_unit_41733.cif
_audit_creation_date              2012-12-10T17:03:34-0500
_audit_creation_method            fapswitch 2.2
_symmetry_space_group_name_H-M    P1
_symmetry_Int_Tables_number       1
_space_group_crystal_system       triclinic
_cell_length_a                    38.738731
_cell_length_b                    22.011748
_cell_length_c                    21.968813
_cell_angle_alpha                 90.119251
_cell_angle_beta                  124.050793
_cell_angle_gamma                 90.448452
_cell_volume                      15520.0912602

loop_
_atom_site_label
_atom_site_type_symbol
_atom_type_description
_atom_site_fract_x
_atom_site_fract_y
_atom_site_fract_z
_atom_type_partial_charge
C1    C     C_R   0.000579 0.000048 0.118844 0.776385
C2    C     C_3   0.775240 0.959674 0.838437 0.315218
C3    C     C_R   0.999558 0.000208 0.618704 0.772743
C4    C     C_R   0.501061 0.496059 0.381674 0.869990
C5    C     C_R   0.500360 0.498469 0.619602 0.887271
C6    C     C_R   0.000152 0.118804 0.500804 0.720103
C7    C     C_R   0.500931 0.618892 0.496070 0.809262
C8    C     C_R   0.427776 0.794571 0.391325 0.355511
C9    C     C_R   0.541821 0.805252 0.641054 0.355763
C10   C     C_R   0.966788 0.306592 0.363125 0.333417
C11   C     C_R   0.032440 0.308528 0.637286 0.327613
C12   C     C_R   0.404417 0.766908 0.320378 0.007447
C13   C     C_3   0.723633 0.464165 0.166141 0.306828
C14   C     C_R   0.546927 0.766704 0.696504 0.075901
C15   C     C_R   0.968474 0.270154 0.312127 0.071112
C16   C     C_R   0.029375 0.272810 0.687155 0.071558
C17   C     C_R   0.957994 0.208340 0.308858 0.076262
C18   C     C_R   0.039472 0.211054 0.691238 0.075099
C19   C     C_R   0.423934 0.722542 0.302656 0.043499
C20   C     C_R   0.558123 0.706315 0.695536 0.067248
C21   C     C_R   0.954052 0.186238 0.364635 0.325343
C22   C     C_R   0.044628 0.188026 0.637127 0.318619
C23   C     C_R   0.462118 0.697575 0.360447 0.407004
C24   C     C_3   0.274261 0.466387 0.837123 0.305791
C25   C     C_R   0.556660 0.686324 0.633376 0.328911
C26   C     C_R   0.977797 0.216700 0.433575 -0.069696
C27   C     C_R   0.022550 0.217672 0.568088 -0.061335
C28   C     C_R   0.480127 0.720058 0.432531 -0.082630
C29   C     C_R   0.528982 0.716710 0.566119 -0.111791
C30   C     C_3   0.224032 0.062879 0.209300 -0.110119
C31   C     C_3   0.775019 0.060851 0.780738 -0.162770
C32   C     C_3   0.726074 0.562907 0.230780 -0.171044
C33   C     C_3   0.275458 0.563451 0.774321 -0.135779
C34   C     C_R   0.470098 0.779233 0.439586 -0.114997
C35   C     C_1   0.337857 0.005896 0.342140 0.130446
C36   C     C_R   0.524318 0.780025 0.569928 -0.082740
C37   C     C_R   0.981706 0.280390 0.432900 -0.059178
C38   C     C_R   0.018640 0.281375 0.568165 -0.065208
C39   C     C_R   0.000381 0.185238 0.500880 -0.082837
C40   C     C_R   0.505085 0.685877 0.497207 -0.017555
C41   C     C_R   0.498577 0.813153 0.503374 -0.015624
C42   C     C_R   0.000256 0.313942 0.500402 -0.094085
C43   C     C_R   0.566950 0.186473 0.512949 0.326474
C44   C     C_R   0.423066 0.194798 0.423757 0.240096
C45   C     C_R   0.073884 0.697060 0.561650 0.244295
C46   C     C_1   0.662098 0.995490 0.664856 0.169588
C47   C     C_R   0.940490 0.687891 0.517424 0.365633
C48   C     C_R   0.579478 0.209824 0.468794 -0.018796
C49   C     C_R   0.389285 0.218970 0.422741 -0.003017
C50   C     C_R   0.105113 0.720170 0.553982 -0.015179
C51   C     C_R   0.933614 0.716334 0.566970 -0.026452
C52   C     C_R   0.097951 0.774621 0.514342 0.335961
C53   C     C_R   0.934753 0.780371 0.569921 0.341974
C54   C     C_R   0.576360 0.273311 0.456824 0.359963
C55   C     C_R   0.394422 0.274403 0.460040 0.339869
C56   C     C_R   0.058684 0.803730 0.482424 0.309244
C57   C     C_1   0.837748 0.495531 0.339055 0.172407
C58   C     C_R   0.940890 0.811298 0.520474 0.213848
C59   C     C_R   0.564796 0.308522 0.496726 0.220497
C60   C     C_R   0.434375 0.303342 0.499728 0.309343
C61   C     C_R   0.028985 0.779970 0.495467 -0.079555
C62   C     C_R   0.967237 0.782322 0.502477 -0.112877
C63   C     C_R   0.534259 0.281423 0.506227 -0.089570
C64   C     C_R   0.466881 0.279464 0.494823 -0.079042
C65   C     C_R   0.534609 0.217351 0.510266 -0.081843
C66   C     C_R   0.463221 0.218275 0.474578 -0.144224
C67   C     C_R   0.033288 0.719035 0.515452 -0.139798
C68   C     C_1   0.162024 0.499617 0.662132 0.135108
C69   C     C_R   0.967336 0.717920 0.502992 -0.091833
C70   C     C_R   0.997167 0.813871 0.494486 -0.014320
C71   C     C_R   0.501397 0.313545 0.504427 -0.016397
C72   C     C_3   0.272744 0.065732 0.257680 -0.135125
C73   C     C_3   0.726344 0.060816 0.731044 -0.113172
C74   C     C_3   0.774779 0.561907 0.280210 -0.101262
C75   C     C_3   0.226822 0.564126 0.724522 -0.127635
C76   C     C_R   0.499437 0.185546 0.497100 -0.050597
C77   C     C_R   0.998694 0.686024 0.502398 -0.036126
C78   C     C_1   0.375503 0.005143 0.377688 0.059900
C79   C     C_1   0.161786 0.999016 0.171007 0.109183
C80   C     C_1   0.624500 0.997638 0.625473 0.112513
C81   C     C_1   0.875414 0.496889 0.375748 0.090010
C82   C     C_1   0.124432 0.500498 0.624029 0.014307
C83   C     C_3   0.208013 0.998496 0.218818 -0.060628
C84   C     C_3   0.791977 0.992753 0.793006 -0.049415
C85   C     C_3   0.707852 0.494924 0.214116 -0.043317
C86   C     C_3   0.291742 0.494926 0.790586 -0.050939
C87   C     C_3   0.276928 0.992501 0.354758 0.311709
C88   C     C_3   0.723486 0.961579 0.662850 0.308880
C89   C     C_3   0.776195 0.460159 0.342122 0.274655
C90   C     C_1   0.838131 0.995905 0.839431 0.104140
C91   C     C_3   0.223123 0.461445 0.661289 0.299931
C92   C     C_3   0.291592 0.003473 0.299111 -0.120188
C93   C     C_3   0.708394 0.993577 0.710778 -0.138935
C94   C     C_3   0.791427 0.494196 0.295459 -0.130868
C95   C     C_3   0.208217 0.497109 0.707418 -0.110516
C96   C     C_3   0.295410 0.045058 0.414415 -0.756960
C97   C     C_3   0.704717 0.996661 0.588087 -0.728453
C98   C     C_3   0.796060 0.492817 0.419016 -0.698743
C99   C     C_3   0.205154 0.494159 0.585428 -0.751722
C100  C     C_3   0.912925 0.819170 0.090268 -0.610322
C101  C     C_1   0.661768 0.498398 0.167332 0.106181
C102  C     C_3   0.131847 0.886069 0.941651 -0.642032
C103  C     C_3   0.398632 0.334503 0.069891 -0.547151
C104  C     C_3   0.590899 0.324074 0.917647 -0.569461
C105  C     C_3   0.040756 0.120384 0.407624 -0.673939
C106  C     C_3   0.957224 0.118285 0.592964 -0.670259
C107  C     C_3   0.601629 0.487650 0.440615 -0.505079
C108  C     C_3   0.471578 0.625158 0.610100 -0.745109
C109  C     C_3   0.904075 0.949636 0.251561 -0.610630
C110  C     C_3   0.025351 0.873175 0.670423 -0.734001
C111  C     C_3   0.473484 0.367608 0.335278 -0.732024
C112  C     C_R   0.000093 0.000229 0.881530 0.782825
C113  C     C_1   0.337967 0.497138 0.837534 0.106805
C114  C     C_3   0.591349 0.437674 0.739669 -0.607534
C115  C     C_3   0.207918 0.042531 0.328887 -0.668972
C116  C     C_3   0.792062 0.000762 0.674786 -0.683858
C117  C     C_3   0.708523 0.497893 0.333736 -0.689739
C118  C     C_3   0.292664 0.494533 0.672571 -0.680641
C119  C     C_3   0.912763 0.951700 0.052019 -0.752165
C120  C     C_3   0.091491 0.997875 0.943515 -0.834298
C121  C     C_3   0.409787 0.468838 0.053988 -0.770254
C122  C     C_3   0.588599 0.458566 0.947889 -0.746785
C123  C     C_3   0.549283 0.792721 0.762255 -0.667175
C124  C     C_1   0.124242 0.000224 0.131073 -0.089971
C125  C     C_3   0.359184 0.782214 0.264613 -0.528017
C126  C     C_3   0.025465 0.302575 0.744792 -0.673642
C127  C     C_3   0.971241 0.299051 0.252910 -0.668676
C128  C     C_3   0.947020 0.168629 0.244274 -0.734031
C129  C     C_3   0.048723 0.172409 0.755241 -0.731145
C130  C     C_3   0.403360 0.698499 0.224751 -0.659351
C131  C     C_3   0.574730 0.665814 0.761434 -0.729844
C132  C     C_3   0.349072 0.183184 0.384363 -0.661737
C133  C     C_3   0.596782 0.167271 0.438862 -0.565836
C134  C     C_3   0.920419 0.678982 0.608107 -0.553528
C135  C     C_1   0.875680 0.998483 0.876180 -0.080152
C136  C     C_3   0.144443 0.684311 0.585611 -0.649092
C137  C     C_3   0.203647 0.122951 0.211533 -0.811263
C138  C     C_3   0.794836 0.112352 0.761362 -0.760597
C139  C     C_3   0.707184 0.612404 0.254417 -0.729059
C140  C     C_3   0.295671 0.611447 0.751537 -0.758609
C141  C     C_3   0.290265 0.091704 0.214634 -0.626872
C142  C     C_3   0.708144 0.102773 0.762957 -0.563408
C143  C     C_3   0.793890 0.606669 0.252264 -0.613113
C144  C     C_3   0.209181 0.609636 0.753953 -0.653610
C145  C     C_3   0.210974 0.964275 0.106572 -0.681449
C146  C     C_1   0.624256 0.500433 0.128347 -0.083072
C147  C     C_3   0.789362 0.996121 0.910770 -0.646296
C148  C     C_3   0.711757 0.504185 0.097825 -0.674212
C149  C     C_3   0.286937 0.507367 0.905648 -0.666830
C150  C     C_1   0.375572 0.498951 0.874694 -0.082317
C151  C     C_R   0.060836 0.069470 0.244310 -0.263864
C152  C     C_R   0.935779 0.062535 0.752241 -0.273950
C153  C     C_R   0.558672 0.573366 0.247212 -0.355142
C154  C     C_R   0.439130 0.566501 0.752682 -0.274198
C155  C     C_R   0.085653 0.114135 0.295449 0.330070
C156  C     C_R   0.499609 0.500337 0.118347 0.779576
C157  C     C_R   0.908340 0.102446 0.697217 0.340303
C158  C     C_R   0.591323 0.602251 0.310298 0.332185
C159  C     C_R   0.413427 0.607738 0.697744 0.346537
C160  C     C_R   0.083941 0.122399 0.357082 0.280918
C161  C     C_R   0.910325 0.110801 0.635771 0.281963
C162  C     C_R   0.601271 0.582921 0.379434 0.380888
C163  C     C_R   0.418841 0.618144 0.640343 0.293798
C164  C     C_R   0.051980 0.091978 0.359125 -0.005383
C165  C     C_R   0.944210 0.085394 0.636812 0.006770
C166  C     C_R   0.577706 0.534420 0.381605 -0.022529
C167  C     C_R   0.499428 0.499919 0.881081 0.779352
C168  C     C_R   0.453296 0.591100 0.644774 0.020787
C169  C     C_R   0.026447 0.044791 0.306575 0.026031
C170  C     C_R   0.970190 0.040175 0.689869 0.038418
C171  C     C_R   0.537847 0.518347 0.317428 0.093547
C172  C     C_R   0.475825 0.542844 0.695100 0.018656
C173  C     C_R   0.079571 0.000245 0.083159 0.773266
C174  C     C_R   0.920329 0.999704 0.919568 0.774477
C175  C     C_R   0.579628 0.500305 0.081714 0.782224
C176  C     C_R   0.420310 0.499775 0.918810 0.771936
C177  C     C_R   0.029396 0.037722 0.245652 -0.013682
C178  C     C_3   0.274641 0.949412 0.240914 0.208114
C179  C     C_R   0.967983 0.033625 0.751650 -0.017710
C180  C     C_R   0.531273 0.531596 0.249015 -0.003729
C181  C     C_R   0.471570 0.535989 0.754316 -0.023076
C182  C     C_R   0.997914 0.005236 0.311201 -0.081636
C183  C     C_R   0.998024 0.000842 0.684456 -0.068580
C184  C     C_R   0.505794 0.486498 0.318893 -0.057764
C185  C     C_R   0.502638 0.502178 0.689139 -0.080970
C186  C     C_R   0.969196 0.966208 0.250001 -0.035649
C187  C     C_R   0.025285 0.961906 0.744050 -0.006319
C188  C     C_R   0.476766 0.450091 0.257345 0.002850
C189  C     C_3   0.725812 0.956457 0.784536 0.169318
C190  C     C_R   0.529870 0.462303 0.749071 -0.032619
C191  C     C_R   0.970381 0.965319 0.187140 -0.020311
C192  C     C_R   0.032172 0.974187 0.812469 -0.005305
C193  C     C_R   0.470057 0.462987 0.188435 0.025139
C194  C     C_R   0.529877 0.464552 0.813219 -0.017939
C195  C     C_R   0.000199 0.000789 0.185141 -0.073853
C196  C     C_R   0.000033 0.002309 0.814348 -0.086486
C197  C     C_R   0.498619 0.501416 0.184814 -0.071217
C198  C     C_R   0.500336 0.500203 0.815206 -0.081022
C199  C     C_R   0.939374 0.925432 0.248176 0.069757
C200  C     C_3   0.772622 0.458413 0.219981 0.171822
C201  C     C_R   0.046572 0.911764 0.738801 0.073958
C202  C     C_R   0.455924 0.398835 0.263027 0.058987
C203  C     C_R   0.556944 0.418226 0.748628 0.064549
C204  C     C_R   0.929783 0.870517 0.207940 0.447534
C205  C     C_R   0.083262 0.889455 0.802559 0.356358
C206  C     C_R   0.424483 0.367453 0.199070 0.339290
C207  C     C_R   0.566225 0.365667 0.791818 0.434973
C208  C     C_R   0.929653 0.871863 0.143994 0.006161
C209  C     C_R   0.095039 0.912204 0.871871 0.018251
C210  C     C_R   0.418369 0.381138 0.131548 0.023161
C211  C     C_3   0.225177 0.462090 0.782181 0.177213
C212  C     C_R   0.570998 0.372857 0.859720 0.004781
C213  C     C_R   0.941655 0.926530 0.127832 0.114769
C214  C     C_R   0.070980 0.957847 0.876085 0.138321
C215  C     C_R   0.435594 0.434882 0.124976 0.110246
C216  C     C_R   0.559652 0.429031 0.873925 0.116852
C217  C     C_R   0.498974 0.881033 0.499885 0.866749
C218  C     C_R   0.000077 0.381304 0.500076 0.690281
C219  C     C_3   0.225595 0.990039 0.305817 0.362884
C220  C     C_3   0.774766 0.962054 0.712426 0.371296
C221  C     C_3   0.724816 0.461430 0.293003 0.377151
C222  C     C_3   0.225328 0.948444 0.187210 0.319661
C223  C     C_3   0.274459 0.460461 0.711791 0.365166
C224  C     C_R   0.420267 0.001537 0.420769 0.860940
C225  C     C_R   0.579756 0.000137 0.579718 0.944329
C226  C     C_R   0.920236 0.498901 0.420378 0.866822
C227  C     C_R   0.079719 0.500419 0.579460 0.815909
C228  C     C_R   0.498950 0.118704 0.498578 0.824488
C229  C     C_R   0.999346 0.618894 0.500077 0.862817
C230  C     C_R   0.999439 0.880890 0.498640 0.820257
C231  C     C_R   0.500172 0.380773 0.501305 0.808129
C232  C     C_R   0.999726 0.000180 0.380360 0.888432
Cu1   Cu    Cu3+1 1.000000 0.938180 0.000000 1.056135
Cu2   Cu    Cu3+1 0.041320 0.000030 0.541300 1.154759
Cu3   Cu    Cu3+1 0.458680 0.500030 0.458700 1.112963
Cu4   Cu    Cu3+1 0.541320 0.500030 0.541300 1.153315
Cu5   Cu    Cu3+1 0.500000 0.438180 0.000000 1.052861
Cu6   Cu    Cu3+1 1.000000 0.061820 0.000000 1.062753
Cu7   Cu    Cu3+1 0.500000 0.561820 0.000000 1.048990
Cu8   Cu    Cu3+1 0.500000 0.000200 0.561810 1.135314
Cu9   Cu    Cu3+1 0.500000 0.000200 0.438190 1.123941
Cu10  Cu    Cu3+1 0.000000 0.500200 0.561810 1.146291
Cu11  Cu    Cu3+1 0.000000 0.500200 0.438190 1.102022
Cu12  Cu    Cu3+1 0.958680 0.000030 0.458700 1.161484
H1    H     H_    0.065983 0.061100 0.201610 0.197195
H2    H     H_    0.716135 0.083770 0.679178 0.224665
H3    H     H_    0.281131 0.540139 0.653831 0.222631
H4    H     H_    0.913610 0.923551 0.011485 0.265921
H5    H     H_    0.880480 0.950150 0.038092 0.258180
H6    H     H_    0.919696 0.999936 0.048083 0.191994
H7    H     H_    0.094354 0.972071 0.988774 0.226408
H8    H     H_    0.122976 0.011761 0.958608 0.232863
H9    H     H_    0.074668 0.040803 0.935037 0.235510
H10   H     H_    0.408918 0.443786 0.009949 0.250902
H11   H     H_    0.377455 0.471960 0.039471 0.260465
H12   H     H_    0.420764 0.516174 0.057502 0.205413
H13   H     H_    0.785532 0.582645 0.333706 0.222660
H14   H     H_    0.589602 0.431937 0.991059 0.263069
H15   H     H_    0.620417 0.460272 0.959737 0.264189
H16   H     H_    0.580164 0.506212 0.949801 0.191665
H17   H     H_    0.528297 0.766543 0.772175 0.220066
H18   H     H_    0.581709 0.790668 0.811659 0.259326
H19   H     H_    0.539071 0.840746 0.752974 0.252910
H20   H     H_    0.356207 0.805804 0.217336 0.243213
H21   H     H_    0.340027 0.739901 0.245315 0.222559
H22   H     H_    0.345460 0.812110 0.285791 0.306801
H23   H     H_    0.999746 0.280571 0.745298 0.231587
H24   H     H_    0.216651 0.584899 0.671524 0.191009
H25   H     H_    0.055004 0.298373 0.799805 0.257553
H26   H     H_    0.018140 0.351552 0.732941 0.246950
H27   H     H_    0.996295 0.277153 0.250865 0.235225
H28   H     H_    0.941154 0.293851 0.198734 0.255745
H29   H     H_    0.978882 0.348253 0.264235 0.246564
H30   H     H_    0.414816 0.849139 0.536441 0.415647
H31   H     H_    0.600151 0.835330 0.599462 0.383058
H32   H     H_    0.920387 0.378399 0.414260 0.313896
H33   H     H_    0.079307 0.378948 0.587905 0.320244
H34   H     H_    0.973539 0.167663 0.238043 0.219687
H35   H     H_    0.283116 0.909230 0.274643 0.214274
H36   H     H_    0.940445 0.121125 0.252062 0.237851
H37   H     H_    0.919046 0.186450 0.193310 0.268526
H38   H     H_    0.021460 0.171873 0.759422 0.217941
H39   H     H_    0.054981 0.124645 0.748318 0.245469
H40   H     H_    0.076365 0.190845 0.806983 0.268431
H41   H     H_    0.374292 0.721861 0.183557 0.209760
H42   H     H_    0.424561 0.704325 0.206236 0.275502
H43   H     H_    0.395452 0.649651 0.222720 0.249638
H44   H     H_    0.551590 0.661976 0.775973 0.214148
H45   H     H_    0.580466 0.619151 0.750075 0.245369
H46   H     H_    0.717960 0.909848 0.765617 0.224451
H47   H     H_    0.604381 0.684917 0.808842 0.270074
H48   H     H_    0.840726 0.176319 0.246109 0.392125
H49   H     H_    0.157345 0.176173 0.761054 0.392078
H50   H     H_    0.518303 0.677567 0.274641 0.385631
H51   H     H_    0.669128 0.682899 0.724151 0.391595
H52   H     H_    0.337793 0.178480 0.420751 0.245543
H53   H     H_    0.325438 0.205214 0.331899 0.283803
H54   H     H_    0.353603 0.136311 0.371822 0.200090
H55   H     H_    0.577068 0.168238 0.377975 0.250219
H56   H     H_    0.629507 0.180006 0.460357 0.276121
H57   H     H_    0.778016 0.411392 0.236173 0.221370
H58   H     H_    0.596073 0.119487 0.454224 0.220199
H59   H     H_    0.939559 0.691374 0.667258 0.253206
H60   H     H_    0.886982 0.686402 0.585142 0.270313
H61   H     H_    0.925214 0.629817 0.604462 0.228887
H62   H     H_    0.151006 0.676547 0.543107 0.250237
H63   H     H_    0.170681 0.708639 0.633867 0.279332
H64   H     H_    0.141303 0.638574 0.603183 0.199111
H65   H     H_    0.577921 0.156028 0.659607 0.379661
H66   H     H_    0.459885 0.223256 0.342939 0.343169
H67   H     H_    0.048435 0.736712 0.658794 0.353738
H68   H     H_    0.218334 0.415054 0.765200 0.219435
H69   H     H_    0.905529 0.665785 0.355320 0.377258
H70   H     H_    0.204290 0.802035 0.556348 0.399774
H71   H     H_    0.951545 0.833606 0.741479 0.388324
H72   H     H_    0.612261 0.287770 0.332445 0.406313
H73   H     H_    0.283669 0.304512 0.389511 0.393952
H74   H     H_    0.026163 0.829178 0.294162 0.372987
H75   H     H_    0.829704 0.844979 0.405855 0.384996
H76   H     H_    0.675713 0.335733 0.636430 0.388767
H77   H     H_    0.452035 0.329777 0.678517 0.378816
H78   H     H_    0.173254 0.114825 0.204180 0.275165
H79   H     H_    0.288518 0.036371 0.456374 0.277000
H80   H     H_    0.224299 0.150332 0.262032 0.240102
H81   H     H_    0.197330 0.153706 0.166250 0.249241
H82   H     H_    0.825578 0.099172 0.773738 0.298536
H83   H     H_    0.774205 0.127647 0.703761 0.240792
H84   H     H_    0.800219 0.154134 0.794417 0.248326
H85   H     H_    0.676655 0.598191 0.243235 0.278753
H86   H     H_    0.728429 0.626524 0.312747 0.255638
H87   H     H_    0.701572 0.655113 0.223200 0.246850
H88   H     H_    0.326001 0.595939 0.763995 0.296832
H89   H     H_    0.275015 0.624588 0.693086 0.234158
H90   H     H_    0.329822 0.048442 0.444621 0.243474
H91   H     H_    0.301903 0.654869 0.782351 0.252008
H92   H     H_    0.323270 0.079804 0.239933 0.296201
H93   H     H_    0.272113 0.077537 0.156502 0.261210
H94   H     H_    0.288535 0.142101 0.213818 0.233277
H95   H     H_    0.675255 0.091661 0.741365 0.292025
H96   H     H_    0.726243 0.102472 0.823378 0.240936
H97   H     H_    0.709240 0.150613 0.747980 0.250291
H98   H     H_    0.827608 0.599381 0.278607 0.284695
H99   H     H_    0.778202 0.605360 0.192325 0.249148
H100  H     H_    0.790240 0.653934 0.265597 0.247067
H101  H     H_    0.284518 0.091385 0.394712 0.181387
H102  H     H_    0.175419 0.603055 0.727798 0.293361
H103  H     H_    0.224749 0.608612 0.813698 0.271154
H104  H     H_    0.214423 0.656625 0.742382 0.224345
H105  H     H_    0.180635 0.797990 0.093496 0.390852
H106  H     H_    0.809564 0.832886 0.971150 0.391544
H107  H     H_    0.704675 0.365119 0.031636 0.398971
H108  H     H_    0.287487 0.368124 0.968082 0.404400
H109  H     H_    0.177046 0.972233 0.071620 0.184196
H110  H     H_    0.226929 0.003133 0.101219 0.215502
H111  H     H_    0.217742 0.928094 0.079964 0.309860
H112  H     H_    0.932164 0.055616 0.796990 0.198635
H113  H     H_    0.712859 0.973533 0.552836 0.266495
H114  H     H_    0.823343 0.005593 0.943518 0.189304
H115  H     H_    0.773435 0.039119 0.903250 0.212115
H116  H     H_    0.782296 0.971763 0.946599 0.307794
H117  H     H_    0.678599 0.517790 0.066870 0.193031
H118  H     H_    0.731207 0.544942 0.110774 0.216806
H119  H     H_    0.716540 0.481011 0.058510 0.294806
H120  H     H_    0.320557 0.519292 0.937505 0.192979
H121  H     H_    0.269302 0.549261 0.893239 0.211728
H122  H     H_    0.280416 0.486093 0.943720 0.295454
H123  H     H_    0.670199 0.997879 0.555348 0.254501
H124  H     H_    0.714262 0.044497 0.592064 0.187041
H125  H     H_    0.787990 0.467920 0.453413 0.267751
H126  H     H_    0.830577 0.494016 0.450726 0.264835
H127  H     H_    0.787188 0.540262 0.418448 0.194315
H128  H     H_    0.212799 0.468328 0.551049 0.274266
H129  H     H_    0.170686 0.496991 0.552750 0.247597
H130  H     H_    0.215843 0.541097 0.587820 0.179935
H131  H     H_    0.202754 0.827781 0.335219 0.397081
H132  H     H_    0.554870 0.586065 0.196875 0.238177
H133  H     H_    0.798775 0.793037 0.737505 0.392048
H134  H     H_    0.696792 0.293284 0.255119 0.392296
H135  H     H_    0.296549 0.291565 0.748433 0.396073
H136  H     H_    0.305732 0.828460 0.414228 0.426101
H137  H     H_    0.685711 0.799248 0.657134 0.397637
H138  H     H_    0.808974 0.297276 0.337417 0.419696
H139  H     H_    0.184067 0.300923 0.660988 0.421502
H140  H     H_    0.311669 0.968820 0.116124 0.397652
H141  H     H_    0.689436 0.021846 0.897703 0.396892
H142  H     H_    0.822227 0.526361 0.130179 0.396101
H143  H     H_    0.433181 0.558280 0.794463 0.198163
H144  H     H_    0.177840 0.534270 0.873616 0.404744
H145  H     H_    0.913276 0.828329 0.041089 0.229160
H146  H     H_    0.932901 0.779016 0.116783 0.259910
H147  H     H_    0.880480 0.808072 0.071837 0.261095
H148  H     H_    0.129531 0.893165 0.989092 0.243678
H149  H     H_    0.132941 0.836028 0.937171 0.288921
H150  H     H_    0.161084 0.907395 0.953708 0.241653
H151  H     H_    0.400334 0.347628 0.023058 0.239969
H152  H     H_    0.415885 0.291250 0.090797 0.229428
H153  H     H_    0.365810 0.325320 0.049097 0.301155
H154  H     H_    0.213226 0.065873 0.151489 0.202771
H155  H     H_    0.595070 0.337446 0.969928 0.241752
H156  H     H_    0.570547 0.283132 0.898213 0.252466
H157  H     H_    0.621900 0.312312 0.929569 0.274116
H158  H     H_    0.173881 0.188816 0.306065 0.386854
H159  H     H_    0.811823 0.164889 0.653053 0.398017
H160  H     H_    0.625903 0.756875 0.311439 0.391782
H161  H     H_    0.312172 0.659088 0.640083 0.390945
H162  H     H_    0.177949 0.132457 0.456482 0.362841
H163  H     H_    0.815638 0.108367 0.528560 0.363595
H164  H     H_    0.675099 0.701261 0.503726 0.395668
H165  H     H_    0.785415 0.078839 0.834885 0.205912
H166  H     H_    0.324703 0.625868 0.522384 0.367093
H167  H     H_    0.062891 0.105246 0.464502 0.303520
H168  H     H_    0.041972 0.170687 0.406004 0.240177
H169  H     H_    0.008518 0.109682 0.388386 0.149879
H170  H     H_    0.936746 0.104557 0.534868 0.306937
H171  H     H_    0.955181 0.168197 0.597330 0.236579
H172  H     H_    0.989957 0.109913 0.614207 0.156285
H173  H     H_    0.583753 0.444632 0.426740 0.257724
H174  H     H_    0.631159 0.476878 0.445900 0.241272
H175  H     H_    0.609063 0.504213 0.494227 0.286364
H176  H     H_    0.716255 0.583081 0.177889 0.207133
H177  H     H_    0.451630 0.618638 0.550568 0.289843
H178  H     H_    0.473428 0.674430 0.622575 0.246970
H179  H     H_    0.503565 0.610899 0.631401 0.171619
H180  H     H_    0.903546 0.999949 0.249685 0.240154
H181  H     H_    0.873446 0.934600 0.202690 0.224109
H182  H     H_    0.906126 0.932632 0.300973 0.293849
H183  H     H_    0.042642 0.876010 0.644606 0.250895
H184  H     H_    0.023761 0.825265 0.684306 0.243413
H185  H     H_    0.992944 0.887018 0.630324 0.213856
H186  H     H_    0.452482 0.375141 0.353189 0.258304
H187  H     H_    0.285927 0.584336 0.827405 0.207017
H188  H     H_    0.476287 0.318319 0.329104 0.234566
H189  H     H_    0.505427 0.382729 0.378380 0.186874
H190  H     H_    0.596263 0.487691 0.745916 0.224343
H191  H     H_    0.621772 0.418214 0.783267 0.231614
H192  H     H_    0.584508 0.421625 0.686252 0.301395
H193  H     H_    0.914119 0.709525 0.229343 0.384179
H194  H     H_    0.172390 0.884433 0.849115 0.357042
H195  H     H_    0.335630 0.365154 0.132889 0.354399
H196  H     H_    0.575024 0.201085 0.777785 0.384427
H197  H     H_    0.173358 0.043687 0.292897 0.261198
H198  H     H_    0.282615 0.100905 0.299944 0.192852
H199  H     H_    0.216519 0.037885 0.385997 0.259845
H200  H     H_    0.219466 0.087751 0.329590 0.219267
H201  H     H_    0.826541 0.005328 0.710191 0.254750
H202  H     H_    0.784220 0.980591 0.622170 0.258247
H203  H     H_    0.779481 0.046173 0.658788 0.226434
H204  H     H_    0.674124 0.502801 0.298812 0.240725
H205  H     H_    0.716109 0.475403 0.384878 0.266572
H206  H     H_    0.721821 0.543129 0.353145 0.217632
H207  H     H_    0.327201 0.497832 0.708153 0.250516
H208  H     H_    0.284596 0.471307 0.621304 0.261226
O1    O     O_R   1.000000 0.947790 0.090180 -0.564304
O2    O     O_R   0.965110 0.000000 0.555270 -0.543899
O3    O     O_2   0.886345 0.220610 0.572312 -0.185301
O4    O     O_2   0.867356 0.134215 0.489224 -0.240460
O5    O     O_3   0.824991 0.150907 0.544462 -0.421430
O6    O     O_2   0.642487 0.600558 0.526948 -0.228270
O7    O     O_2   0.684109 0.584805 0.476357 -0.261452
O8    O     O_3   0.648661 0.689199 0.457468 -0.402904
O9    O     O_2   0.401803 0.731085 0.585429 -0.190438
O10   O     O_2   0.382245 0.648887 0.496762 -0.262557
O11   O     O_3   0.336077 0.666465 0.544550 -0.428300
O12   O     O_2   0.920586 0.810663 0.304931 -0.204429
O13   O     O_R   0.534890 0.500000 0.444730 -0.585614
O14   O     O_2   0.862012 0.807491 0.175746 -0.275794
O15   O     O_3   0.926898 0.741848 0.216550 -0.521476
O16   O     O_2   0.101917 0.771922 0.806711 -0.190665
O17   O     O_2   0.109159 0.834644 0.722722 -0.272960
O18   O     O_3   0.165490 0.844585 0.860832 -0.476057
O19   O     O_2   0.404950 0.250225 0.195593 -0.187803
O20   O     O_2   0.391992 0.316941 0.270266 -0.270094
O21   O     O_3   0.341690 0.322056 0.129729 -0.475637
O22   O     O_2   0.562572 0.294879 0.688040 -0.203516
O23   O     O_2   0.628044 0.296626 0.809981 -0.262109
O24   O     O_R   0.465110 0.500000 0.555270 -0.524441
O25   O     O_3   0.565023 0.236241 0.791813 -0.527761
O26   O     O_2   0.380127 0.879113 0.394911 -0.288851
O27   O     O_2   0.368643 0.774326 0.415787 -0.203638
O28   O     O_3   0.432787 0.831650 0.522123 -0.523622
O29   O     O_2   0.571878 0.913444 0.699626 -0.226360
O30   O     O_2   0.622067 0.831632 0.738749 -0.185068
O31   O     O_3   0.590682 0.873971 0.608398 -0.559984
O32   O     O_2   0.929948 0.411894 0.303147 -0.251850
O33   O     O_2   0.888368 0.320533 0.247743 -0.157086
O34   O     O_3   0.900434 0.354407 0.370118 -0.449703
O35   O     O_R   0.965120 0.090230 0.465150 -0.541761
O36   O     O_2   0.068346 0.415041 0.698776 -0.238005
O37   O     O_2   0.110031 0.325204 0.754987 -0.158882
O38   O     O_3   0.100110 0.359566 0.634732 -0.447300
O39   O     O_2   0.901490 0.090381 0.319606 -0.304764
O40   O     O_2   0.895656 0.168488 0.393193 -0.208677
O41   O     O_3   0.867691 0.192515 0.257566 -0.459400
O42   O     O_2   0.094938 0.090925 0.687246 -0.283525
O43   O     O_2   0.104379 0.164353 0.613425 -0.215304
O44   O     O_3   0.130482 0.194072 0.747036 -0.459686
O45   O     O_2   0.532616 0.634188 0.406693 -0.275908
O46   O     O_R   0.034880 0.090230 0.534850 -0.541316
O47   O     O_2   0.468439 0.604739 0.288783 -0.366317
O48   O     O_3   0.506554 0.704081 0.295051 -0.484280
O49   O     O_2   0.608533 0.591907 0.669406 -0.281173
O50   O     O_2   0.605195 0.667110 0.583651 -0.197079
O51   O     O_3   0.644069 0.696868 0.721467 -0.481084
O52   O     O_2   0.634615 0.117677 0.591272 -0.369568
O53   O     O_2   0.633244 0.211853 0.647475 -0.193826
O54   O     O_3   0.587689 0.123294 0.641906 -0.558996
O55   O     O_2   0.402757 0.101249 0.329049 -0.310575
O56   O     O_2   0.374692 0.198893 0.276267 -0.172009
O57   O     O_R   0.465120 0.590230 0.465150 -0.603201
O58   O     O_3   0.452994 0.179650 0.331512 -0.452324
O59   O     O_2   0.097182 0.608908 0.662334 -0.298671
O60   O     O_2   0.128855 0.708567 0.707900 -0.190073
O61   O     O_3   0.052241 0.692326 0.666220 -0.461233
O62   O     O_2   0.886044 0.595595 0.471072 -0.329808
O63   O     O_2   0.860564 0.691671 0.407195 -0.239232
O64   O     O_3   0.906787 0.627971 0.380838 -0.585886
O65   O     O_2   0.127042 0.807082 0.432586 -0.185600
O66   O     O_2   0.142309 0.875469 0.533002 -0.205591
O67   O     O_3   0.185586 0.778589 0.565191 -0.545696
O68   O     O_R   0.534880 0.590230 0.534850 -0.500838
O69   O     O_2   0.922758 0.888264 0.615105 -0.259495
O70   O     O_2   0.879033 0.802154 0.603552 -0.191524
O71   O     O_3   0.956638 0.803930 0.713444 -0.545284
O72   O     O_2   0.557882 0.350031 0.348537 -0.343529
O73   O     O_2   0.630380 0.348944 0.453876 -0.214192
O74   O     O_3   0.603986 0.261635 0.358985 -0.516221
O75   O     O_2   0.354972 0.307390 0.524008 -0.185043
O76   O     O_2   0.351045 0.376785 0.433391 -0.218835
O77   O     O_3   0.304374 0.281367 0.386138 -0.547433
O78   O     O_2   0.996415 0.866214 0.371886 -0.343934
O79   O     O_R   0.000000 0.052210 0.090190 -0.580968
O80   O     O_2   0.066790 0.902701 0.417990 -0.222197
O81   O     O_3   0.039908 0.804142 0.339159 -0.462460
O82   O     O_2   0.898689 0.916863 0.474291 -0.228228
O83   O     O_2   0.890324 0.847878 0.379229 -0.221612
O84   O     O_3   0.853357 0.820233 0.443477 -0.441557
O85   O     O_2   0.609863 0.411541 0.559565 -0.296290
O86   O     O_2   0.607369 0.338534 0.640531 -0.209121
O87   O     O_3   0.653029 0.313727 0.592446 -0.442278
O88   O     O_2   0.493439 0.364462 0.620124 -0.341802
O89   O     O_2   0.422723 0.403732 0.557754 -0.217913
O90   O     O_R   0.000000 0.052210 0.909810 -0.583661
O91   O     O_3   0.440588 0.304983 0.633306 -0.462081
O92   O     O_2   0.236067 0.828137 0.234572 -0.186262
O93   O     O_2   0.165217 0.868186 0.172630 -0.226503
O94   O     O_3   0.193511 0.837914 0.096513 -0.523815
O95   O     O_2   0.765877 0.833595 0.833826 -0.189942
O96   O     O_2   0.835884 0.871998 0.878620 -0.233874
O97   O     O_3   0.810839 0.876964 0.963558 -0.537245
O98   O     O_2   0.728793 0.338089 0.158379 -0.190197
O99   O     O_2   0.660790 0.377062 0.121063 -0.217718
O100  O     O_3   0.683166 0.387913 0.032967 -0.557541
O101  O     O_R   0.500000 0.552210 0.090190 -0.591758
O102  O     O_2   0.264936 0.340879 0.842508 -0.187362
O103  O     O_2   0.334793 0.377327 0.884779 -0.223692
O104  O     O_3   0.309379 0.391928 0.968378 -0.562328
O105  O     O_R   0.000000 0.947790 0.909820 -0.560114
O106  O     O_R   0.500000 0.552210 0.909810 -0.580880
O107  O     O_R   0.060280 0.947790 0.060280 -0.549330
O108  O     O_R   0.939720 0.947790 0.939720 -0.561787
O109  O     O_R   0.560280 0.447790 0.060280 -0.554911
O110  O     O_R   0.439720 0.447790 0.939720 -0.557329
O111  O     O_R   0.060280 0.052210 0.060300 -0.561547
O112  O     O_R   0.939720 0.052210 0.939700 -0.560370
O113  O     O_R   0.560280 0.552210 0.060300 -0.570639
O114  O     O_R   0.439720 0.552210 0.939700 -0.560966
O115  O     O_R   0.500000 0.910000 0.552220 -0.536756
O116  O     O_R   0.500000 0.447790 0.090180 -0.557449
O117  O     O_R   0.500000 0.910000 0.447780 -0.578717
O118  O     O_R   0.000000 0.410000 0.552220 -0.575559
O119  O     O_R   0.000000 0.410000 0.447780 -0.566951
O120  O     O_R   0.439720 0.000200 0.491920 -0.587812
O121  O     O_R   0.560280 0.000200 0.508080 -0.601422
O122  O     O_R   0.939720 0.500200 0.491920 -0.570203
O123  O     O_R   0.060280 0.500200 0.508080 -0.603957
O124  O     O_R   0.439720 0.000170 0.387540 -0.520692
O125  O     O_R   0.560280 0.000170 0.612460 -0.495361
O126  O     O_R   0.939720 0.500170 0.387540 -0.515900
O127  O     O_R   0.500000 0.447790 0.909820 -0.563905
O128  O     O_R   0.060280 0.500170 0.612460 -0.474931
O129  O     O_R   0.500000 0.090400 0.552190 -0.577595
O130  O     O_R   0.500000 0.090400 0.447810 -0.549289
O131  O     O_R   0.000000 0.590400 0.552190 -0.543350
O132  O     O_R   0.000000 0.590400 0.447810 -0.573062
O133  O     O_R   0.965090 0.909820 0.465090 -0.512881
O134  O     O_R   0.034910 0.909820 0.534910 -0.586654
O135  O     O_R   0.465090 0.409820 0.465090 -0.589479
O136  O     O_R   0.534910 0.409820 0.534910 -0.534287
O137  O     O_2   0.208207 0.933717 0.398148 -0.218864
O138  O     O_R   0.965110 0.000030 0.374950 -0.589676
O139  O     O_2   0.155331 0.924555 0.268828 -0.257112
O140  O     O_3   0.219384 0.855824 0.325847 -0.388663
O141  O     O_2   0.791912 0.874982 0.642693 -0.212796
O142  O     O_2   0.845618 0.893273 0.770066 -0.259680
O143  O     O_3   0.782297 0.827244 0.737462 -0.375705
O144  O     O_2   0.707150 0.370213 0.357673 -0.222551
O145  O     O_2   0.652648 0.393559 0.232687 -0.269027
O146  O     O_3   0.713750 0.328038 0.256920 -0.375791
O147  O     O_2   0.290724 0.366542 0.648334 -0.212187
O148  O     O_2   0.344430 0.389213 0.774551 -0.261032
O149  O     O_R   0.034890 0.000030 0.625050 -0.551743
O150  O     O_3   0.280350 0.327279 0.745711 -0.376815
O151  O     O_2   0.349307 0.939086 0.465014 -0.265168
O152  O     O_2   0.288650 0.919435 0.466410 -0.194584
O153  O     O_3   0.297337 0.859023 0.375399 -0.428576
O154  O     O_2   0.651623 0.894652 0.573970 -0.297862
O155  O     O_2   0.712141 0.858645 0.581001 -0.185239
O156  O     O_3   0.704228 0.833682 0.686967 -0.448389
O157  O     O_2   0.847015 0.391701 0.423813 -0.285071
O158  O     O_2   0.787027 0.355460 0.419909 -0.160546
O159  O     O_3   0.791555 0.332638 0.309764 -0.433327
O160  O     O_R   0.465110 0.500030 0.374950 -0.561717
O161  O     O_2   0.150324 0.395516 0.574874 -0.280498
O162  O     O_2   0.210369 0.355675 0.582938 -0.159177
O163  O     O_3   0.202250 0.335973 0.689723 -0.431380
O164  O     O_2   0.348328 0.924621 0.254518 -0.279265
O165  O     O_2   0.285760 0.873719 0.156072 -0.258412
O166  O     O_3   0.297854 0.985949 0.138894 -0.547056
O167  O     O_2   0.651788 0.953689 0.773272 -0.190846
O168  O     O_2   0.711822 0.910727 0.883012 -0.203042
O169  O     O_3   0.704554 0.027378 0.873699 -0.571053
O170  O     O_2   0.844938 0.438580 0.230474 -0.181246
O171  O     O_R   0.534890 0.500030 0.625050 -0.609895
O172  O     O_2   0.781091 0.419703 0.111491 -0.242735
O173  O     O_3   0.805187 0.531212 0.150598 -0.563625
O174  O     O_2   0.151290 0.448836 0.768824 -0.165791
O175  O     O_2   0.213530 0.424589 0.887124 -0.242330
O176  O     O_3   0.195617 0.537719 0.854461 -0.543112
O177  O     O_2   0.093771 0.160039 0.190228 -0.297825
O178  O     O_2   0.103233 0.230403 0.284648 -0.193502
O179  O     O_3   0.162330 0.154750 0.318994 -0.541028
O180  O     O_2   0.893267 0.146108 0.794939 -0.299480
O181  O     O_2   0.881801 0.214466 0.698040 -0.196016
O182  O     O_R   0.034890 0.000000 0.444730 -0.535920
O183  O     O_3   0.828055 0.127284 0.663366 -0.560870
O184  O     O_2   0.666036 0.649510 0.350928 -0.246354
O185  O     O_2   0.609240 0.658239 0.221469 -0.320344
O186  O     O_3   0.607526 0.727597 0.314883 -0.434988
O187  O     O_2   0.391497 0.646835 0.787755 -0.302463
O188  O     O_2   0.380854 0.716641 0.692690 -0.185590
O189  O     O_3   0.330520 0.623540 0.653141 -0.563348
O190  O     O_2   0.103245 0.235373 0.414737 -0.192921
O191  O     O_2   0.128294 0.152480 0.502738 -0.241789
O192  O     O_3   0.166873 0.174042 0.440987 -0.396753
S1    S     S_3+6 0.201678 0.925129 0.324381 0.107591
S2    S     S_3+6 0.697566 0.961742 0.828873 0.045749
S3    S     S_3+6 0.801713 0.461336 0.177301 0.043412
S4    S     S_3+6 0.195576 0.467811 0.823775 0.059330
S5    S     S_3+6 0.110854 0.166667 0.270531 0.043528
S6    S     S_3+6 0.878140 0.149645 0.715357 0.035999
S7    S     S_3+6 0.620005 0.659217 0.298712 0.047581
S8    S     S_3+6 0.379213 0.650988 0.709748 0.037313
S9    S     S_3+6 0.120556 0.172221 0.430695 0.106896
S10   S     S_3+6 0.872265 0.155281 0.558782 0.105536
S11   S     S_3+6 0.645316 0.613457 0.462801 0.108832
S12   S     S_3+6 0.799196 0.888497 0.716233 0.110942
S13   S     S_3+6 0.384869 0.667276 0.565166 0.101134
S14   S     S_3+6 0.908684 0.807238 0.227301 0.039964
S15   S     S_3+6 0.114527 0.833569 0.795930 0.043614
S16   S     S_3+6 0.391210 0.312368 0.201293 0.044448
S17   S     S_3+6 0.581367 0.297722 0.769062 0.045684
S18   S     S_3+6 0.401150 0.820878 0.430732 0.039342
S19   S     S_3+6 0.582736 0.857907 0.674246 0.057455
S20   S     S_3+6 0.920770 0.350141 0.319739 0.094292
S21   S     S_3+6 0.078323 0.353858 0.682663 0.100928
S22   S     S_3+6 0.904094 0.157256 0.335165 0.066897
S23   S     S_3+6 0.699059 0.387390 0.284526 0.098712
S24   S     S_3+6 0.094189 0.156999 0.669758 0.066251
S25   S     S_3+6 0.493364 0.656831 0.339076 -0.013274
S26   S     S_3+6 0.604088 0.658191 0.650339 0.062456
S27   S     S_3+6 0.607081 0.159246 0.599771 -0.009422
S28   S     S_3+6 0.412345 0.167531 0.338236 0.055464
S29   S     S_3+6 0.089345 0.675530 0.651644 0.051038
S30   S     S_3+6 0.897081 0.649508 0.443301 -0.017182
S31   S     S_3+6 0.138447 0.810037 0.510128 0.098160
S32   S     S_3+6 0.921808 0.820826 0.624640 0.049744
S33   S     S_3+6 0.592515 0.310139 0.404265 0.029014
S34   S     S_3+6 0.297990 0.384960 0.720673 0.106515
S35   S     S_3+6 0.350888 0.311160 0.451959 0.092035
S36   S     S_3+6 0.040060 0.847449 0.402447 0.057981
S37   S     S_3+6 0.895737 0.851409 0.452250 0.113843
S38   S     S_3+6 0.608759 0.345329 0.574101 0.099339
S39   S     S_3+6 0.448361 0.347339 0.578321 0.064858
S40   S     S_3+6 0.204820 0.869764 0.175502 0.066669
S41   S     S_3+6 0.797067 0.883649 0.876226 0.057094
S42   S     S_3+6 0.699082 0.389904 0.121824 0.057314
S43   S     S_3+6 0.295907 0.392012 0.880938 0.056996
S44   S     S_3+6 0.303256 0.926433 0.416237 0.080630
S45   S     S_3+6 0.697793 0.885898 0.625836 0.059725
S46   S     S_3+6 0.800499 0.383758 0.374155 0.086420
S47   S     S_3+6 0.196413 0.385919 0.626887 0.089982
S48   S     S_3+6 0.302680 0.932665 0.197678 0.000509

loop_
_geom_bond_atom_site_label_1
_geom_bond_atom_site_label_2
_ccdc_geom_bond_type
O85   S38   D    
O52   S27   D    
C21   C26   A    
C63   C65   A    
O146  S23   S    
O162  S47   D    
C13   C200  S    
C99   H129  S    
Cu7   O106  S    
C115  H199  S    
O43   S24   D    
C114  H192  S    
O104  S43   S    
C73   C93   S    
H159  O183  S    
Cu12  O133  S    
C100  C208  S    
C137  H80   S    
C75   C95   S    
C7    O68   A    
O59   S29   D    
C22   S24   S    
O137  S1    D    
O22   S17   D    
Cu6   O111  S    
Cu5   O116  S    
C105  H167  S    
C107  H175  S    
C43   S27   S    
H50   O48   S    
C134  H61   S    
H75   O84   S    
C76   C228  S    
O175  S4    D    
C28   C40   A    
O76   S35   D    
Cu8   O129  S    
Cu7   O113  S    
C62   C70   A    
O145  S23   D    
O166  S48   S    
C89   C94   S    
C129  H39   S    
O190  S9    D    
O31   S19   S    
C204  C208  A    
C50   C52   A    
Cu5   O127  S    
H74   O81   S    
C151  C155  A    
O156  S45   S    
H30   O28   S    
C88   C97   S    
Cu10  O118  S    
O38   S21   S    
Cu11  O123  S    
Cu2   O182  S    
O20   S16   D    
C153  C180  A    
C136  H64   S    
C15   C127  S    
C98   H127  S    
O80   S36   D    
C32   H176  S    
C103  C210  S    
C147  H114  S    
H135  O150  S    
C190  C194  A    
C73   C142  S    
C25   C29   A    
O186  S7    S    
C102  H148  S    
C104  H155  S    
C68   C95   S    
O9    S13   D    
C185  C190  A    
Cu2   O149  S    
C32   C139  S    
C119  H6    S    
C6    O46   A    
C218  O118  A    
H162  O192  S    
C96   H79   S    
C17   C21   A    
O17   S15   D    
Cu7   O101  S    
C228  O130  A    
C19   C23   A    
C116  H201  S    
C145  H110  S    
C224  O120  A    
C207  S17   S    
C66   C76   A    
C56   S36   S    
C105  C164  S    
C26   C37   A    
C89   S46   S    
O87   S38   S    
C142  H95   S    
C182  C232  S    
C63   C71   A    
C22   C27   A    
C4    O160  A    
O77   S35   S    
C199  C204  A    
C115  H197  S    
C186  C199  A    
C109  C199  S    
C192  C196  A    
O94   S40   S    
H136  O153  S    
H106  O97   S    
O44   S24   S    
C102  H150  S    
C152  C157  A    
C117  H206  S    
C177  C195  A    
O45   S25   D    
O169  S2    S    
C59   C63   A    
Cu5   O110  S    
C126  H26   S    
C105  H169  S    
C120  H8    S    
C227  O123  A    
C53   C58   A    
H160  O186  S    
O176  S4    S    
C147  H116  S    
C35   C78   T    
C77   C229  S    
C219  S1    S    
C131  H47   S    
C60   C64   A    
C140  H89   S    
C170  C183  A    
C225  O121  A    
C2    C147  S    
C133  H58   S    
O18   S15   S    
O100  S42   S    
C211  S4    S    
C203  C207  A    
C45   C50   A    
C72   C92   S    
C23   S25   S    
C125  H20   S    
C188  C202  A    
C167  C198  S    
C230  O134  A    
C169  C182  A    
C11   S21   S    
C136  H62   S    
C122  H15   S    
O66   S31   D    
O86   S38   D    
O173  S3    S    
C13   C85   S    
C25   S26   S    
C71   C231  S    
C98   H125  S    
C27   C38   A    
C152  H112  S    
O93   S40   D    
H144  O176  S    
C161  C165  A    
C193  C215  A    
Cu2   Cu12  S    
C149  H121  S    
C74   C143  S    
C128  H34   S    
C208  C213  A    
C103  H151  S    
O36   S21   D    
O184  S7    D    
C69   C77   A    
C156  C197  S    
C67   C77   A    
Cu6   O112  S    
C130  H42   S    
Cu9   O117  S    
Cu1   O1    S    
C45   S29   S    
O157  S46   D    
C88   S45   S    
C139  H87   S    
O185  S7    D    
C72   H198  S    
C132  H54   S    
C121  C215  S    
O14   S14   D    
C116  H203  S    
O30   S19   D    
H133  O143  S    
C2    S41   S    
C89   C221  S    
O144  S23   D    
C174  O108  A    
C151  C177  A    
O147  S34   D    
C210  C215  A    
C37   C42   A    
C83   C219  S    
C100  H145  S    
C144  H103  S    
H108  O104  S    
C110  H185  S    
C153  C158  A    
Cu9   O124  S    
C205  S15   S    
C120  H9    S    
C47   C69   A    
C84   C220  S    
O63   S30   D    
C159  S8    S    
C172  C181  A    
C33   C75   S    
C100  H146  S    
C138  H84   S    
Cu8   O120  S    
C9    C36   A    
C144  H104  S    
C205  C209  A    
C116  C220  S    
O178  S5    D    
Cu12  O2    S    
O163  S47   S    
C30   H154  S    
H139  O163  S    
C108  C168  S    
C127  H27   S    
C138  H83   S    
C157  S6    S    
O75   S35   D    
C84   C90   S    
C127  H29   S    
O3    S10   D    
C106  H172  S    
C178  H35   S    
C169  C177  A    
C24   C211  S    
C121  H11   S    
C54   C59   A    
C33   H187  S    
H142  O173  S    
Cu8   O125  S    
C141  H92   S    
C81   C226  S    
C131  H45   S    
C96   H101  S    
O95   S41   D    
C140  H91   S    
C141  H93   S    
C206  C210  A    
O159  S46   S    
C114  H191  S    
O78   S36   D    
O49   S26   D    
C49   C55   A    
C89   C98   S    
C31   C84   S    
C51   C53   A    
O181  S6    D    
C8    S18   S    
C108  H177  S    
Cu10  O122  S    
Cu11  O119  S    
C61   C67   A    
H33   O38   S    
Cu4   O171  S    
C172  C185  A    
C8    C12   A    
Cu3   O160  S    
C125  H22   S    
C229  O132  A    
C56   C61   A    
C8    C34   A    
C23   C28   A    
O89   S39   D    
O74   S33   S    
Cu3   O57   S    
C187  C192  A    
Cu10  O128  S    
O56   S28   D    
O60   S29   D    
Cu11  O126  S    
C188  C193  A    
C57   C94   S    
C80   C225  S    
C5    O24   A    
C86   C223  S    
C104  C212  S    
O172  S3    D    
Cu3   O24   S    
C221  S23   S    
C139  H85   S    
O192  S9    S    
C200  S3    S    
H131  O140  S    
C18   C22   A    
C113  C150  T    
H134  O146  S    
Cu1   O108  S    
O21   S16   S    
C30   C72   S    
O6    S11   D    
C104  H156  S    
C102  C209  S    
C93   C189  S    
C79   C124  T    
O153  S44   S    
C148  H118  S    
H107  O100  S    
C100  H147  S    
H71   O71   S    
C170  C179  A    
H193  O15   S    
C95   C211  S    
C110  H183  S    
Cu4   O13   S    
C156  O116  A    
C154  C159  A    
C91   C99   S    
C6    O35   A    
C7    O57   A    
C176  O114  A    
C90   C135  T    
H76   O87   S    
C194  C198  A    
O189  S8    S    
O91   S39   S    
C138  H82   S    
C29   C40   A    
Cu8   Cu9   S    
C31   H165  S    
C133  H56   S    
C122  C216  S    
C159  C163  A    
C140  H88   S    
O29   S19   D    
C129  H38   S    
C126  H23   S    
C191  C195  A    
O55   S28   D    
C173  O111  A    
C91   C95   S    
C223  S34   S    
C148  H117  S    
C134  H59   S    
C78   C224  S    
C30   C137  S    
C201  C205  A    
C54   S33   S    
O10   S13   D    
H72   O74   S    
C106  H170  S    
C85   C221  S    
C128  H36   S    
C42   C218  S    
C41   C217  S    
C115  C219  S    
C61   C70   A    
C58   C62   A    
O54   S27   S    
O41   S22   S    
C117  H204  S    
C161  S10   S    
C74   C94   S    
C2    C84   S    
C5    C185  S    
C226  O122  A    
O12   S14   D    
Cu3   Cu4   S    
C85   C101  S    
O152  S44   D    
C118  H207  S    
O183  S6    S    
C65   C76   A    
H105  O94   S    
C86   C113  S    
C160  C164  A    
C108  H179  S    
O53   S27   D    
C119  H5    S    
C194  C216  A    
C131  H44   S    
C220  S12   S    
C51   C134  S    
C26   C39   A    
Cu2   O134  S    
C20   C25   A    
C123  H18   S    
C154  C181  A    
C182  C186  A    
C64   C71   A    
C30   C83   S    
C116  H202  S    
C231  O136  A    
C112  C196  S    
C162  C166  A    
C47   S30   S    
O103  S43   D    
C104  H157  S    
O155  S45   D    
O141  S12   D    
C143  H100  S    
C91   S47   S    
C45   C67   A    
C21   S22   S    
C107  H174  S    
C144  H102  S    
C55   S35   S    
C59   S38   S    
Cu9   O121  S    
C125  H21   S    
H166  O11   S    
C142  H96   S    
C179  C196  A    
O28   S18   S    
C35   C92   S    
C19   C130  S    
O92   S40   D    
O61   S29   S    
O96   S41   D    
C123  H17   S    
O27   S18   D    
C55   C60   A    
O150  S34   S    
C99   H130  S    
C115  H200  S    
H66   O58   S    
C226  O126  A    
C36   C41   A    
H196  O25   S    
C34   C41   A    
O7    S11   D    
C167  O106  A    
C137  H81   S    
C211  H68   S    
C75   H24   S    
Cu12  O35   S    
C72   C141  S    
C49   C132  S    
O50   S26   D    
C117  H205  S    
C135  C174  S    
C14   C20   A    
C171  C184  A    
C105  H168  S    
O16   S15   D    
C111  H189  S    
C118  H3    S    
C47   C51   A    
C73   H2    S    
C5    O171  A    
C147  H115  S    
C227  O128  A    
Cu7   O114  S    
C97   H113  S    
O140  S1    S    
C88   C220  S    
C62   C69   A    
O154  S45   D    
H77   O91   S    
O69   S32   D    
C9    C14   A    
C106  C165  S    
O168  S2    D    
O58   S28   S    
C11   C16   A    
H163  O5    S    
O33   S20   D    
O73   S33   D    
Cu9   O130  S    
C148  H119  S    
C146  C175  S    
C58   S37   S    
Cu10  Cu11  S    
C204  S14   S    
O48   S25   S    
C31   C138  S    
O51   S26   S    
C217  O115  A    
C122  H16   S    
O165  S48   D    
H158  O179  S    
C232  O138  A    
C10   C37   A    
O64   S30   S    
C98   H126  S    
O39   S22   D    
O42   S24   D    
C20   C131  S    
C91   C223  S    
O8    S11   S    
C157  C161  A    
O40   S22   D    
H48   O41   S    
C15   C17   A    
C175  O113  A    
H69   O64   S    
C1    C195  S    
C118  C223  S    
C60   S39   S    
O34   S20   S    
C130  H43   S    
C151  H1    S    
O37   S21   D    
C17   C128  S    
C38   C42   A    
C12   C125  S    
C82   C227  S    
C187  C201  A    
C96   H90   S    
C209  C214  A    
Cu10  O131  S    
H141  O169  S    
C228  O129  A    
C152  C179  A    
C68   C82   T    
O11   S13   S    
Cu1   O105  S    
C191  C213  A    
C32   C74   S    
C145  H111  S    
O67   S31   S    
C143  H98   S    
C32   C85   S    
C103  H153  S    
C12   C19   A    
C109  H181  S    
C163  C168  A    
C94   C200  S    
C28   C34   A    
O188  S8    D    
O19   S16   D    
O82   S37   D    
O98   S42   D    
C75   C144  S    
C111  H188  S    
C149  H120  S    
C153  H132  S    
C132  H52   S    
C156  O101  A    
C168  C172  A    
C218  O119  A    
Cu4   O136  S    
C145  C222  S    
C99   H128  S    
C97   H124  S    
O174  S4    D    
C6    C39   S    
C18   C129  S    
C50   C136  S    
H67   O61   S    
C16   C126  S    
C33   C86   S    
Cu12  O138  S    
Cu6   O79   S    
C64   C66   A    
C102  H149  S    
C44   C49   A    
C46   C80   T    
C109  H180  S    
H70   O67   S    
C129  H40   S    
C150  C176  S    
C126  H25   S    
C117  C221  S    
C2    C189  S    
Cu1   Cu6   S    
O62   S30   D    
C176  O110  A    
C112  O105  A    
C145  H109  S    
C121  H10   S    
C109  H182  S    
C48   C54   A    
C87   S44   S    
C29   C36   A    
O81   S36   S    
C112  O90   A    
Cu2   O46   S    
C110  C201  S    
O65   S31   D    
C230  O133  A    
C107  H173  S    
Cu4   O68   S    
O167  S2    D    
C183  C187  A    
O102  S43   D    
C173  O107  A    
H140  O166  S    
O143  S12   S    
C193  C197  A    
C190  C203  A    
C31   C73   S    
C33   C140  S    
C120  C214  S    
O23   S17   D    
H31   O31   S    
O71   S32   S    
C108  H178  S    
C180  C197  A    
C10   S20   S    
C83   C222  S    
C217  O117  A    
C122  H14   S    
C1    O1    A    
C212  C216  A    
C123  H19   S    
C79   C83   S    
O32   S20   D    
C7    C40   S    
C229  O131  A    
C87   C219  S    
O158  S46   D    
O15   S14   S    
C43   C48   A    
C178  C222  S    
H138  O159  S    
O191  S9    D    
C43   C65   A    
C224  O124  A    
C149  H122  S    
C107  C166  S    
C166  C171  A    
H195  O21   S    
C103  H152  S    
C165  C170  A    
H161  O189  S    
C164  C169  A    
C155  S5    S    
C134  H60   S    
C128  H37   S    
C130  H41   S    
C181  C198  A    
C111  C202  S    
C192  C214  A    
C13   S42   S    
O139  S1    D    
C101  C146  T    
C1    O79   A    
H32   O34   S    
C132  H53   S    
O179  S5    S    
C48   C133  S    
O142  S12   D    
C163  S13   S    
C27   C39   A    
O72   S33   D    
C158  C162  A    
C137  H78   S    
H49   O44   S    
C124  C173  S    
C222  S40   S    
C200  H57   S    
O97   S41   S    
C184  C188  A    
C10   C15   A    
C110  H184  S    
C119  H4    S    
C70   C230  S    
Cu3   O135  S    
O161  S47   D    
O26   S18   D    
C111  H186  S    
O88   S39   D    
O83   S37   D    
C206  S16   S    
C87   C96   S    
C133  H55   S    
C4    C184  S    
O84   S37   S    
C44   C66   A    
C92   C178  S    
H51   O51   S    
C143  H99   S    
C189  S2    S    
C119  C213  S    
O148  S34   D    
C127  H28   S    
Cu5   Cu7   S    
C207  C212  A    
C44   S28   S    
C57   C81   T    
C171  C180  A    
O187  S8    D    
C106  H171  S    
C3    O2    A    
C87   C92   S    
C121  H12   S    
H194  O18   S    
C186  C191  A    
C74   H13   S    
C225  O125  A    
C88   C93   S    
C9    S19   S    
O70   S32   D    
C14   C123  S    
C155  C160  A    
C141  H94   S    
O177  S5    D    
C154  H143  S    
C114  H190  S    
O99   S42   D    
C178  S48   S    
C53   S32   S    
C120  H7    S    
C118  H208  S    
Cu11  O132  S    
O25   S17   S    
Cu6   O90   S    
C3    C183  S    
C3    O149  A    
O170  S3    D    
Cu5   O109  S    
C175  O109  A    
C167  O127  A    
O4    S10   D    
C136  H63   S    
C160  S9    S    
O164  S48   D    
C46   C93   S    
C24   C86   S    
O47   S25   D    
C97   H123  S    
O151  S44   D    
Cu8   O115  S    
H65   O54   S    
C162  S11   S    
C231  O135  A    
C232  O182  A    
C24   C149  S    
Cu1   O107  S    
C52   S31   S    
C189  H46   S    
C174  O112  A    
O180  S6    D    
C16   C18   A    
C202  C206  A    
H137  O156  S    
H73   O77   S    
C114  C203  S    
H164  O8    S    
C11   C38   A    
C158  S7    S    
C13   C148  S    
O5    S10   S    
C24   S43   S    
C4    O13   A    
C52   C56   A    
C142  H97   S    
C139  H86   S    
