data_mof_unit_62801.cif
_audit_creation_date              2012-12-10T16:43:15-0500
_audit_creation_method            fapswitch 2.2
_symmetry_space_group_name_H-M    P1
_symmetry_Int_Tables_number       1
_space_group_crystal_system       triclinic
_cell_length_a                    18.449534
_cell_length_b                    18.463471
_cell_length_c                    18.418575
_cell_angle_alpha                 119.740866
_cell_angle_beta                  90.46692
_cell_angle_gamma                 119.679906
_cell_volume                      4457.11523324

loop_
_atom_site_label
_atom_site_type_symbol
_atom_type_description
_atom_site_fract_x
_atom_site_fract_y
_atom_site_fract_z
_atom_type_partial_charge
C1    C     C_R   0.361403 0.001770 0.138533 0.529532
C2    C     C_2   0.809018 0.004468 0.696865 -0.075914
C3    C     C_2   0.723206 0.942204 0.779438 -0.146670
C4    C     C_R   0.638102 0.999652 0.861057 0.525594
C5    C     C_2   0.690732 0.998442 0.803000 -0.075969
C6    C     C_2   0.276336 0.444121 0.727098 -0.151408
C7    C     C_2   0.191365 0.385716 0.676120 0.051764
C8    C     C_2   0.335484 0.554508 0.767237 0.261013
C9    C     C_2   0.307014 0.612440 0.814114 -0.026916
C10   C     C_2   0.279509 0.060036 0.335374 -0.134883
C11   C     C_2   0.192448 0.989031 0.305459 -0.061340
C12   C     C_R   0.204661 0.875499 0.559819 -0.098823
C13   C     C_2   0.332672 0.048237 0.277524 -0.134470
C14   C     C_2   0.305760 0.014484 0.192301 0.099148
C15   C     C_2   0.801766 0.972327 0.224639 0.067360
C16   C     C_R   0.638341 0.277011 0.138465 0.548836
C17   C     C_2   0.795103 0.986603 0.302997 0.094393
C18   C     C_2   0.734447 0.954529 0.164455 -0.111371
C19   C     C_2   0.707609 0.015629 0.196187 -0.078942
C20   C     C_2   0.772196 0.553148 0.219432 0.107492
C21   C     C_2   0.817961 0.613616 0.306559 -0.070751
C22   C     C_2   0.738026 0.445739 0.170464 0.070783
C23   C     C_R   0.227254 0.935906 0.653084 -0.043818
C24   C     C_2   0.679438 0.385864 0.192321 0.076902
C25   C     C_R   0.138211 0.276971 0.636725 0.542907
C26   C     C_R   0.861632 0.722977 0.361312 0.527399
C27   C     C_R   0.861780 0.000414 0.638923 0.526674
C28   C     C_R   0.361704 0.722897 0.862174 0.516031
C29   C     C_R   0.138362 0.998519 0.361441 0.519601
C30   C     C_R   0.860583 0.999900 0.359998 0.554638
C31   C     C_R   0.139922 0.000094 0.640070 0.524624
C32   C     C_R   0.641599 0.002284 0.139804 0.524686
C33   C     C_R   0.359976 0.999894 0.859946 0.605998
C34   C     C_R   0.283142 0.935743 0.706582 -0.012247
C35   C     C_R   0.315517 0.874504 0.663945 0.292034
C36   C     C_R   0.293762 0.818453 0.571203 -0.076281
C37   C     C_R   0.237926 0.817900 0.519767 -0.150056
C38   C     C_3   0.227105 0.063563 0.957041 -0.065586
C39   C     C_3   0.430056 0.535878 0.688759 -0.088368
C40   C     C_3   0.334961 0.781043 0.698552 -0.093640
C41   C     C_R   0.303725 0.996223 0.800327 0.019286
C42   C     C_R   0.269880 0.054850 0.839243 0.241404
C43   C     C_R   0.218934 0.058401 0.786202 0.084671
C44   C     C_R   0.195982 0.997574 0.693704 -0.001887
C45   C     C_2   0.776874 0.939711 0.720749 -0.142474
H1    H     H_    0.700716 0.044422 0.779012 0.124346
H2    H     H_    0.321130 0.775538 0.538699 0.132011
H3    H     H_    0.221164 0.773468 0.448297 0.133821
H4    H     H_    0.161887 0.873120 0.516869 0.120673
H5    H     H_    0.791048 0.882894 0.697559 0.168352
H6    H     H_    0.798641 0.063974 0.720482 0.121595
H7    H     H_    0.709366 0.894662 0.802951 0.167941
H8    H     H_    0.161772 0.043036 0.926610 0.148358
H9    H     H_    0.245577 0.114122 0.030106 0.185627
H10   H     H_    0.220931 0.993796 0.940831 0.149629
H11   H     H_    0.378393 0.501836 0.628218 0.132066
H12   H     H_    0.304620 0.410191 0.739538 0.147169
H13   H     H_    0.427733 0.475483 0.690507 0.132076
H14   H     H_    0.495468 0.581705 0.684724 0.153819
H15   H     H_    0.323619 0.721650 0.629934 0.120087
H16   H     H_    0.271731 0.756963 0.713272 0.142452
H17   H     H_    0.380678 0.787639 0.744603 0.144829
H18   H     H_    0.241101 0.577652 0.818696 0.106253
H19   H     H_    0.313535 0.124671 0.404622 0.163317
H20   H     H_    0.159747 0.920526 0.238109 0.154362
H21   H     H_    0.396624 0.068021 0.306579 0.149215
H22   H     H_    0.711490 0.895929 0.093923 0.180944
H23   H     H_    0.736598 0.079164 0.265867 0.145769
H24   H     H_    0.826413 0.581038 0.338778 0.111482
I1    I     I_    0.131482 0.436932 0.631343 -0.348455
I2    I     I_    0.193384 0.997108 0.131630 -0.333185
I3    I     I_    0.912533 0.984810 0.182823 -0.245520
I4    I     I_    0.679861 0.960867 0.341086 -0.313466
I5    I     I_    0.741296 0.599543 0.145262 -0.168405
I6    I     I_    0.794372 0.396362 0.071351 -0.258776
I7    I     I_    0.624728 0.436738 0.292984 -0.301127
I8    I     I_    0.180346 0.160573 0.847928 -0.272086
O1    O     O_3   0.500000 0.000000 0.000000 -0.473500
O2    O     O_R   0.054120 0.939900 0.325040 -0.512306
O3    O     O_R   0.884120 0.060070 0.444330 -0.513338
O4    O     O_R   0.325020 0.939940 0.054210 -0.517236
O5    O     O_R   0.175860 0.060090 0.615830 -0.526986
O6    O     O_R   0.884120 0.939900 0.324160 -0.506905
O7    O     O_R   0.055710 0.939940 0.615850 -0.531905
O8    O     O_R   0.885720 0.939940 0.614980 -0.532054
O9    O     O_R   0.174930 0.060060 0.445830 -0.548350
O10   O     O_R   0.054120 0.229160 0.614300 -0.501854
O11   O     O_R   0.885050 0.770830 0.325070 -0.506978
O12   O     O_R   0.614240 0.229150 0.054160 -0.510174
O13   O     O_R   0.614240 0.060060 0.885070 -0.512582
O14   O     O_R   0.614900 0.229170 0.174980 -0.519851
O15   O     O_R   0.445840 0.770840 0.885740 -0.479451
O16   O     O_R   0.615830 0.060100 0.175880 -0.531112
O17   O     O_R   0.324090 0.939910 0.884220 -0.556694
O18   O     O_R   0.615830 0.939930 0.055710 -0.536862
O19   O     O_R   0.444240 0.060060 0.884190 -0.481448
O20   O     O_3   0.293764 0.116477 0.930711 -0.537860
O21   O     O_3   0.422407 0.600779 0.767033 -0.527079
O22   O     O_3   0.375314 0.876910 0.712574 -0.573341
O23   O     O_R   0.325020 0.770840 0.885120 -0.554843
O24   O     O_R   0.445840 0.060100 0.175010 -0.540097
O25   O     O_R   0.614900 0.939900 0.885710 -0.540684
O26   O     O_3   0.999960 0.000000 0.500040 -0.471245
O27   O     O_R   0.174930 0.229160 0.614920 -0.547108
O28   O     O_R   0.885720 0.770850 0.445880 -0.538272
O29   O     O_R   0.885050 0.060100 0.614330 -0.525020
Zn1   Zn    Zn3+2 0.542440 0.085830 0.956610 1.026786
Zn2   Zn    Zn3+2 0.543390 0.085850 0.129220 0.980926
Zn3   Zn    Zn3+2 0.543390 0.914160 0.957530 0.978020
Zn4   Zn    Zn3+2 0.370780 0.914160 0.956640 0.963372
Zn5   Zn    Zn3+2 0.957510 0.914170 0.543430 0.965548
Zn6   Zn    Zn3+2 0.956570 0.085840 0.542520 1.009305
Zn7   Zn    Zn3+2 0.956570 0.914150 0.370820 1.008812
Zn8   Zn    Zn3+2 0.129180 0.085840 0.543400 0.956233

loop_
_geom_bond_atom_site_label_1
_geom_bond_atom_site_label_2
_ccdc_geom_bond_type
C15   C18   S    
C21   C26   S    
O23   Zn4   S    
C40   H15   S    
C14   I2    S    
O6    Zn7   S    
C35   C36   A    
C33   O17   A    
C7    I1    S    
C12   H4    S    
O29   Zn6   S    
C15   I3    S    
C12   C23   A    
C31   O5    A    
O26   Zn5   S    
C36   C37   A    
O26   Zn7   S    
O13   Zn1   S    
C18   C19   D    
O16   Zn2   S    
O15   Zn3   S    
O11   Zn7   S    
C1    O4    A    
C25   O10   A    
C40   H17   S    
C36   H2    S    
O1    Zn2   S    
C34   C35   A    
C41   C42   A    
C30   O6    A    
C27   O8    A    
C8    O21   S    
C38   H10   S    
C8    C9    D    
C29   O2    A    
C2    C27   S    
C30   O3    A    
C28   O23   A    
O24   Zn2   S    
C32   O16   A    
O28   Zn5   S    
C16   O12   A    
C16   C24   S    
C13   C14   D    
C17   I4    S    
C17   C30   S    
C6    H12   S    
O12   Zn1   S    
C34   C41   A    
C22   I6    S    
C40   O22   S    
C38   O20   S    
C35   O22   S    
C19   C32   S    
C26   O28   A    
C4    O13   A    
C13   H21   S    
C2    C45   D    
O7    Zn5   S    
C31   C44   S    
O26   Zn8   S    
O5    Zn8   S    
C28   O15   A    
O18   Zn3   S    
C42   O20   S    
C24   I7    S    
C39   O21   S    
C6    C8    S    
O10   Zn6   S    
C27   O29   A    
C3    C5    D    
C18   H22   S    
C39   H13   S    
C3    C45   S    
C31   O7    A    
C4    O25   A    
O1    Zn1   S    
C43   C44   A    
C39   H11   S    
C38   H9    S    
C23   C34   A    
C39   H14   S    
O3    Zn6   S    
C20   I5    S    
C19   H23   S    
O1    Zn4   S    
O4    Zn4   S    
C37   H3    S    
C29   O9    A    
O27   Zn8   S    
O19   Zn1   S    
C20   C22   S    
O2    Zn7   S    
C22   C24   D    
C42   C43   A    
C33   O19   A    
C1    O24   A    
C15   C17   D    
C9    H18   S    
O14   Zn2   S    
C10   H19   S    
C4    C5    S    
O8    Zn5   S    
C10   C13   S    
C3    H7    S    
C25   O27   A    
C6    C7    D    
C43   I8    S    
C5    H1    S    
C2    H6    S    
C7    C25   S    
O9    Zn8   S    
C33   C41   S    
C38   H8    S    
C45   H5    S    
O17   Zn4   S    
O1    Zn3   S    
C10   C11   D    
C40   H16   S    
C32   O18   A    
C20   C21   D    
C11   C29   S    
C16   O14   A    
C26   O11   A    
C12   C37   A    
C21   H24   S    
O26   Zn6   S    
O25   Zn3   S    
C1    C14   S    
C11   H20   S    
C9    C28   S    
C23   C44   A    
