data_mof_unit_27480.cif
_audit_creation_date              2012-12-10T18:28:24-0500
_audit_creation_method            fapswitch 2.2
_symmetry_space_group_name_H-M    P1
_symmetry_Int_Tables_number       1
_space_group_crystal_system       triclinic
_cell_length_a                    23.302704
_cell_length_b                    20.156824
_cell_length_c                    14.927066
_cell_angle_alpha                 89.343262
_cell_angle_beta                  99.65835
_cell_angle_gamma                 90.490997
_cell_volume                      6911.37733445

loop_
_atom_site_label
_atom_site_type_symbol
_atom_type_description
_atom_site_fract_x
_atom_site_fract_y
_atom_site_fract_z
_atom_type_partial_charge
C1    C     C_R   0.576101 0.087400 0.554188 0.872846
C2    C     C_R   0.711231 0.720081 0.319523 -0.196711
C3    C     C_R   0.764321 0.180919 0.514457 0.101341
C4    C     C_R   0.257094 0.303218 0.522069 0.100415
C5    C     C_R   0.750502 0.697168 0.505798 0.098575
C6    C     C_R   0.807839 0.229193 0.540356 0.095612
C7    C     C_R   0.192345 0.771688 0.463612 0.096951
C8    C     C_R   0.290324 0.208411 0.618318 -0.221956
C9    C     C_R   0.680944 0.745617 0.383753 -0.222572
C10   C     C_R   0.762009 0.149590 0.429752 -0.217580
C11   C     C_R   0.242103 0.846835 0.577184 -0.222932
C12   C     C_R   0.763273 0.676500 0.597695 -0.223393
C13   C     C_R   0.793927 0.174140 0.365942 -0.193550
C14   C     C_R   0.268273 0.348599 0.454043 -0.217939
C15   C     C_R   0.177935 0.755912 0.370526 -0.222901
C16   C     C_R   0.819841 0.248267 0.632426 -0.216431
C17   C     C_1   0.685474 0.771507 0.801427 0.249615
C18   C     C_1   0.381183 0.298028 0.266791 0.252728
C19   C     C_1   0.295837 0.801729 0.187318 0.245707
C20   C     C_1   0.695847 0.210884 0.808280 0.245488
C21   C     C_1   0.157341 0.237913 0.778434 0.247465
C22   C     C_1   0.777321 0.671782 0.185571 0.246140
C23   C     C_1   0.843098 0.239279 0.222113 0.253593
C24   C     C_R   0.210905 0.821338 0.641309 -0.195716
C25   C     C_1   0.162517 0.753855 0.784067 0.251227
C26   C     C_R   0.734228 0.703142 0.662523 -0.197387
C27   C     C_R   0.307345 0.333710 0.396589 -0.199176
C28   C     C_R   0.213216 0.776539 0.309032 -0.197456
C29   C     C_R   0.782945 0.229747 0.692511 -0.195588
C30   C     C_R   0.628121 0.019317 0.205296 -0.271727
C31   C     C_R   0.371491 0.015565 0.794119 -0.281931
C32   C     C_R   0.127024 0.504663 0.201197 -0.271858
C33   C     C_R   0.423644 0.912911 0.445546 0.878331
C34   C     C_R   0.870385 0.486204 0.792179 -0.281486
C35   C     C_R   0.607118 0.007539 0.285516 0.010274
C36   C     C_R   0.392747 0.005072 0.714238 -0.001989
C37   C     C_R   0.106482 0.509862 0.282436 0.000045
C38   C     C_R   0.892648 0.493607 0.712593 0.008221
C39   C     C_R   0.509886 0.003124 0.206738 0.042911
C40   C     C_R   0.490021 0.004522 0.793141 0.070247
C41   C     C_R   0.009964 0.487011 0.209757 0.079443
C42   C     C_R   0.989400 0.497507 0.793358 0.049295
C43   C     C_R   0.527939 0.019817 0.123891 0.018467
C44   C     C_R   0.425277 0.088638 0.445918 0.889138
C45   C     C_R   0.471603 0.019842 0.875548 0.011349
C46   C     C_R   0.026549 0.488924 0.123985 0.007568
C47   C     C_R   0.969966 0.484964 0.875764 0.020881
C48   C     C_R   0.588621 0.025503 0.124079 0.112334
C49   C     C_R   0.410834 0.022857 0.875204 0.109479
C50   C     C_R   0.087190 0.492919 0.121838 0.106438
C51   C     C_R   0.909078 0.483458 0.874374 0.106604
C52   C     C_R   0.488368 0.028396 0.041195 -0.041323
C53   C     C_R   0.510969 0.029351 0.958067 -0.048061
C54   C     C_R   0.986034 0.485665 0.041577 -0.047948
C55   C     C_R   0.575910 0.912936 0.554898 0.868908
C56   C     C_R   0.008696 0.479036 0.959033 -0.040791
C57   C     C_R   0.571519 0.041792 0.960762 0.454905
C58   C     C_R   0.427576 0.038151 0.038237 0.464890
C59   C     C_R   0.069335 0.468059 0.962249 0.455588
C60   C     C_R   0.924350 0.491605 0.037476 0.475454
C61   C     C_R   0.609444 0.038924 0.043871 -0.293721
C62   C     C_R   0.389740 0.034532 0.955149 -0.291384
C63   C     C_R   0.107928 0.480687 0.042096 -0.287703
C64   C     C_R   0.887119 0.484383 0.954649 -0.287762
C65   C     C_R   0.617268 0.859919 0.587892 -0.190679
C66   C     C_R   0.075384 0.588171 0.553723 0.869791
C67   C     C_R   0.388701 0.146968 0.417807 -0.198517
C68   C     C_R   0.372912 0.871545 0.407776 -0.197163
C69   C     C_R   0.626187 0.129765 0.591497 -0.203982
C70   C     C_R   0.120984 0.364776 0.592094 -0.175115
C71   C     C_R   0.871392 0.624650 0.406163 -0.184155
C72   C     C_R   0.887603 0.353174 0.419221 -0.196786
C73   C     C_R   0.113119 0.645785 0.582172 -0.196168
C74   C     C_R   0.669898 0.788358 0.705832 -0.056786
C75   C     C_R   0.371167 0.253642 0.339712 -0.057242
C76   C     C_R   0.306983 0.821915 0.281532 -0.056053
C77   C     C_R   0.924731 0.411595 0.446469 0.865763
C78   C     C_R   0.687926 0.185957 0.716331 -0.062901
C79   C     C_R   0.161908 0.278613 0.699230 -0.063548
C80   C     C_R   0.797386 0.664213 0.282370 -0.062332
C81   C     C_R   0.850642 0.265464 0.313378 -0.054270
C82   C     C_R   0.153119 0.730106 0.691450 -0.056228
C83   C     C_R   0.634008 0.843395 0.681097 0.408063
C84   C     C_R   0.397639 0.191003 0.346578 0.395131
C85   C     C_R   0.361430 0.850139 0.316248 0.404294
C86   C     C_R   0.634203 0.156790 0.680009 0.409420
C87   C     C_R   0.118464 0.325497 0.670590 0.388345
C88   C     C_R   0.922859 0.585413 0.444401 0.875765
C89   C     C_R   0.849320 0.629690 0.312006 0.387855
C90   C     C_R   0.878377 0.327295 0.330033 0.407170
C91   C     C_R   0.124060 0.669265 0.672670 0.409290
C92   C     C_R   0.638506 0.823301 0.522264 -0.318860
C93   C     C_R   0.350044 0.164097 0.474945 -0.305942
C94   C     C_R   0.331333 0.860494 0.463437 -0.315145
C95   C     C_R   0.670102 0.137036 0.539141 -0.305908
C96   C     C_R   0.167893 0.358506 0.546234 -0.325357
C97   C     C_R   0.839978 0.651585 0.468147 -0.313615
C98   C     C_R   0.865503 0.319092 0.487909 -0.295986
C99   C     C_R   0.075461 0.412384 0.554785 0.902135
C100  C     C_R   0.134255 0.681415 0.513946 -0.310755
C101  C     C_R   0.676447 0.770425 0.545360 0.085431
C102  C     C_R   0.326133 0.227315 0.472996 0.088284
C103  C     C_R   0.277357 0.831767 0.430860 0.082571
C104  C     C_R   0.722779 0.168586 0.572143 0.081589
C105  C     C_R   0.212030 0.312544 0.573774 0.088068
C106  C     C_R   0.784652 0.677795 0.440735 0.080559
C107  C     C_R   0.835266 0.259184 0.472001 0.082443
C108  C     C_R   0.165792 0.740291 0.531858 0.083566
C109  C     C_R   0.693075 0.753270 0.638603 0.029092
C110  C     C_R   0.250030 0.221576 0.674069 -0.200129
C111  C     C_R   0.335153 0.272067 0.402677 0.029353
C112  C     C_R   0.265422 0.810732 0.339273 0.027311
C113  C     C_R   0.731664 0.194042 0.661657 0.027205
C114  C     C_R   0.208228 0.270967 0.650110 0.035260
C115  C     C_R   0.764318 0.687667 0.346659 0.031620
C116  C     C_R   0.827352 0.232168 0.383346 0.028670
C117  C     C_R   0.175895 0.764675 0.622040 0.028494
C118  C     C_R   0.701736 0.737840 0.477912 0.097995
C119  C     C_R   0.291480 0.245669 0.537905 0.098278
C120  C     C_R   0.237274 0.818107 0.490386 0.100647
H1    H     H_    0.250394 0.190602 0.733907 0.153830
H2    H     H_    0.626861 0.838989 0.452517 0.182311
H3    H     H_    0.661516 0.119861 0.470152 0.184438
H4    H     H_    0.342588 0.872690 0.534312 0.184591
H5    H     H_    0.859587 0.651843 0.538991 0.185560
H6    H     H_    0.167604 0.387911 0.485480 0.179021
H7    H     H_    0.127713 0.660775 0.446773 0.182842
H8    H     H_    0.870295 0.341667 0.553755 0.185405
H9    H     H_    0.320981 0.169337 0.640717 0.152210
H10   H     H_    0.640251 0.769483 0.357461 0.148003
H11   H     H_    0.735631 0.106005 0.411089 0.138016
H12   H     H_    0.693213 0.727315 0.248410 0.159195
H13   H     H_    0.269854 0.889200 0.597020 0.140482
H14   H     H_    0.795036 0.638669 0.620930 0.147290
H15   H     H_    0.248525 0.396968 0.445192 0.140825
H16   H     H_    0.139338 0.727914 0.343428 0.154328
H17   H     H_    0.857551 0.277657 0.659705 0.160884
H18   H     H_    0.655699 0.047151 0.045854 0.147322
H19   H     H_    0.343332 0.040694 0.952997 0.145419
H20   H     H_    0.154463 0.477406 0.042999 0.145100
H21   H     H_    0.840355 0.486208 0.952169 0.146885
H22   H     H_    0.534691 0.995122 0.787891 0.196662
H23   H     H_    0.789047 0.149731 0.300840 0.152127
H24   H     H_    0.465422 0.991830 0.212343 0.204771
H25   H     H_    0.034168 0.507440 0.788147 0.184121
H26   H     H_    0.967606 0.472395 0.221554 0.202800
H27   H     H_    0.363110 0.002194 0.650302 0.130208
H28   H     H_    0.636806 0.005883 0.349525 0.131569
H29   H     H_    0.863746 0.494615 0.647816 0.138054
H30   H     H_    0.136326 0.518758 0.344939 0.132195
H31   H     H_    0.674589 0.024965 0.206978 0.147206
H32   H     H_    0.324922 0.019117 0.792307 0.147388
H33   H     H_    0.173353 0.508851 0.200495 0.149182
H34   H     H_    0.217575 0.843771 0.707840 0.155175
H35   H     H_    0.823651 0.483854 0.789674 0.150812
H36   H     H_    0.635018 0.070109 0.897986 0.348212
H37   H     H_    0.363470 0.062822 0.100478 0.338587
H38   H     H_    0.132702 0.435605 0.903762 0.335409
H39   H     H_    0.857553 0.511331 0.096885 0.349310
H40   H     H_    0.421783 0.129566 0.263277 0.378878
H41   H     H_    0.619925 0.928214 0.731748 0.339518
H42   H     H_    0.553289 0.166166 0.690571 0.344883
H43   H     H_    0.440278 0.841787 0.295079 0.339605
H44   H     H_    0.882786 0.553295 0.267136 0.347477
H45   H     H_    0.746555 0.686430 0.732239 0.157742
H46   H     H_    0.073978 0.373904 0.743341 0.379660
H47   H     H_    0.115667 0.586084 0.734553 0.333320
H48   H     H_    0.885447 0.409043 0.264633 0.333450
H49   H     H_    0.314119 0.370228 0.345571 0.152554
H50   H     H_    0.200992 0.761811 0.238856 0.160508
H51   H     H_    0.793049 0.247463 0.761605 0.161092
H52   H     H_    0.339220 0.126771 0.521846 0.172945
N1    N     N_R   0.549130 1.000000 0.284090 -0.121871
N2    N     N_1   0.761350 0.677786 0.108226 -0.179758
N3    N     N_1   0.837083 0.218424 0.149192 -0.184844
N4    N     N_1   0.170010 0.772769 0.858059 -0.181423
N5    N     N_R   0.450870 0.000000 0.715910 -0.121302
N6    N     N_R   0.049130 0.500000 0.284090 -0.123790
N7    N     N_R   0.950870 0.500000 0.715910 -0.119351
N8    N     N_1   0.697885 0.758089 0.877783 -0.177377
N9    N     N_1   0.389207 0.333439 0.208507 -0.185835
N10   N     N_1   0.286967 0.785640 0.112050 -0.181344
N11   N     N_1   0.702121 0.230722 0.881757 -0.182186
N12   N     N_1   0.153656 0.205455 0.841703 -0.185436
O1    O     O_R   0.541320 0.066090 0.608930 -0.591773
O2    O     O_R   0.427120 0.933890 0.529720 -0.615503
O3    O     O_R   0.427120 0.066110 0.529720 -0.619787
O4    O     O_R   0.572880 0.933890 0.470280 -0.623266
O5    O     O_R   0.072880 0.566110 0.470280 -0.619803
O6    O     O_R   0.927120 0.433890 0.529720 -0.613595
O7    O     O_R   0.927120 0.566110 0.529720 -0.617606
O8    O     O_R   0.072880 0.433890 0.470280 -0.612152
O9    O     O_3   0.592309 0.062920 0.883754 -0.742355
O10   O     O_3   0.406311 0.057467 0.114850 -0.801960
O11   O     O_3   0.089855 0.440906 0.889230 -0.816095
O12   O     O_R   0.458680 0.933910 0.391070 -0.600908
O13   O     O_3   0.900635 0.509773 0.112135 -0.784612
O14   O     O_3   0.432536 0.175109 0.284114 -0.725179
O15   O     O_3   0.617770 0.880856 0.749431 -0.752281
O16   O     O_3   0.590385 0.156980 0.731753 -0.705920
O17   O     O_3   0.402319 0.855270 0.259506 -0.755103
O18   O     O_3   0.876510 0.600240 0.247929 -0.713070
O19   O     O_3   0.072293 0.329014 0.716921 -0.728507
O20   O     O_3   0.108276 0.633575 0.744294 -0.750815
O21   O     O_3   0.894481 0.361636 0.257602 -0.748278
O22   O     O_R   0.458680 0.066090 0.391070 -0.588269
O23   O     O_R   0.541320 0.933910 0.608930 -0.592622
O24   O     O_R   0.041320 0.566090 0.608930 -0.594276
O25   O     O_R   0.958680 0.433910 0.391070 -0.606439
O26   O     O_R   0.958680 0.566090 0.391070 -0.586987
O27   O     O_R   0.041320 0.433910 0.608930 -0.600137
O28   O     O_R   0.572880 0.066110 0.470280 -0.608283
Zn1   Zn    Zn3+2 0.478910 0.000000 0.592580 0.966885
Zn2   Zn    Zn3+2 0.521090 0.000000 0.407420 0.967723
Zn3   Zn    Zn3+2 0.978910 0.500000 0.592580 0.964659
Zn4   Zn    Zn3+2 0.021090 0.500000 0.407420 0.966114

loop_
_geom_bond_atom_site_label_1
_geom_bond_atom_site_label_2
_ccdc_geom_bond_type
C3    C104  A    
C58   C62   A    
C88   O7    A    
O27   Zn3   S    
C96   C105  A    
O3    Zn1   S    
C93   H52   S    
C18   C75   S    
C68   C85   A    
C40   H22   S    
C65   C92   A    
C100  H7    S    
C55   O4    A    
C63   H20   S    
C103  C120  A    
C37   H30   S    
C39   N1    A    
C3    C6    A    
N7    Zn3   S    
C74   C109  A    
C79   C87   A    
C30   H31   S    
C21   N12   T    
C26   H45   S    
C99   O27   A    
C34   H35   S    
C95   C104  A    
C37   N6    A    
C71   C97   A    
C34   C51   A    
C33   C68   S    
C30   C35   A    
C101  C118  A    
C30   C48   A    
C19   C76   S    
C51   C64   A    
C43   C52   A    
C8    C110  A    
C11   H13   S    
C110  H1    S    
C99   O8    A    
O26   Zn4   S    
C61   H18   S    
C65   C83   A    
C23   N3    T    
C64   H21   S    
C11   C120  A    
C101  C109  A    
C66   O5    A    
H42   O16   S    
C11   C24   A    
O23   Zn1   S    
C66   O24   A    
C80   C89   A    
C10   H11   S    
C77   O25   A    
O7    Zn3   S    
C41   H26   S    
C16   H17   S    
C33   O12   A    
C2    H12   S    
C41   C46   A    
C4    C119  A    
C33   O2    A    
C49   C62   A    
C14   C27   A    
O6    Zn3   S    
C110  C114  A    
C38   H29   S    
C91   O20   S    
C85   O17   S    
C42   C47   A    
C78   C86   A    
C98   H8    S    
C89   O18   S    
C27   C111  A    
C67   C84   A    
C12   H14   S    
C1    C69   S    
C1    O28   A    
C9    C118  A    
C21   C79   S    
C102  C111  A    
C31   C49   A    
C70   C87   A    
C7    C120  A    
C19   N10   T    
C87   O19   S    
C22   N2    T    
C24   H34   S    
C50   C63   A    
C5    C106  A    
C39   C43   A    
C40   C45   A    
C52   C58   A    
C54   C56   A    
C100  C108  A    
O25   Zn4   S    
H41   O15   S    
H37   O10   S    
C35   N1    A    
C74   C83   A    
N5    Zn1   S    
C41   N6    A    
C35   H28   S    
C73   C91   A    
C5    C12   A    
C97   H5    S    
C73   C100  A    
O4    Zn2   S    
C54   C60   A    
C15   H16   S    
C18   N9    T    
C84   O14   S    
C16   C29   A    
C9    H10   S    
C66   C73   S    
C6    C16   A    
C58   O10   S    
C28   C112  A    
C98   C107  A    
C71   C88   S    
C12   C26   A    
C103  C112  A    
C70   C96   A    
C86   O16   S    
C72   C77   S    
C72   C98   A    
O5    Zn4   S    
C92   H2    S    
C90   O21   S    
O12   Zn2   S    
C2    C115  A    
C105  C114  A    
C36   H27   S    
C71   C89   A    
C80   C115  A    
C45   C49   A    
C42   N7    A    
C6    C107  A    
C46   C54   A    
C44   O22   A    
C24   C117  A    
C96   H6    S    
C32   C37   A    
C29   H51   S    
C26   C109  A    
C32   C50   A    
H44   O18   S    
C92   C101  A    
C7    C108  A    
C20   N11   T    
C81   C90   A    
C60   O13   S    
C17   N8    T    
C28   H50   S    
O28   Zn2   S    
C94   C103  A    
O24   Zn3   S    
C25   C82   S    
C62   H19   S    
C78   C113  A    
C55   C65   S    
C77   O6    A    
C83   O15   S    
C40   N5    A    
C70   C99   S    
C27   H49   S    
C72   C90   A    
C43   C48   A    
C95   H3    S    
C29   C113  A    
H43   O17   S    
C53   C57   A    
C38   N7    A    
C23   C81   S    
C34   C38   A    
C59   C63   A    
C108  C117  A    
C36   N5    A    
C76   C112  A    
O2    Zn1   S    
C69   C95   A    
C10   C13   A    
H47   O20   S    
C93   C102  A    
C47   C51   A    
C57   C61   A    
C1    O1    A    
C55   O23   A    
C4    C105  A    
C46   C50   A    
C75   C111  A    
H38   O11   S    
C69   C86   A    
C56   C59   A    
N6    Zn4   S    
C5    C118  A    
C60   C64   A    
C59   O11   S    
N1    Zn2   S    
C22   C80   S    
C3    C10   A    
C31   H32   S    
C42   H25   S    
C25   N4    T    
O22   Zn2   S    
C48   C61   A    
C17   C74   S    
C20   C78   S    
H40   O14   S    
C81   C116  A    
C7    C15   A    
C104  C113  A    
O1    Zn1   S    
H36   O9    S    
H46   O19   S    
C13   H23   S    
C4    C14   A    
C75   C84   A    
C68   C94   A    
C107  C116  A    
C13   C116  A    
C82   C91   A    
C44   O3    A    
C45   C53   A    
C32   H33   S    
C15   C28   A    
C97   C106  A    
H39   O13   S    
C39   H24   S    
C88   O26   A    
C14   H15   S    
C79   C114  A    
C57   O9    S    
C8    H9    S    
C67   C93   A    
H48   O21   S    
C44   C67   S    
C31   C36   A    
C82   C117  A    
C2    C9    A    
C76   C85   A    
O8    Zn4   S    
C102  C119  A    
C8    C119  A    
C52   C53   A    
C47   C56   A    
C106  C115  A    
C94   H4    S    
