data_mof_unit_53025.cif
_audit_creation_date              2012-10-26T17:13:03-0400
_audit_creation_method            fapswitch 2.2
_symmetry_space_group_name_H-M    P1
_symmetry_Int_Tables_number       1
_space_group_crystal_system       triclinic
_cell_length_a                    16.805823
_cell_length_b                    16.745361
_cell_length_c                    16.778819
_cell_angle_alpha                 68.309697
_cell_angle_beta                  68.164712
_cell_angle_gamma                 68.099926
_cell_volume                      3917.99951062

loop_
_atom_site_label
_atom_site_type_symbol
_atom_type_description
_atom_site_fract_x
_atom_site_fract_y
_atom_site_fract_z
_atom_type_partial_charge
C1    C     C_R   0.322689 0.951713 0.452849 0.005939
C2    C     C_R   0.323733 0.454629 0.945500 -0.074163
C3    C     C_R   0.551288 0.424324 0.956239 -0.013827
C4    C     C_R   0.047796 0.447317 0.576758 -0.018408
C5    C     C_R   0.039997 0.528404 0.398924 -0.026129
C6    C     C_2   0.411792 0.141328 0.732894 0.328738
C7    C     C_2   0.594886 0.844727 0.257378 0.341057
C8    C     C_2   0.157679 0.746234 0.401213 0.316673
C9    C     C_2   0.127655 0.177248 0.506521 0.278253
C10   C     C_2   0.816584 0.512958 0.866850 0.310580
C11   C     C_2   0.255512 0.599846 0.850901 0.339879
C12   C     C_2   0.256610 0.858800 0.602802 0.324958
C13   C     C_R   0.060235 0.675069 0.545050 0.000150
C14   C     C_2   0.818387 0.871354 0.494028 0.282285
C15   C     C_2   0.600934 0.251717 0.844373 0.299648
C16   C     C_2   0.403460 0.737083 0.136280 0.340729
C17   C     C_2   0.130187 0.501017 0.177434 0.307367
C18   C     C_2   0.158983 0.403877 0.744294 0.335830
C19   C     C_R   0.017855 0.304243 0.432967 -0.001222
C20   C     C_R   0.458853 0.968677 0.457541 0.031974
C21   C     C_R   0.552427 0.997733 0.548549 0.033041
C22   C     C_R   0.033216 0.440501 0.440288 0.031525
C23   C     C_R   0.050326 0.536882 0.536648 0.036548
C24   C     C_R   0.460772 0.462337 0.957935 0.034008
C25   C     C_R   0.551703 0.555516 0.988183 0.031399
C26   C     C_R   0.030287 0.828156 0.564236 0.620748
C27   C     C_R   0.694419 0.987102 0.565199 -0.006677
C28   C     C_R   0.981436 0.169902 0.432339 0.579147
C29   C     C_R   0.829912 0.568275 0.018743 0.538912
C30   C     C_R   0.171950 0.435765 0.969768 0.475795
C31   C     C_R   0.567365 0.020698 0.829539 0.606439
C32   C     C_R   0.435673 0.970115 0.171851 0.501488
C33   C     C_R   0.435942 0.171991 0.969619 0.591605
C34   C     C_R   0.564289 0.828144 0.028509 0.499271
C35   C     C_R   0.981682 0.432234 0.169836 0.545592
C36   C     C_R   0.030412 0.564185 0.828116 0.481392
C37   C     C_R   0.171797 0.970527 0.435584 0.623719
C38   C     C_R   0.018527 0.432903 0.303897 -0.078867
C39   C     C_R   0.833010 0.010259 0.570338 0.582846
C40   C     C_R   0.410922 0.957605 0.410532 -0.001047
C41   C     C_R   0.600763 0.006690 0.596562 -0.015031
C42   C     C_R   0.019567 0.393810 0.393581 -0.005706
C43   C     C_R   0.054566 0.586453 0.586392 -0.000100
C44   C     C_R   0.412887 0.413388 0.949577 -0.009513
C45   C     C_R   0.597491 0.601758 0.003848 0.005400
C46   C     C_R   0.271148 0.951272 0.401791 0.064314
C47   C     C_R   0.741703 0.999303 0.612481 0.029062
C48   C     C_R   0.987900 0.392445 0.263074 -0.020404
C49   C     C_R   0.059843 0.545012 0.675131 -0.067494
C50   C     C_R   0.052764 0.597852 0.728468 -0.047447
C51   C     C_R   0.402946 0.272159 0.946954 0.035850
C52   C     C_R   0.598395 0.729271 0.041444 -0.036595
C53   C     C_R   0.607501 0.021455 0.734021 0.018080
C54   C     C_R   0.401867 0.949325 0.271569 -0.041599
C55   C     C_R   0.734836 0.608875 0.017750 -0.019485
C56   C     C_R   0.271675 0.402447 0.948457 -0.050247
C57   C     C_R   0.052605 0.728446 0.598041 0.060122
C58   C     C_R   0.987441 0.263312 0.392534 0.016374
C59   C     C_R   0.460935 0.059472 0.700510 0.023449
C60   C     C_R   0.455673 0.325632 0.940356 -0.013129
C61   C     C_R   0.547936 0.922340 0.296715 0.032697
C62   C     C_R   0.082876 0.703639 0.450342 0.024931
C63   C     C_R   0.050998 0.258865 0.509221 0.057282
C64   C     C_R   0.736834 0.501390 0.944187 0.043712
C65   C     C_R   0.293841 0.549129 0.928440 0.056313
C66   C     C_R   0.293202 0.937084 0.547205 0.020634
C67   C     C_R   0.737950 0.949945 0.491133 0.054595
C68   C     C_R   0.550752 0.298093 0.916980 0.037582
C69   C     C_R   0.455082 0.704460 0.054842 0.039181
C70   C     C_R   0.053440 0.508002 0.258443 0.053348
C71   C     C_R   0.549763 0.680007 0.033045 -0.069190
C72   C     C_R   0.083156 0.450315 0.703060 0.052762
C73   C     C_R   0.313886 0.942184 0.314024 0.202298
C74   C     C_R   0.701421 0.998463 0.701870 0.178353
C75   C     C_R   0.962294 0.313321 0.313236 0.192422
C76   C     C_R   0.058597 0.686677 0.686706 0.208968
C77   C     C_R   0.314466 0.314211 0.940606 0.199230
C78   C     C_R   0.685909 0.686260 0.048014 0.210248
C79   C     C_R   0.689535 0.963583 0.432293 -0.055994
C80   C     C_R   0.329910 0.970890 0.587696 -0.069641
C81   C     C_R   0.061233 0.403855 0.662320 0.018562
C82   C     C_R   0.555783 0.031866 0.677301 -0.016237
C83   C     C_R   0.045223 0.564810 0.307650 0.004143
C84   C     C_R   0.413440 0.671995 0.018018 -0.006349
C85   C     C_R   0.596675 0.340162 0.938485 -0.061232
C86   C     C_R   0.593754 0.947282 0.335386 -0.002142
C87   C     C_R   0.416000 0.027487 0.666710 -0.064490
C88   C     C_R   0.330891 0.592045 0.959049 0.017862
C89   C     C_R   0.690564 0.442319 0.951849 0.005234
C90   C     C_R   0.042559 0.308325 0.565531 -0.063376
C91   C     C_R   0.060593 0.663163 0.403976 -0.068612
C92   C     C_R   0.730976 0.958891 0.343281 0.220614
C93   C     C_R   0.453526 0.946220 0.323840 -0.073793
C94   C     C_R   0.286553 0.988291 0.672494 0.222493
C95   C     C_R   0.053456 0.315429 0.703689 0.314190
C96   C     C_R   0.044186 0.655456 0.268195 0.314287
C97   C     C_R   0.327051 0.716536 0.005613 0.280048
C98   C     C_R   0.686438 0.301545 0.942566 0.213074
C99   C     C_R   0.682925 0.951705 0.294460 0.298851
C100  C     C_R   0.328710 0.017638 0.711053 0.237413
C101  C     C_R   0.286389 0.677283 0.975464 0.306059
C102  C     C_R   0.733625 0.353257 0.947063 0.306841
C103  C     C_R   0.042160 0.268795 0.655796 0.215964
C104  C     C_R   0.691157 0.570541 0.988169 -0.075560
C105  C     C_R   0.052718 0.704445 0.315652 0.216644
C106  C     C_R   0.549090 0.967487 0.418180 -0.024071
C107  C     C_R   0.461128 0.003192 0.585997 -0.012067
C108  C     C_R   0.038965 0.399360 0.528448 -0.016989
C109  C     C_R   0.048002 0.577093 0.447097 -0.013884
C110  C     C_R   0.416922 0.548534 0.970915 -0.026249
C111  C     C_R   0.597681 0.473448 0.966514 -0.024827
C112  C     C_R   0.596656 0.978224 0.465436 -0.016202
C113  C     C_R   0.415855 0.982698 0.543185 -0.010854
C114  C     C_R   0.460588 0.592103 0.992422 -0.030985
Cl1   Cl    Cl    0.262425 0.907786 0.261665 -0.461473
Cl2   Cl    Cl    0.012738 0.167314 0.712732 -0.387651
Cl3   Cl    Cl    0.841535 0.301257 0.962953 -0.323362
Cl4   Cl    Cl    0.175671 0.732346 0.968062 -0.280784
Cl5   Cl    Cl    0.175889 0.981852 0.728792 -0.395101
Cl6   Cl    Cl    0.837876 0.976565 0.288242 -0.387856
Cl7   Cl    Cl    0.735993 0.185084 0.957421 -0.403253
Cl8   Cl    Cl    0.274192 0.827688 0.014025 -0.312964
Cl9   Cl    Cl    0.018851 0.711166 0.164657 -0.298379
Cl10  Cl    Cl    0.048755 0.265174 0.817929 -0.283012
Cl11  Cl    Cl    0.771531 0.946322 0.775280 -0.453100
Cl12  Cl    Cl    0.890901 0.281629 0.281486 -0.463904
Cl13  Cl    Cl    0.088931 0.740501 0.740373 -0.424659
Cl14  Cl    Cl    0.261939 0.260774 0.908674 -0.430650
Cl15  Cl    Cl    0.729216 0.725607 0.103571 -0.432180
Cl16  Cl    Cl    0.276567 0.026847 0.821750 -0.376770
Cl17  Cl    Cl    0.731667 0.958766 0.179355 -0.317888
Cl18  Cl    Cl    0.042192 0.820159 0.267258 -0.385174
Cu1   Cu    Cu3+1 0.995180 0.995180 0.424630 1.257221
Cu2   Cu    Cu3+1 0.004820 0.004820 0.575370 1.262032
Cu3   Cu    Cu3+1 0.995180 0.424630 0.995180 1.246992
Cu4   Cu    Cu3+1 0.004820 0.575370 0.004820 1.258285
Cu5   Cu    Cu3+1 0.424630 0.995180 0.995180 1.248641
Cu6   Cu    Cu3+1 0.575370 0.004820 0.004820 1.247509
H1    H     H_    0.340430 0.167988 0.742969 0.208728
H2    H     H_    0.433362 0.764453 0.163760 0.114268
H3    H     H_    0.148457 0.446479 0.148344 0.095493
H4    H     H_    0.175233 0.435845 0.779546 0.112561
H5    H     H_    0.562927 0.825960 0.224205 0.111805
H6    H     H_    0.182645 0.759885 0.329465 0.219807
H7    H     H_    0.151876 0.138270 0.564769 0.162629
H8    H     H_    0.845070 0.566709 0.852799 0.099814
H9    H     H_    0.222981 0.569840 0.829070 0.115668
H10   H     H_    0.246483 0.836955 0.674245 0.216225
H11   H     H_    0.855232 0.844558 0.436894 0.167164
H12   H     H_    0.672781 0.236763 0.820085 0.170797
O1    O     O_R   0.124540 0.978640 0.385460 -0.448184
O2    O     O_R   0.124540 0.385460 0.978640 -0.447982
O3    O     O_R   0.021360 0.875460 0.614540 -0.432718
O4    O     O_R   0.978640 0.124540 0.385460 -0.442791
O5    O     O_R   0.013780 0.867370 0.487190 -0.506581
O6    O     O_R   0.986220 0.132630 0.512810 -0.515306
O7    O     O_R   0.867370 0.487190 0.013780 -0.504791
O8    O     O_R   0.132630 0.512810 0.986220 -0.535608
O9    O     O_R   0.487190 0.013780 0.867370 -0.500032
O10   O     O_R   0.512810 0.986220 0.132630 -0.527247
O11   O     O_R   0.512810 0.132630 0.986220 -0.506300
O12   O     O_R   0.875460 0.021360 0.614540 -0.447818
O13   O     O_R   0.487190 0.867370 0.013780 -0.534687
O14   O     O_R   0.986220 0.512810 0.132630 -0.507387
O15   O     O_R   0.013780 0.487190 0.867370 -0.525299
O16   O     O_R   0.132630 0.986220 0.512810 -0.503300
O17   O     O_R   0.867370 0.013780 0.487190 -0.506922
O18   O     O_2   0.451143 0.184045 0.742407 -0.432563
O19   O     O_2   0.667092 0.795823 0.268468 -0.397867
O20   O     O_2   0.197595 0.759706 0.440611 -0.456003
O21   O     O_2   0.168475 0.156098 0.436833 -0.536160
O22   O     O_2   0.847785 0.467035 0.814572 -0.459130
O23   O     O_R   0.978640 0.385460 0.124540 -0.433500
O24   O     O_2   0.266792 0.672938 0.805443 -0.438509
O25   O     O_2   0.244036 0.812930 0.568922 -0.441668
O26   O     O_2   0.840640 0.831221 0.563035 -0.521119
O27   O     O_2   0.562384 0.236193 0.805143 -0.456368
O28   O     O_2   0.329323 0.727056 0.178095 -0.429845
O29   O     O_2   0.177505 0.551647 0.145969 -0.468403
O30   O     O_2   0.209421 0.332194 0.732410 -0.441391
O31   O     O_R   0.021360 0.614540 0.875460 -0.444288
O32   O     O_R   0.385460 0.124540 0.978640 -0.434285
O33   O     O_R   0.614540 0.875460 0.021360 -0.433842
O34   O     O_R   0.614540 0.021360 0.875460 -0.432200
O35   O     O_R   0.385460 0.978640 0.124540 -0.441024
O36   O     O_R   0.875460 0.614540 0.021360 -0.423546

loop_
_geom_bond_atom_site_label_1
_geom_bond_atom_site_label_2
_ccdc_geom_bond_type
C95   Cl10  S    
C98   Cl7   S    
C2    C44   A    
C96   C105  A    
C38   C70   A    
Cu3   O7    S    
C31   O34   A    
C45   C71   A    
C91   C105  A    
C53   C74   A    
Cu1   O1    S    
C59   C82   A    
C40   C93   A    
C2    C65   A    
C11   H9    S    
C7    H5    S    
C88   C101  A    
C26   O5    A    
Cu3   Cu4   S    
C22   C108  A    
C106  C112  A    
C4    C108  A    
C32   O35   A    
C31   O9    A    
C101  Cl4   S    
Cu3   O23   S    
C57   C76   A    
C78   Cl15  S    
C38   C42   A    
Cu1   O17   S    
C20   C113  A    
C81   C95   A    
C100  Cl16  S    
C1    C46   A    
Cu2   O3    S    
C3    C85   A    
C41   C82   A    
C10   O22   D    
Cu3   O2    S    
C23   C43   A    
C29   O36   A    
C30   O8    A    
C17   H3    S    
C6    H1    S    
C69   C71   A    
C7    C61   S    
C54   C93   A    
C14   O26   D    
C85   C98   A    
C1    C40   A    
Cu2   O6    S    
C5    C22   A    
C8    O20   D    
C49   C72   A    
Cu4   O31   S    
C14   C67   S    
Cu2   O16   S    
C12   C66   S    
Cu6   O34   S    
C110  C114  A    
Cu5   O35   S    
C72   C81   A    
C19   C42   A    
Cu6   O33   S    
Cu4   O8    S    
C17   O29   D    
C18   O30   D    
C17   C70   S    
C9    C63   S    
C28   O4    A    
C68   C85   A    
C48   C75   A    
C3    C24   A    
C16   H2    S    
C64   C89   A    
C37   O1    A    
C52   C78   A    
C35   C48   S    
C32   C54   S    
C95   C103  A    
C58   C75   A    
C105  Cl18  S    
C20   C106  A    
C19   C58   A    
C18   C72   S    
C23   C109  A    
C6    O18   D    
Cu5   O9    S    
Cu1   O4    S    
C35   O23   A    
C107  C113  A    
C18   H4    S    
C24   C110  A    
C34   O13   A    
C19   C63   A    
Cu5   O13   S    
C55   C78   A    
C43   C49   A    
C29   O7    A    
Cu5   O32   S    
C29   C55   S    
C98   C102  A    
C30   C56   S    
C55   C104  A    
C56   C77   A    
Cu2   O12   S    
C15   C68   S    
C53   C82   A    
C33   O11   A    
C51   C77   A    
C97   Cl8   S    
C86   C99   A    
C45   C104  A    
C50   C76   A    
C54   C73   A    
C94   Cl5   S    
C27   C41   A    
C30   O2    A    
C94   C100  A    
C86   C106  A    
C28   O6    A    
C62   C91   A    
C89   C102  A    
C1    C66   A    
Cu3   O15   S    
C67   C79   A    
C34   O33   A    
C8    H6    S    
C31   C53   S    
C39   O12   A    
C70   C83   A    
C102  Cl3   S    
C79   C92   A    
C21   C107  A    
C77   Cl14  S    
C10   H8    S    
C12   O25   D    
C21   C41   A    
C13   C62   A    
C16   O28   D    
C15   O27   D    
Cu1   Cu2   S    
C24   C44   A    
C3    C111  A    
C9    O21   D    
C84   C97   A    
C63   C90   A    
C80   C94   A    
C34   C52   S    
C25   C45   A    
C13   C43   A    
C21   C112  A    
C36   C50   S    
C65   C88   A    
C39   C47   S    
C87   C100  A    
Cu4   O14   S    
C27   C47   A    
C4    C23   A    
C11   O24   D    
C84   C114  A    
C96   Cl9   S    
Cu4   O36   S    
Cu1   O5    S    
C38   C48   A    
C6    C59   S    
C64   C104  A    
C16   C69   S    
C47   C74   A    
C87   C107  A    
C79   C112  A    
C5    C83   A    
C37   O16   A    
C51   C60   A    
C28   C58   S    
C33   C51   S    
C66   C80   A    
Cu5   Cu6   S    
C89   C111  A    
C10   C64   S    
C35   O14   A    
C73   Cl1   S    
C99   Cl17  S    
C75   Cl12  S    
C91   C109  A    
C7    O19   D    
C103  Cl2   S    
C92   Cl6   S    
C88   C110  A    
C69   C84   A    
C2    C56   A    
C25   C114  A    
C12   H10   S    
C22   C42   A    
C5    C109  A    
C44   C60   A    
C20   C40   A    
C83   C96   A    
C4    C81   A    
C14   H11   S    
C9    H7    S    
C36   O15   A    
Cu6   O11   S    
C61   C93   A    
C15   H12   S    
C39   O17   A    
C26   C57   S    
C59   C87   A    
C90   C103  A    
C27   C67   A    
C61   C86   A    
C25   C111  A    
C90   C108  A    
C74   Cl11  S    
Cu6   O10   S    
C13   C57   A    
C80   C113  A    
C60   C68   A    
C49   C50   A    
C33   O32   A    
C52   C71   A    
C76   Cl13  S    
C26   O3    A    
C36   O31   A    
C37   C46   S    
C46   C73   A    
C97   C101  A    
C11   C65   S    
C92   C99   A    
C8    C62   S    
C32   O10   A    
