data_mof_unit_17812.cif
_audit_creation_date              2012-12-10T20:55:43-0500
_audit_creation_method            fapswitch 2.2
_symmetry_space_group_name_H-M    P1
_symmetry_Int_Tables_number       1
_space_group_crystal_system       triclinic
_cell_length_a                    15.882654
_cell_length_b                    15.127195
_cell_length_c                    10.681501
_cell_angle_alpha                 90.271466
_cell_angle_beta                  90.040888
_cell_angle_gamma                 89.07989
_cell_volume                      2565.97724282

loop_
_atom_site_label
_atom_site_type_symbol
_atom_type_description
_atom_site_fract_x
_atom_site_fract_y
_atom_site_fract_z
_atom_type_partial_charge
C1    C     C_1   0.250846 0.501322 0.495187 0.001496
C2    C     C_1   0.748891 0.497123 0.497820 -0.096918
C3    C     C_R   0.451396 0.499585 0.868616 -0.166076
C4    C     C_R   0.452613 0.501893 0.129083 -0.180921
C5    C     C_R   0.493972 0.905187 0.510368 -0.332168
C6    C     C_R   0.494079 0.095323 0.511134 -0.313888
C7    C     C_R   0.429707 0.954533 0.448787 0.361338
C8    C     C_R   0.554064 0.046262 0.581935 0.358110
C9    C     C_R   0.554683 0.952201 0.579874 0.365456
C10   C     C_R   0.430351 0.048325 0.447875 0.346037
C11   C     C_R   0.953238 0.573693 0.456510 -0.090186
C12   C     C_R   0.046430 0.418017 0.517242 -0.068003
C13   C     C_R   0.041427 0.574597 0.454241 -0.058685
C14   C     C_R   0.958011 0.416642 0.517955 -0.088166
C15   C     C_R   0.339056 0.500571 0.498997 0.971460
C16   C     C_R   0.660868 0.499251 0.500335 0.928594
C17   C     C_R   0.485168 0.500444 0.260275 0.863769
C18   C     C_R   0.484427 0.500004 0.738771 0.876872
C19   C     C_R   0.912656 0.494956 0.489361 -0.040960
C20   C     C_R   0.086973 0.497392 0.486848 -0.031165
C21   C     C_1   0.497639 0.807035 0.503890 0.298086
C22   C     C_1   0.497800 0.193091 0.504169 0.255324
C23   C     C_1   0.823484 0.495297 0.494391 0.051478
C24   C     C_1   0.176226 0.500011 0.491151 0.071693
C25   C     C_R   0.419917 0.664525 0.124374 0.023007
C26   C     C_R   0.416665 0.338010 0.872517 0.000911
C27   C     C_R   0.408039 0.658337 0.868145 0.007710
C28   C     C_R   0.406825 0.345667 0.129446 -0.085157
C29   C     C_R   0.423850 0.743333 0.056633 -0.223193
C30   C     C_R   0.419106 0.259383 0.940915 -0.228002
C31   C     C_R   0.416137 0.740263 0.927460 -0.252919
C32   C     C_R   0.411352 0.263273 0.069857 -0.237787
C33   C     C_R   0.435208 0.580597 0.931794 0.023051
C34   C     C_R   0.434475 0.421748 0.065585 0.061913
C35   C     C_R   0.438529 0.582682 0.063741 0.026314
C36   C     C_R   0.436335 0.419358 0.933408 0.041553
H1    H     H_    0.394471 0.203411 0.118349 0.178271
H2    H     H_    0.400975 0.801076 0.878697 0.179781
H3    H     H_    0.408417 0.196437 0.895137 0.157624
H4    H     H_    0.414405 0.806601 0.103047 0.198287
N1    N     N_1   0.500000 0.270550 0.500000 -0.076012
N2    N     N_1   0.500000 0.729450 0.500000 -0.077238
O1    O     O_R   0.378020 0.573650 0.500040 -0.616181
O2    O     O_R   0.621980 0.426350 0.499960 -0.596643
O3    O     O_R   0.621980 0.573650 0.499960 -0.599833
O4    O     O_R   0.378020 0.426350 0.500040 -0.567119
O5    O     O_R   0.499990 0.573670 0.316780 -0.614482
O6    O     O_R   0.500010 0.426330 0.683220 -0.627734
O7    O     O_R   0.500010 0.573670 0.683220 -0.638414
O8    O     O_R   0.499990 0.426330 0.316780 -0.630700
Zn1   Zn    Zn3+2 0.500000 0.598370 0.500000 1.022466
Zn2   Zn    Zn3+2 0.500000 0.401630 0.500000 1.033616
C37   C     C_2   0.085847 0.655356 0.413784 0.951997
O9    O     O_2   0.143114 0.684656 0.477255 -0.670960
O10   O     O_R   0.061541 0.697747 0.303147 -0.766659
H5    H     H_    0.095713 0.752228 0.285506 0.344467
C38   C     C_2   0.913116 0.332920 0.544347 0.984202
O11   O     O_2   0.854860 0.332374 0.619154 -0.605469
O12   O     O_R   0.937881 0.254733 0.483383 -0.781777
H6    H     H_    0.902971 0.202350 0.509220 0.359709
C39   C     C_2   0.903581 0.656060 0.429714 0.977711
O13   O     O_2   0.844366 0.654367 0.356519 -0.599917
O14   O     O_R   0.925054 0.735457 0.488270 -0.778415
H7    H     H_    0.887003 0.786653 0.462438 0.360400
C40   C     C_2   0.096565 0.337689 0.552372 0.939581
O15   O     O_2   0.156363 0.313618 0.487988 -0.614209
O16   O     O_R   0.075471 0.290047 0.659418 -0.772193
H8    H     H_    0.114282 0.237127 0.673360 0.346512
O17   O     O_3   0.371202 0.092763 0.375571 -0.598872
C41   C     C_3   0.299651 0.114190 0.449198 0.139010
H9    H     H_    0.311049 0.175124 0.504459 0.229723
H10   H     H_    0.282909 0.061168 0.515770 0.106096
C42   C     C_3   0.224036 0.130068 0.363613 -0.665515
H11   H     H_    0.230515 0.192347 0.310693 0.293193
H12   H     H_    0.218560 0.075423 0.294718 0.239214
H13   H     H_    0.165459 0.134354 0.420163 0.225019
O18   O     O_3   0.618569 0.906340 0.640795 -0.549595
C43   C     C_3   0.589388 0.877473 0.758681 0.092679
H14   H     H_    0.520364 0.864799 0.761202 0.103788
H15   H     H_    0.603943 0.928076 0.830821 0.163020
C44   C     C_3   0.634898 0.791745 0.793247 -0.737222
H16   H     H_    0.703958 0.802017 0.795838 0.269098
H17   H     H_    0.613750 0.769512 0.886887 0.214994
H18   H     H_    0.620607 0.739523 0.723291 0.255919
O19   O     O_3   0.616284 0.089048 0.648441 -0.550173
C45   C     C_3   0.581634 0.122655 0.761331 0.089506
H19   H     H_    0.543051 0.072712 0.810700 0.099670
H20   H     H_    0.541690 0.182168 0.743136 0.158135
C46   C     C_3   0.652639 0.149692 0.848240 -0.719461
H21   H     H_    0.691323 0.201046 0.802988 0.276139
H22   H     H_    0.626017 0.177000 0.936716 0.206098
H23   H     H_    0.693249 0.091355 0.870272 0.257719
O20   O     O_3   0.366276 0.912764 0.383840 -0.551280
C47   C     C_3   0.307738 0.878704 0.470110 0.166578
H24   H     H_    0.301291 0.918306 0.558019 0.090175
H25   H     H_    0.327772 0.811313 0.496329 0.221182
C48   C     C_3   0.221703 0.873486 0.408668 -0.734684
H26   H     H_    0.224805 0.828559 0.326304 0.267925
H27   H     H_    0.175311 0.848688 0.477036 0.248774
H28   H     H_    0.200113 0.939697 0.377887 0.236216
C49   C     C_2   0.364793 0.667771 0.234832 0.946409
O21   O     O_2   0.372292 0.726641 0.311909 -0.633409
O22   O     O_R   0.299253 0.607904 0.244632 -0.772215
H29   H     H_    0.258901 0.624390 0.314423 0.349328
C50   C     C_2   0.362055 0.335930 0.760775 0.957887
O23   O     O_2   0.367385 0.274447 0.686509 -0.677308
O24   O     O_R   0.297539 0.398970 0.749003 -0.757274
H30   H     H_    0.255907 0.382651 0.681335 0.350873
C51   C     C_2   0.346010 0.653257 0.764795 0.967254
O25   O     O_2   0.306459 0.585549 0.748552 -0.603460
O26   O     O_R   0.325815 0.728154 0.694797 -0.857217
H31   H     H_    0.276301 0.717502 0.637045 0.367249
C52   C     C_2   0.349506 0.354581 0.238064 0.968996
O27   O     O_2   0.298016 0.415273 0.241682 -0.556590
O28   O     O_R   0.350772 0.293074 0.334089 -0.750003
H32   H     H_    0.396783 0.247292 0.321508 0.315767

loop_
_geom_bond_atom_site_label_1
_geom_bond_atom_site_label_2
_ccdc_geom_bond_type
C7    C10   A    
O10   H5    S    
O20   C47   S    
C42   H11   S    
O26   H31   S    
O1    Zn1   S    
C48   H28   S    
C44   H16   S    
O19   C45   S    
C27   C33   A    
C50   O24   S    
C11   C19   A    
C49   O21   D    
O17   C41   S    
C51   O26   S    
C45   H20   S    
C38   O12   S    
C22   N1    T    
C3    C33   A    
O28   H32   S    
C6    C22   S    
O4    Zn2   S    
C3    C18   S    
C8    O19   S    
C39   O14   S    
C48   H27   S    
C20   C24   S    
C8    C9    A    
C40   O16   S    
O8    Zn2   S    
O24   H30   S    
C41   H9    S    
C1    C15   S    
C46   H22   S    
C2    C16   S    
C16   O2    A    
N1    Zn2   S    
N2    Zn1   S    
O2    Zn2   S    
C4    C35   A    
C28   C34   A    
O12   H6    S    
C49   O22   S    
C42   H12   S    
C39   O13   D    
C26   C50   S    
C44   H17   S    
C48   H26   S    
C13   C37   S    
C37   O10   S    
C25   C29   A    
C7    O20   S    
C4    C34   A    
C27   C31   A    
O16   H8    S    
C28   C32   A    
C5    C7    A    
C45   H19   S    
C6    C8    A    
C47   C48   S    
O7    Zn1   S    
O18   C43   S    
C21   N2    T    
C16   O3    A    
C19   C23   S    
C5    C9    A    
C12   C20   A    
C41   C42   S    
C43   H15   S    
C9    O18   S    
C32   H1    S    
C46   H23   S    
C47   H25   S    
C25   C35   A    
C4    C17   S    
C26   C36   A    
C12   C14   A    
C26   C30   A    
C42   H13   S    
C2    C23   T    
C44   H18   S    
C52   O27   D    
C50   O23   D    
C14   C38   S    
C13   C20   A    
C43   H14   S    
C14   C19   A    
C17   O5    A    
C11   C39   S    
C45   C46   S    
C18   O6    A    
C17   O8    A    
C6    C10   A    
O5    Zn1   S    
C37   O9    D    
C12   C40   S    
C31   H2    S    
C15   O1    A    
C29   C31   A    
C51   O25   D    
C30   C32   A    
C11   C13   A    
C43   C44   S    
C25   C49   S    
C38   O11   D    
C3    C36   A    
C29   H4    S    
C33   C35   A    
C30   H3    S    
C34   C36   A    
C47   H24   S    
C28   C52   S    
O14   H7    S    
C10   O17   S    
O6    Zn2   S    
C5    C21   S    
C27   C51   S    
C1    C24   T    
C40   O15   D    
O22   H29   S    
O3    Zn1   S    
C41   H10   S    
C15   O4    A    
C46   H21   S    
C18   O7    A    
C52   O28   S    
