data_mof_unit_55647.cif
_audit_creation_date              2012-12-10T17:04:36-0500
_audit_creation_method            fapswitch 2.2
_symmetry_space_group_name_H-M    P1
_symmetry_Int_Tables_number       1
_space_group_crystal_system       triclinic
_cell_length_a                    14.958507
_cell_length_b                    10.722564
_cell_length_c                    10.027627
_cell_angle_alpha                 90.316264
_cell_angle_beta                  90.147793
_cell_angle_gamma                 90.020433
_cell_volume                      1608.3367154

loop_
_atom_site_label
_atom_site_type_symbol
_atom_type_description
_atom_site_fract_x
_atom_site_fract_y
_atom_site_fract_z
_atom_type_partial_charge
C1    C     C_R   0.498896 0.262615 0.499461 0.918895
C2    C     C_R   0.186048 0.395848 0.572164 0.058178
C3    C     C_R   0.231351 0.489353 0.499476 -0.230224
C4    C     C_R   0.327115 0.495162 0.499805 0.923073
C5    C     C_R   0.185693 0.579757 0.425026 0.375605
C6    C     C_2   0.519369 0.932742 0.388793 -0.178312
C7    C     C_2   0.516844 0.868505 0.502260 -0.340519
C8    C     C_2   0.522931 0.067120 0.391407 -0.154247
C9    C     C_2   0.494253 0.130642 0.497905 -0.327852
C10   C     C_2   0.551587 0.571451 0.925567 -0.123674
C11   C     C_2   0.547828 0.576399 0.075612 -0.125195
C12   C     C_R   0.906723 0.577772 0.416362 0.132570
C13   C     C_R   0.503837 0.737278 0.500397 0.928397
C14   C     C_R   0.672918 0.500175 0.500189 0.885941
C15   C     C_R   0.814162 0.577901 0.415318 -0.267376
C16   C     C_R   0.768119 0.498934 0.500809 -0.059695
C17   C     C_R   0.812544 0.418152 0.586603 -0.264820
C18   C     C_R   0.905019 0.413867 0.585592 0.124073
C19   C     C_R   0.952761 0.494520 0.501013 0.103178
C20   C     C_3   0.236487 0.285137 0.632588 -0.380723
C21   C     C_3   0.218643 0.164939 0.554188 -0.901696
C22   C     C_3   0.248835 0.773130 0.427899 0.086818
C23   C     C_R   0.950102 0.329969 0.667179 -0.230376
C24   C     C_3   0.289397 0.873331 0.340063 -0.798297
C25   C     C_R   0.042593 0.323707 0.663754 -0.196704
C26   C     C_R   0.092157 0.403035 0.579828 0.103398
C27   C     C_R   0.046199 0.491744 0.500687 -0.056180
C28   C     C_R   0.092978 0.577038 0.419927 0.004695
C29   C     C_R   0.046275 0.659809 0.336857 -0.170353
C30   C     C_R   0.953662 0.659315 0.334306 -0.243817
H1    H     H_    0.777779 0.640662 0.350228 0.145640
H2    H     H_    0.913737 0.268040 0.732730 0.147885
H3    H     H_    0.073932 0.256562 0.728595 0.156829
H4    H     H_    0.081056 0.725008 0.273207 0.187959
H5    H     H_    0.918770 0.723447 0.269200 0.147501
H6    H     H_    0.517267 0.886996 0.291873 0.170413
H7    H     H_    0.146651 0.140332 0.553706 0.268223
H8    H     H_    0.241513 0.175762 0.449562 0.265544
H9    H     H_    0.256281 0.086918 0.600253 0.242509
H10   H     H_    0.309762 0.296996 0.632664 0.222108
H11   H     H_    0.219023 0.273543 0.739233 0.194656
H12   H     H_    0.526462 0.911392 0.599416 0.153411
H13   H     H_    0.296951 0.751923 0.509500 0.138058
H14   H     H_    0.186038 0.810997 0.472018 0.131535
H15   H     H_    0.239594 0.904504 0.265008 0.242218
H16   H     H_    0.310115 0.954458 0.401984 0.213836
H17   H     H_    0.348857 0.835792 0.287439 0.272019
H18   H     H_    0.547330 0.114113 0.302886 0.170848
H19   H     H_    0.465544 0.087191 0.585229 0.144603
H20   H     H_    0.598986 0.632370 0.876489 0.159240
H21   H     H_    0.452725 0.448412 0.897311 0.162951
H22   H     H_    0.588332 0.646356 0.125784 0.151486
H23   H     H_    0.466227 0.430808 0.101602 0.163007
H24   H     H_    0.774894 0.356835 0.651429 0.152604
N1    N     N_2   0.500970 0.501330 0.852150 -0.192464
N2    N     N_2   0.500990 0.501360 0.147810 -0.188117
O1    O     O_R   0.499990 0.319060 0.613040 -0.627495
O2    O     O_R   0.500010 0.319100 0.386900 -0.619009
O3    O     O_R   0.367830 0.499950 0.613080 -0.643528
O4    O     O_R   0.367860 0.499990 0.386940 -0.562448
O5    O     O_R   0.499990 0.680900 0.613100 -0.619674
O6    O     O_R   0.500010 0.680940 0.386960 -0.610693
O7    O     O_R   0.632140 0.500010 0.613060 -0.616608
O8    O     O_R   0.632170 0.500050 0.386920 -0.618398
O9    O     O_3   0.232383 0.665736 0.349393 -0.594890
Zn1   Zn    Zn3+2 0.499980 0.499970 0.650990 0.932751
Zn2   Zn    Zn3+2 0.500020 0.500030 0.349010 0.960728

loop_
_geom_bond_atom_site_label_1
_geom_bond_atom_site_label_2
_ccdc_geom_bond_type
C8    C9    D    
C8    H18   S    
C22   O9    S    
C15   H1    S    
C6    C7    D    
C14   C16   S    
C1    O1    A    
C5    C28   A    
C19   C27   A    
C22   H13   S    
C21   H9    S    
C12   C15   A    
O1    Zn1   S    
C14   O8    A    
C23   H2    S    
C4    O4    A    
C1    C9    S    
C17   C18   A    
O7    Zn1   S    
C13   O5    A    
C2    C26   A    
C1    O2    A    
C10   N1    D    
C26   C27   A    
C29   C30   A    
C9    H19   S    
C30   H5    S    
C20   H11   S    
C14   O7    A    
O5    Zn1   S    
C12   C19   A    
C28   C29   A    
C6    H6    S    
C2    C3    A    
H21   N1    S    
C23   C25   A    
O3    Zn1   S    
C20   H10   S    
C16   C17   A    
C22   C24   S    
C7    H12   S    
O6    Zn2   S    
C10   C11   S    
C24   H15   S    
C2    C20   S    
C18   C23   A    
N2    Zn2   S    
O8    Zn2   S    
C3    C5    A    
O2    Zn2   S    
C7    C13   S    
N1    Zn1   S    
C21   H7    S    
C20   C21   S    
C4    O3    A    
C5    O9    S    
C18   C19   A    
H23   N2    S    
C27   C28   A    
C13   O6    A    
C21   H8    S    
C6    C8    S    
C11   H22   S    
C12   C30   A    
C25   C26   A    
C24   H17   S    
C17   H24   S    
C15   C16   A    
C22   H14   S    
C11   N2    D    
C3    C4    S    
O4    Zn2   S    
C25   H3    S    
C24   H16   S    
C29   H4    S    
C10   H20   S    
