data_mof_unit_41270.cif
_audit_creation_date              2012-12-11T17:43:58-0500
_audit_creation_method            fapswitch 2.2
_symmetry_space_group_name_H-M    P1
_symmetry_Int_Tables_number       1
_space_group_crystal_system       triclinic
_cell_length_a                    20.235086
_cell_length_b                    22.731142
_cell_length_c                    6.939451
_cell_angle_alpha                 90.000049
_cell_angle_beta                  86.802598
_cell_angle_gamma                 89.999968
_cell_volume                      3186.94690081

loop_
_atom_site_label
_atom_site_type_symbol
_atom_type_description
_atom_site_fract_x
_atom_site_fract_y
_atom_site_fract_z
_atom_type_partial_charge
O1    O     O_R   0.751270 0.447300 0.600030 -0.544612
O2    O     O_R   0.248730 0.947300 0.399970 -0.544612
O3    O     O_R   0.613530 0.440160 0.952150 -0.538162
O4    O     O_R   0.386470 0.940160 0.047850 -0.538163
O5    O     O_R   0.613050 0.552700 0.122560 -0.540076
O6    O     O_R   0.386950 0.052700 0.877440 -0.540074
C1    C     C_R   0.591472 0.425464 0.787194 0.697360
C2    C     C_R   0.408528 0.925464 0.212806 0.697357
O7    O     O_R   0.750780 0.440350 0.929820 -0.546480
O8    O     O_R   0.249220 0.940350 0.070180 -0.546479
O9    O     O_R   0.751280 0.552900 0.100070 -0.543937
O10   O     O_R   0.248720 0.052900 0.899930 -0.543942
C3    C     C_R   0.773939 0.426136 0.757398 0.687689
C4    C     C_R   0.226061 0.926135 0.242602 0.687684
O11   O     O_R   0.613040 0.447100 0.622520 -0.537704
O12   O     O_R   0.386960 0.947100 0.377480 -0.537705
O13   O     O_3   0.682160 0.536920 0.777780 -0.356621
O14   O     O_3   0.317840 0.036920 0.222220 -0.356610
V1    V     V_3+5 0.682160 0.493150 0.052630 1.432018
V2    V     V_3+5 0.317840 0.993150 0.947370 1.432025
O15   O     O_R   0.750790 0.559840 0.429870 -0.527013
O16   O     O_R   0.249210 0.059840 0.570130 -0.527002
C5    C     C_R   0.772362 0.575553 0.257558 0.721823
C6    C     C_R   0.227640 0.075555 0.742442 0.721822
O17   O     O_R   0.613540 0.559650 0.452200 -0.523928
O18   O     O_R   0.386460 0.059650 0.547800 -0.523926
C7    C     C_R   0.591718 0.574527 0.287144 0.714762
C8    C     C_R   0.408282 0.074527 0.712857 0.714754
V3    V     V_3+5 0.682160 0.506850 0.552630 1.478754
V4    V     V_3+5 0.317840 0.006850 0.447370 1.478772
O19   O     O_3   0.682150 0.463080 0.277610 -0.374057
O20   O     O_3   0.317850 0.963080 0.722390 -0.374058
C9    C     C_R   0.578432 0.859279 0.141031 -0.139482
C10   C     C_R   0.421565 0.359281 0.858931 -0.139483
H1    H     H_    0.537303 0.945820 0.121382 0.119678
H2    H     H_    0.462695 0.445822 0.878584 0.119680
H3    H     H_    0.668670 0.774806 0.120001 0.131465
H4    H     H_    0.331326 0.274810 0.879935 0.131461
H5    H     H_    0.627841 0.874529 0.098223 0.126849
H6    H     H_    0.372155 0.374532 0.901722 0.126848
C11   C     C_R   0.462784 0.882081 0.210127 -0.050111
C12   C     C_R   0.537215 0.382082 0.789869 -0.050110
C13   C     C_R   0.473380 0.596207 0.344600 -0.222219
C14   C     C_R   0.526621 0.096206 0.655430 -0.222223
C15   C     C_R   0.418880 0.634029 0.360866 0.027328
C16   C     C_R   0.581122 0.134027 0.639176 0.027327
C17   C     C_R   0.427952 0.694319 0.323953 -0.200550
C18   C     C_R   0.572049 0.194317 0.676076 -0.200550
C19   C     C_R   0.491060 0.717871 0.270125 0.054870
C20   C     C_R   0.508939 0.217871 0.729878 0.054870
C21   C     C_R   0.545968 0.678177 0.251666 0.069987
C22   C     C_R   0.454031 0.178177 0.748324 0.069991
C23   C     C_R   0.501470 0.779549 0.234615 0.084013
C24   C     C_R   0.498530 0.279550 0.765378 0.084013
C25   C     C_R   0.566421 0.799474 0.179563 0.124797
C26   C     C_R   0.433576 0.299476 0.820407 0.124801
C27   C     C_R   0.619120 0.759701 0.161953 -0.178292
C28   C     C_R   0.380877 0.259704 0.838001 -0.178303
C29   C     C_R   0.609197 0.700137 0.197506 -0.136940
C30   C     C_R   0.390800 0.200139 0.802457 -0.136954
C31   C     C_R   0.450006 0.822398 0.250576 -0.206787
C32   C     C_R   0.549994 0.322398 0.749429 -0.206787
C33   C     C_R   0.527014 0.900048 0.154785 -0.156472
C34   C     C_R   0.472984 0.400049 0.845189 -0.156475
C35   C     C_R   0.536536 0.617266 0.290113 -0.105460
C36   C     C_R   0.463464 0.117266 0.709891 -0.105454
H7    H     H_    0.466967 0.549721 0.375256 0.148520
H8    H     H_    0.533035 0.049719 0.624786 0.148519
H9    H     H_    0.384749 0.721872 0.338764 0.149963
H10   H     H_    0.615253 0.221870 0.661275 0.149963
H11   H     H_    0.651737 0.671295 0.181674 0.127728
H12   H     H_    0.348260 0.171298 0.818276 0.127715
C37   C     C_R   0.170615 0.882911 0.260647 -0.045805
C38   C     C_R   0.829386 0.382911 0.739354 -0.045805
C39   C     C_R   0.147362 0.854853 0.096521 -0.211441
C40   C     C_R   0.852641 0.354857 0.903483 -0.211442
C41   C     C_R   0.094280 0.815176 0.113387 -0.133779
C42   C     C_R   0.905724 0.315181 0.886620 -0.133778
C43   C     C_R   0.062892 0.802697 0.295779 0.430308
C44   C     C_R   0.937110 0.302700 0.704228 0.430310
C45   C     C_R   0.086199 0.830636 0.458754 -0.172433
C46   C     C_R   0.913800 0.330635 0.541250 -0.172432
C47   C     C_R   0.139446 0.870001 0.442110 -0.193659
C48   C     C_R   0.860553 0.370000 0.557891 -0.193659
C49   C     C_R   0.891598 0.701286 0.364173 -0.189525
C50   C     C_R   0.108404 0.201289 0.635822 -0.189530
C51   C     C_R   0.835603 0.664366 0.381924 -0.071113
C52   C     C_R   0.164398 0.164368 0.618060 -0.071138
C53   C     C_R   0.937348 0.697239 0.203576 0.399091
C54   C     C_R   0.062662 0.197249 0.796441 0.399082
N1    N     N_2   0.007255 0.764092 0.322307 -0.301329
N2    N     N_2   0.992748 0.264095 0.677702 -0.301331
N3    N     N_2   0.993671 0.735093 0.176565 -0.295798
N4    N     N_2   0.006339 0.235104 0.823454 -0.295800
C55   C     C_R   0.826354 0.620372 0.239536 -0.128576
C56   C     C_R   0.173653 0.120379 0.760467 -0.128591
H13   H     H_    0.898106 0.734673 0.472894 0.170725
H14   H     H_    0.101889 0.234670 0.527090 0.170747
H15   H     H_    0.062747 0.821937 0.600010 0.124622
H16   H     H_    0.937252 0.321933 0.399994 0.124620
H17   H     H_    0.155680 0.890790 0.571687 0.131456
H18   H     H_    0.844316 0.390785 0.428312 0.131455
C57   C     C_R   0.871761 0.617588 0.078598 -0.179814
C58   C     C_R   0.128255 0.117606 0.921431 -0.179831
C59   C     C_R   0.925954 0.655728 0.060532 -0.135665
C60   C     C_R   0.074064 0.155748 0.939504 -0.135644
H19   H     H_    0.866009 0.584998 0.966866 0.144424
H20   H     H_    0.134013 0.085022 0.033180 0.144439
H21   H     H_    0.077588 0.794955 0.983493 0.139344
H22   H     H_    0.922418 0.294963 0.016516 0.139342
H23   H     H_    0.959940 0.652350 0.934800 0.137140
H24   H     H_    0.040085 0.152377 0.065255 0.137146
H25   H     H_    0.169992 0.863686 0.954373 0.135555
H26   H     H_    0.830012 0.363692 0.045631 0.135554
H27   H     H_    0.399427 0.811031 0.290750 0.101405
H28   H     H_    0.600573 0.311030 0.709270 0.101404
C61   C     C_2   0.352263 0.610241 0.418430 0.771919
O21   O     O_2   0.304253 0.642973 0.433287 -0.554566
O22   O     O_R   0.344145 0.550128 0.456033 -0.669121
H29   H     H_    0.296569 0.539331 0.493957 0.303878
C62   C     C_2   0.647740 0.110237 0.581639 0.771922
O23   O     O_2   0.695751 0.142969 0.566786 -0.554565
O24   O     O_R   0.655860 0.050123 0.544057 -0.669120
H30   H     H_    0.703437 0.039325 0.506151 0.303879
C63   C     C_2   0.786775 0.675708 0.545457 0.762902
O25   O     O_2   0.727416 0.672135 0.522708 -0.564154
O26   O     O_R   0.808809 0.693170 0.724157 -0.668131
H31   H     H_    0.771088 0.699955 0.824109 0.293444
C64   C     C_2   0.213216 0.175704 0.454493 0.762900
O27   O     O_2   0.272577 0.172114 0.477189 -0.564132
O28   O     O_R   0.191170 0.193187 0.275825 -0.668145
H32   H     H_    0.228882 0.199973 0.175842 0.293446

loop_
_geom_bond_atom_site_label_1
_geom_bond_atom_site_label_2
_ccdc_geom_bond_type
C9    C25   A    
C52   C56   A    
C10   C26   A    
O11   V3    S    
C48   H18   S    
C14   C36   A    
C11   C31   A    
O4    C2    A    
V1    O19   S    
C58   C60   A    
O24   H30   S    
C17   C19   A    
C60   H24   S    
O9    V1    S    
C9    H5    S    
C38   C40   A    
C5    C55   S    
C10   H6    S    
C40   C42   A    
O3    C1    A    
C61   O22   S    
C38   C48   A    
C42   C44   A    
C27   C29   A    
C30   H12   S    
C28   C30   A    
O13   V3    S    
C21   C35   A    
C15   C17   A    
O7    C3    A    
C17   H9    S    
C22   C30   A    
O5    C7    A    
C23   C31   A    
O7    V1    S    
O6    C8    A    
C14   C16   A    
C19   C21   A    
C51   C55   A    
C31   H27   S    
C20   C22   A    
C16   C62   S    
O3    V1    S    
C39   H25   S    
O16   V4    S    
C12   C32   A    
C43   N1    S    
C9    C33   A    
C18   C20   A    
C59   H23   S    
C2    O12   A    
H4    C28   S    
C37   C39   A    
C52   C64   S    
C50   H14   S    
O1    V3    S    
C45   C47   A    
C55   C57   A    
C54   N4    S    
C24   C26   A    
C23   C25   A    
O17   V3    S    
C16   C18   A    
C49   C51   A    
C4    C37   S    
C2    C11   S    
C54   C60   A    
C44   C46   A    
C50   C54   A    
O8    V2    S    
C43   C45   A    
C49   C53   A    
C1    O11   A    
C45   H15   S    
O15   V3    S    
C44   N2    S    
C8    C36   S    
C1    C12   S    
C32   H28   S    
C7    C35   S    
N1    N3    D    
C13   C15   A    
C40   H26   S    
C13   C35   A    
O10   V2    S    
C6    C56   S    
C10   C34   A    
C41   C43   A    
C57   C59   A    
C20   C24   A    
C41   H21   S    
C39   C41   A    
C62   O23   D    
O14   V4    S    
O18   V4    S    
C46   C48   A    
C25   C27   A    
O8    C4    A    
C63   O25   D    
O16   C6    A    
C14   H8    S    
O1    C3    A    
C11   C33   A    
O26   H31   S    
C12   C34   A    
C58   H20   S    
C22   C36   A    
C64   O27   D    
V2    O20   S    
C15   C61   S    
C56   C58   A    
C47   H17   S    
C51   C63   S    
C46   H16   S    
C18   H10   S    
C57   H19   S    
O22   H29   S    
O5    V1    S    
O17   C7    A    
C24   C32   A    
O10   C6    A    
O18   C8    A    
C42   H22   S    
O2    V4    S    
O15   C5    A    
V3    O19   S    
C61   O21   D    
V4    O20   S    
N2    N4    D    
O6    V2    S    
C19   C23   A    
C50   C52   A    
O9    C5    A    
O13   V1    S    
C26   C28   A    
O14   V2    S    
C53   N3    S    
O2    C4    A    
C62   O24   S    
C49   H13   S    
O4    V2    S    
C21   C29   A    
C3    C38   S    
C13   H7    S    
C53   C59   A    
C63   O26   S    
H1    C33   S    
H2    C34   S    
O12   V4    S    
C37   C47   A    
H3    C27   S    
O28   H32   S    
C29   H11   S    
C64   O28   S    
