data_mof_unit_6553.cif
_audit_creation_date              2012-12-10T18:06:45-0500
_audit_creation_method            fapswitch 2.2
_symmetry_space_group_name_H-M    P1
_symmetry_Int_Tables_number       1
_space_group_crystal_system       triclinic
_cell_length_a                    12.656955
_cell_length_b                    13.173351
_cell_length_c                    15.829249
_cell_angle_alpha                 84.756813
_cell_angle_beta                  98.165887
_cell_angle_gamma                 96.708309
_cell_volume                      2587.11672266

loop_
_atom_site_label
_atom_site_type_symbol
_atom_type_description
_atom_site_fract_x
_atom_site_fract_y
_atom_site_fract_z
_atom_type_partial_charge
C1    C     C_R   0.442210 0.308851 0.506260 0.892115
C2    C     C_R   0.430178 0.499914 0.096852 0.022631
C3    C     C_R   0.320328 0.471847 0.072726 0.024581
C4    C     C_R   0.501215 0.508891 0.034948 0.061993
C5    C     C_R   0.472595 0.456789 0.960190 0.076680
C6    C     C_R   0.369769 0.400066 0.950537 -0.190855
C7    C     C_R   0.289366 0.419181 0.997938 -0.019941
C8    C     C_R   0.600594 0.568150 0.048572 -0.237641
C9    C     C_R   0.682469 0.557028 0.001981 -0.049395
C10   C     C_R   0.656609 0.507363 0.925370 0.082264
C11   C     C_R   0.548041 0.464822 0.899646 0.022552
C12   C     C_R   0.435992 0.513563 0.336240 0.883845
C13   C     C_R   0.734000 0.510410 0.869484 -0.153476
C14   C     C_R   0.703604 0.490502 0.785096 -0.203962
C15   C     C_R   0.518684 0.443253 0.812333 -0.065184
C16   C     C_R   0.648428 0.944929 0.370588 -0.207542
C17   C     C_R   0.577793 0.801433 0.461294 -0.138626
C18   C     C_R   0.326416 0.159544 0.558812 -0.166155
C19   C     C_R   0.297786 0.054553 0.567651 -0.085726
C20   C     C_R   0.353270 0.988982 0.530692 -0.142342
C21   C     C_R   0.437067 0.028272 0.482673 0.069062
C22   C     C_R   0.451269 0.134334 0.460683 0.077903
C23   C     C_R   0.554566 0.691876 0.486078 0.861699
C24   C     C_R   0.507837 0.965981 0.456234 0.092275
C25   C     C_R   0.577660 0.006441 0.396324 0.131878
C26   C     C_R   0.575141 0.107708 0.362553 -0.196028
C27   C     C_R   0.512779 0.171332 0.394503 -0.176566
C28   C     C_R   0.514577 0.866040 0.491524 -0.245036
C29   C     C_R   0.647608 0.841663 0.400840 -0.039724
C30   C     C_R   0.403999 0.200065 0.506184 -0.106320
C31   C     C_R   0.134467 0.649936 0.616480 -0.103432
C32   C     C_R   0.759028 0.383204 0.394030 -0.026045
C33   C     C_R   0.853045 0.373805 0.360038 -0.117661
C34   C     C_R   0.561874 0.481808 0.662725 0.867458
C35   C     C_R   0.947636 0.428266 0.395309 -0.188954
C36   C     C_R   0.950808 0.482518 0.468627 0.013961
C37   C     C_R   0.851848 0.498183 0.493263 0.253872
C38   C     C_R   0.047350 0.526397 0.515084 -0.042689
C39   C     C_R   0.040787 0.599590 0.574252 0.059309
C40   C     C_R   0.940093 0.618300 0.592764 -0.214829
C41   C     C_R   0.847878 0.566595 0.554282 -0.190092
C42   C     C_R   0.149530 0.496648 0.508588 0.017251
C43   C     C_R   0.234597 0.628735 0.597396 0.023998
C44   C     C_R   0.397080 0.516718 0.242771 -0.232367
C45   C     C_R   0.595671 0.466849 0.754849 -0.107268
C46   C     C_R   0.248495 0.489398 0.128297 -0.120048
C47   C     C_R   0.286734 0.522970 0.209924 -0.026732
C48   C     C_R   0.468596 0.502492 0.184356 -0.070237
H1    H     H_    0.816960 0.539029 0.886942 0.189948
H2    H     H_    0.623360 0.138329 0.313081 0.216737
H3    H     H_    0.701318 0.976327 0.324205 0.176737
H4    H     H_    0.469835 0.836416 0.543100 0.180912
H5    H     H_    0.288881 0.208906 0.593994 0.214635
H6    H     H_    0.327560 0.908242 0.538033 0.188213
H7    H     H_    0.235227 0.023641 0.605766 0.192497
H8    H     H_    0.512144 0.249205 0.366344 0.176362
H9    H     H_    0.930851 0.671118 0.638986 0.174851
H10   H     H_    0.683421 0.344725 0.367239 0.177435
H11   H     H_    0.016824 0.430870 0.362687 0.232958
H12   H     H_    0.774231 0.583286 0.572463 0.204291
H13   H     H_    0.763533 0.504608 0.741649 0.170310
H14   H     H_    0.163008 0.478883 0.108634 0.237367
H15   H     H_    0.349408 0.340798 0.906864 0.185029
H16   H     H_    0.616668 0.618852 0.099981 0.220981
N1    N     N_R   0.239390 0.551900 0.544730 -0.188415
N2    N     N_R   0.759950 0.448600 0.455730 -0.131549
O1    O     O_R   0.374950 0.371210 0.521360 -0.580789
O2    O     O_R   0.542050 0.338030 0.492790 -0.628405
O3    O     O_R   0.368720 0.526070 0.390200 -0.605415
O4    O     O_R   0.535820 0.492890 0.361630 -0.575653
O5    O     O_R   0.457950 0.661970 0.507210 -0.655000
O6    O     O_R   0.625050 0.628790 0.478640 -0.605544
O7    O     O_R   0.464180 0.507110 0.638370 -0.636811
O8    O     O_R   0.631280 0.473930 0.609800 -0.637332
Zn1   Zn    Zn3+2 0.388420 0.522150 0.519080 0.980477
Zn2   Zn    Zn3+2 0.611580 0.477850 0.480920 0.988482
C49   C     C_2   0.177308 0.375706 0.971135 0.925520
O9    O     O_2   0.159377 0.287956 0.949358 -0.594725
O10   O     O_R   0.092796 0.436364 0.966512 -0.769086
H17   H     H_    0.020593 0.398381 0.946191 0.364375
C50   C     C_2   0.716304 0.779139 0.363950 0.944457
O11   O     O_2   0.676405 0.703642 0.327118 -0.555481
O12   O     O_R   0.826199 0.809892 0.367352 -0.780839
H18   H     H_    0.864764 0.761441 0.339339 0.357258
C51   C     C_2   0.334148 0.688681 0.636508 0.463281
H19   H     H_    0.410031 0.659105 0.647565 0.145045
O13   O     O_2   0.333097 0.775087 0.658090 -0.607462
C52   C     C_2   0.406923 0.408647 0.776128 0.904637
O14   O     O_2   0.386912 0.325520 0.745479 -0.620781
O15   O     O_R   0.326174 0.473440 0.773231 -0.782303
H20   H     H_    0.253998 0.442265 0.745441 0.353253
C53   C     C_2   0.127669 0.721758 0.682307 0.988685
O16   O     O_2   0.161244 0.699897 0.757299 -0.558778
O17   O     O_R   0.083990 0.814381 0.657911 -0.795466
H21   H     H_    0.084316 0.856933 0.708189 0.354325
C54   C     C_2   0.159959 0.396410 0.477770 0.937607
O18   O     O_2   0.201504 0.391595 0.413376 -0.601966
O19   O     O_R   0.114339 0.307207 0.519227 -0.803446
H22   H     H_    0.120725 0.243492 0.489705 0.348306
C55   C     C_2   0.852957 0.311631 0.286398 0.951730
O20   O     O_2   0.769750 0.265155 0.254591 -0.614544
O21   O     O_R   0.948522 0.305862 0.253051 -0.751089
H23   H     H_    0.938110 0.261451 0.202862 0.363289
C56   C     C_2   0.792067 0.602745 0.034426 0.924737
O22   O     O_2   0.869302 0.554334 0.036588 -0.587708
O23   O     O_R   0.805882 0.699055 0.067385 -0.769949
H24   H     H_    0.883598 0.721108 0.089434 0.365214
C57   C     C_2   0.209504 0.563008 0.257745 0.509148
H25   H     H_    0.237103 0.616395 0.306328 0.079629
O24   O     O_2   0.112936 0.540420 0.240637 -0.551211
C58   C     C_2   0.575644 0.465190 0.212230 0.930198
O25   O     O_2   0.587001 0.375606 0.205251 -0.606007
O26   O     O_R   0.663870 0.533613 0.240106 -0.736243
H26   H     H_    0.734375 0.503119 0.244497 0.342627

loop_
_geom_bond_atom_site_label_1
_geom_bond_atom_site_label_2
_ccdc_geom_bond_type
C12   O3    A    
C31   C53   S    
C17   C29   A    
C58   O25   D    
C16   H3    S    
C32   H10   S    
C4    C8    A    
C56   O23   S    
C50   O11   D    
C49   O9    D    
C26   C27   A    
C17   C23   S    
C31   C43   A    
C46   H14   S    
C42   C54   S    
C36   C37   A    
C5    C11   A    
C3    C7    A    
C26   H2    S    
C38   C39   A    
O23   H24   S    
C1    O2    A    
C57   H25   S    
C35   H11   S    
C18   C19   A    
C34   O8    A    
C1    C30   S    
C18   H5    S    
C33   C35   A    
C11   C15   A    
C19   C20   A    
C31   C39   A    
C8    C9    A    
C54   O19   S    
C42   N1    A    
C18   C30   A    
C9    C10   A    
C44   C47   A    
O6    Zn2   S    
C7    C49   S    
C51   O13   D    
C21   C22   A    
C37   N2    A    
O7    Zn1   S    
O21   H23   S    
C55   O21   S    
C56   O22   D    
C50   O12   S    
C14   C45   A    
C49   O10   S    
C43   C51   S    
C23   O5    A    
C24   C25   A    
C20   H6    S    
C39   C40   A    
C27   H8    S    
C2    C48   A    
C16   C29   A    
C51   H19   S    
C14   H13   S    
C35   C36   A    
C6    H15   S    
C2    C4    A    
C29   C50   S    
O12   H18   S    
C43   N1    A    
N2    Zn2   S    
C54   O18   D    
C53   O17   S    
C58   O26   S    
C34   C45   S    
C20   C21   A    
O8    Zn2   S    
C8    H16   S    
C13   H1    S    
C40   C41   A    
C52   O15   S    
C47   C57   S    
C22   C27   A    
O4    Zn2   S    
O1    Zn1   S    
C15   C45   A    
C32   N2    A    
O26   H26   S    
C19   H7    S    
C16   C25   A    
C12   O4    A    
C46   C47   A    
C40   H9    S    
C22   C30   A    
C17   C28   A    
C23   O6    A    
C24   C28   A    
C41   H12   S    
C4    C5    A    
C10   C13   A    
C38   C42   A    
C6    C7    A    
O2    Zn2   S    
C3    C46   A    
N1    Zn1   S    
C33   C55   S    
C32   C33   A    
C36   C38   A    
C2    C3    A    
C25   C26   A    
C12   C44   S    
O5    Zn1   S    
C28   H4    S    
O15   H20   S    
C5    C6    A    
C9    C56   S    
C53   O16   D    
C1    O1    A    
C57   O24   D    
O3    Zn1   S    
C37   C41   A    
O17   H21   S    
C10   C11   A    
C34   O7    A    
O10   H17   S    
C48   C58   S    
C52   O14   D    
O19   H22   S    
C21   C24   A    
C55   O20   D    
C13   C14   A    
C44   C48   A    
C15   C52   S    
