data_mof_unit_17357.cif
_audit_creation_date              2012-12-11T14:17:45-0500
_audit_creation_method            fapswitch 2.2
_symmetry_space_group_name_H-M    P1
_symmetry_Int_Tables_number       1
_space_group_crystal_system       triclinic
_cell_length_a                    6.976205
_cell_length_b                    13.827507
_cell_length_c                    20.35268
_cell_angle_alpha                 101.839264
_cell_angle_beta                  89.912505
_cell_angle_gamma                 91.196495
_cell_volume                      1921.09958107

loop_
_atom_site_label
_atom_site_type_symbol
_atom_type_description
_atom_site_fract_x
_atom_site_fract_y
_atom_site_fract_z
_atom_type_partial_charge
O1    O     O_R   0.506860 0.599390 0.449240 -0.538482
O2    O     O_R   0.180220 0.594600 0.586780 -0.548818
O3    O     O_R   0.004500 0.400610 0.550760 -0.559107
C1    C     C_R   0.351589 0.620950 0.611408 0.653834
O4    O     O_R   0.177490 0.611290 0.451970 -0.540242
O5    O     O_R   0.001750 0.417420 0.414990 -0.513560
C2    C     C_R   0.348176 0.636412 0.434557 0.710583
O6    O     O_R   0.509610 0.582580 0.585010 -0.541560
O7    O     O_3   0.337420 0.436370 0.488020 -0.373347
V1    V     V_3+5 0.064680 0.511800 0.502220 1.435022
O8    O     O_R   0.671710 0.405400 0.413220 -0.555894
C3    C     C_R   0.840319 0.382515 0.387411 0.738336
O9    O     O_R   0.674440 0.388710 0.548030 -0.532777
C4    C     C_R   0.842340 0.360836 0.563363 0.718997
V2    V     V_3+5 0.564010 0.488200 0.497780 1.448108
O10   O     O_3   0.841140 0.563630 0.511980 -0.378296
C5    C     C_R   0.880513 0.113907 0.610917 -0.142056
H1    H     H_    0.877310 0.164858 0.518281 0.119213
H2    H     H_    0.922261 0.990947 0.693678 0.144282
H3    H     H_    0.902862 0.038020 0.585653 0.127792
C6    C     C_R   0.848681 0.284768 0.603815 -0.109101
C7    C     C_R   0.829774 0.308651 0.927164 -0.174678
C8    C     C_R   0.764906 0.377065 0.891718 -0.266713
C9    C     C_R   0.729086 0.348720 0.822818 0.025606
C10   C     C_R   0.807018 0.259721 0.785691 0.075672
C11   C     C_R   0.857038 0.186910 0.822677 0.031884
C12   C     C_R   0.832325 0.238599 0.714103 0.018930
C13   C     C_R   0.867186 0.139365 0.681154 0.069817
C14   C     C_R   0.893997 0.066432 0.718510 -0.125943
C15   C     C_R   0.895706 0.090422 0.788173 -0.164548
C16   C     C_R   0.839483 0.312432 0.674238 0.398527
C17   C     C_R   0.867736 0.185903 0.572481 -0.255063
C18   C     C_R   0.861265 0.211764 0.893778 -0.059565
H4    H     H_    0.837223 0.328751 0.981475 0.111496
H5    H     H_    0.721659 0.448715 0.919432 0.119201
H6    H     H_    0.927209 0.032484 0.814868 0.116184
C19   C     C_2   0.009043 0.279289 0.288948 0.461263
C20   C     C_2   0.846178 0.309544 0.322915 -0.379765
H7    H     H_    0.710137 0.276999 0.305268 0.149338
C21   C     C_2   0.008594 0.210938 0.220693 -0.348663
C22   C     C_2   0.857939 0.189538 0.177384 0.203829
H8    H     H_    0.144851 0.178133 0.204204 0.127015
C23   C     C_2   0.227189 0.818680 0.772256 -0.082647
C24   C     C_2   0.357372 0.815508 0.820758 -0.248425
H9    H     H_    0.111835 0.871071 0.782770 0.125809
H10   H     H_    0.468269 0.760550 0.812021 0.137854
C25   C     C_2   0.220540 0.745819 0.706429 -0.153938
C26   C     C_2   0.374729 0.703107 0.671883 -0.158870
H11   H     H_    0.077828 0.723499 0.687181 0.127099
C27   C     C_R   0.508823 0.867000 0.380987 -0.179474
H12   H     H_    0.488415 0.821181 0.475065 0.115977
H13   H     H_    0.575764 0.936799 0.404453 0.150518
C28   C     C_R   0.368438 0.711447 0.394044 -0.034569
C29   C     C_R   0.193820 0.707105 0.079441 0.344832
C30   C     C_R   0.100750 0.657492 0.125285 -0.037230
C31   C     C_R   0.176839 0.665345 0.189459 -0.222329
C32   C     C_R   0.323686 0.734418 0.213899 0.034712
C33   C     C_R   0.391215 0.798595 0.171998 -0.055726
C34   C     C_R   0.378909 0.752407 0.282724 0.050487
C35   C     C_R   0.476397 0.842103 0.311157 0.047814
C36   C     C_R   0.529474 0.908671 0.270365 0.387381
C37   C     C_R   0.494205 0.884823 0.201443 -0.261788
C38   C     C_R   0.331520 0.686219 0.325109 -0.191283
C39   C     C_R   0.455956 0.802032 0.421862 -0.177845
C40   C     C_R   0.332568 0.782487 0.103731 -0.156478
H14   H     H_    0.275155 0.612635 0.305174 0.111311
H15   H     H_    0.102030 0.625967 0.222692 0.174411
H16   H     H_    0.532913 0.939890 0.172745 0.142428
O11   O     O_R   0.203230 0.917310 0.915020 -0.538875
O12   O     O_R   0.535500 0.888690 0.048040 -0.553393
O13   O     O_R   0.711080 0.082610 0.085000 -0.526506
C41   C     C_R   0.363009 0.860344 0.063629 0.754503
O14   O     O_R   0.532630 0.905370 0.913230 -0.541341
O15   O     O_R   0.708190 0.099410 0.949230 -0.537960
C42   C     C_R   0.363539 0.885462 0.886331 0.747768
O16   O     O_R   0.206120 0.900510 0.050790 -0.526412
O17   O     O_3   0.375360 0.063570 0.011990 -0.376604
V3    V     V_3+5 0.648170 0.988200 0.997780 1.455095
O18   O     O_R   0.038240 0.111390 0.951940 -0.547046
C43   C     C_R   0.870703 0.136108 0.934207 0.682063
O19   O     O_R   0.041120 0.094710 0.086750 -0.560387
C44   C     C_R   0.872799 0.116582 0.112962 0.658258
V4    V     V_3+5 0.148810 0.011930 0.002180 1.447689
O20   O     O_3   0.871750 0.936430 0.988010 -0.367350
O21   O     O_3   0.679653 0.229512 0.193297 -0.578055
C45   C     C_3   0.659181 0.311981 0.163166 0.098622
H17   H     H_    0.692325 0.293406 0.108424 0.104820
H18   H     H_    0.755942 0.373531 0.188288 0.168619
C46   C     C_3   0.451638 0.345289 0.171480 -0.297250
H19   H     H_    0.355615 0.284703 0.144877 0.200211
H20   H     H_    0.414071 0.361354 0.225570 0.229379
C47   C     C_3   0.419902 0.437576 0.143248 -0.793072
H21   H     H_    0.475623 0.426928 0.091225 0.238641
H22   H     H_    0.264057 0.452206 0.142587 0.241659
H23   H     H_    0.493641 0.502477 0.175111 0.266460
C48   C     C_2   0.573855 0.741909 0.688159 0.371494
H24   H     H_    0.693763 0.692177 0.679231 0.046390
O22   O     O_2   0.606735 0.830120 0.708326 -0.532063
O23   O     O_3   0.585852 0.004119 0.299508 -0.589155
C49   C     C_3   0.780363 0.018674 0.285734 0.075404
H25   H     H_    0.808316 0.099286 0.295107 0.148187
H26   H     H_    0.818590 0.989041 0.232228 0.115809
C50   C     C_3   0.906323 0.976086 0.333514 -0.376917
H27   H     H_    0.894326 0.021369 0.385155 0.185967
H28   H     H_    0.862586 0.898904 0.334711 0.210985
C51   C     C_3   0.111199 0.973803 0.310326 -0.780286
H29   H     H_    0.127076 0.911455 0.266930 0.235848
H30   H     H_    0.201949 0.964143 0.352741 0.254333
H31   H     H_    0.154245 0.042585 0.294181 0.231770
O24   O     O_3   0.139114 0.692611 0.012214 -0.580636
C52   C     C_3   0.136172 0.591283 0.979397 0.062859
H32   H     H_    0.096830 0.588331 0.926496 0.148868
H33   H     H_    0.019136 0.548322 0.997060 0.115914
C53   C     C_3   0.329073 0.539485 0.981310 -0.358453
H34   H     H_    0.434843 0.567843 0.948670 0.174121
H35   H     H_    0.388934 0.554122 0.032908 0.202506
C54   C     C_3   0.302386 0.427656 0.958322 -0.803484
H36   H     H_    0.191848 0.399324 0.989305 0.236160
H37   H     H_    0.437586 0.390236 0.964844 0.233246
H38   H     H_    0.258860 0.408486 0.904778 0.240175
C55   C     C_2   0.908173 0.610312 0.111087 0.323630
H39   H     H_    0.816180 0.631426 0.073627 0.066364
O25   O     O_2   0.849289 0.548186 0.141417 -0.562394
O26   O     O_3   0.832305 0.411977 0.702841 -0.588349
C56   C     C_3   0.016930 0.456680 0.707863 0.057243
H40   H     H_    0.006700 0.524831 0.687260 0.152593
H41   H     H_    0.130491 0.410757 0.678663 0.140897
C57   C     C_3   0.076537 0.484669 0.781609 -0.299241
H42   H     H_    0.950389 0.510224 0.813292 0.185579
H43   H     H_    0.133836 0.418760 0.797439 0.213185
C58   C     C_3   0.225122 0.568280 0.792998 -0.828429
H44   H     H_    0.333484 0.558018 0.752283 0.243370
H45   H     H_    0.299788 0.573044 0.841320 0.216807
H46   H     H_    0.149378 0.638240 0.795720 0.238828
C59   C     C_2   0.579186 0.403649 0.796136 0.454099
H47   H     H_    0.559789 0.480607 0.818748 0.020446
O27   O     O_2   0.474914 0.363055 0.750093 -0.535175
O28   O     O_3   0.183073 0.318591 0.316155 -0.569041
C60   C     C_3   0.291373 0.246795 0.339461 0.094091
H48   H     H_    0.431148 0.282172 0.355216 0.165663
H49   H     H_    0.322892 0.182576 0.298738 0.126287
C61   C     C_3   0.204137 0.214756 0.401564 -0.345548
H50   H     H_    0.160274 0.279303 0.439389 0.236089
H51   H     H_    0.074150 0.168195 0.387093 0.168443
C62   C     C_3   0.347921 0.159446 0.435813 -0.807009
H52   H     H_    0.406183 0.096234 0.399696 0.264187
H53   H     H_    0.276258 0.131419 0.477174 0.229783
H54   H     H_    0.468670 0.209718 0.457200 0.232244

loop_
_geom_bond_atom_site_label_1
_geom_bond_atom_site_label_2
_ccdc_geom_bond_type
C33   C37   A    
C30   C31   A    
C30   C55   S    
O12   V3    S    
C27   C39   A    
C52   H32   S    
C31   H15   S    
C1    O6    A    
C58   H46   S    
C57   H42   S    
O19   C44   A    
C59   H47   S    
C25   H11   S    
C29   C40   A    
O17   V3    S    
C6    C16   A    
C19   C20   D    
C4    C6    S    
C13   C14   A    
C16   O26   S    
C19   C21   S    
C54   H37   S    
O5    C3    A    
C20   H7    S    
C28   C39   A    
C45   H18   S    
C32   C34   A    
C51   H29   S    
O17   V4    S    
V2    O10   S    
C5    H3    S    
C31   C32   A    
C29   O24   S    
O24   C52   S    
C28   C38   A    
C11   C18   A    
O19   V4    S    
O8    V2    S    
O23   C49   S    
C48   O22   D    
C56   C57   S    
C27   H13   S    
C8    C9    A    
O1    V2    S    
C52   C53   S    
O7    V1    S    
C41   O16   A    
O13   C44   A    
C21   H8    S    
C38   H14   S    
C34   C35   A    
O15   C43   A    
O9    C4    A    
O14   C42   A    
C61   C62   S    
C36   O23   S    
O16   V4    S    
C49   H26   S    
C62   H53   S    
C24   H10   S    
C62   H52   S    
C7    C8    A    
C7    H4    S    
C6    C17   A    
O12   C41   A    
C12   C16   A    
C25   C26   D    
C9    C10   A    
C52   H33   S    
C54   H38   S    
O4    C2    A    
C45   H17   S    
C10   C11   A    
O21   C45   S    
C49   C50   S    
C35   C36   A    
C24   C42   S    
O2    C1    A    
C23   C24   D    
C14   C15   A    
O11   V4    S    
C33   C40   A    
V4    O20   S    
O14   V3    S    
C48   H24   S    
C47   H22   S    
C50   H28   S    
C46   C47   S    
C23   H9    S    
C55   H39   S    
O3    C4    A    
C9    C59   S    
C21   C22   D    
C11   C15   A    
O6    V2    S    
C8    H5    S    
C19   O28   S    
O9    V2    S    
C56   H40   S    
C61   H51   S    
H1    C17   S    
C2    C28   S    
C58   H44   S    
O2    V1    S    
C57   C58   S    
C12   C13   A    
C62   H54   S    
C1    C26   S    
C59   O27   D    
C7    C18   A    
C29   C30   A    
C26   C48   S    
O1    C2    A    
C5    C13   A    
H12   C39   S    
C58   H45   S    
C45   C46   S    
C57   H43   S    
O5    V1    S    
C53   H35   S    
C60   H48   S    
C18   C43   S    
C53   H34   S    
C15   H6    S    
C10   C12   A    
C40   C41   S    
C22   O21   S    
C34   C38   A    
C37   H16   S    
C27   C35   A    
O7    V2    S    
O4    V1    S    
O3    V1    S    
V1    O10   S    
C54   H36   S    
O18   V4    S    
C60   H49   S    
C32   C33   A    
C51   H30   S    
C22   C44   S    
C47   H21   S    
C60   C61   S    
O11   C42   A    
C50   C51   S    
C47   H23   S    
C3    C20   S    
C36   C37   A    
C55   O25   D    
C53   C54   S    
O28   C60   S    
O18   C43   A    
V3    O20   S    
C46   H20   S    
O15   V3    S    
C50   H27   S    
C56   H41   S    
C5    C17   A    
C61   H50   S    
C49   H25   S    
C46   H19   S    
C23   C25   S    
O13   V3    S    
O8    C3    A    
O26   C56   S    
C51   H31   S    
H2    C14   S    
