data_mof_unit_33374.cif
_audit_creation_date              2013-03-05T16:43:45-0500
_audit_creation_method            fapswitch 2.2
_symmetry_space_group_name_H-M    P1
_symmetry_Int_Tables_number       1
_space_group_crystal_system       triclinic
_cell_length_a                    8.86696
_cell_length_b                    15.915141
_cell_length_c                    16.883285
_cell_angle_alpha                 94.548828
_cell_angle_beta                  96.35721
_cell_angle_gamma                 84.321504
_cell_volume                      2350.64600743

loop_
_atom_site_label
_atom_site_type_symbol
_atom_site_description
_atom_site_fract_x
_atom_site_fract_y
_atom_site_fract_z
_atom_type_partial_charge
O1    O     O_R   0.493000 0.421040 0.382520 -0.533095
O2    O     O_R   0.507000 0.578960 0.617480 -0.533090
O3    O     O_R   0.505640 0.563310 0.388930 -0.568330
O4    O     O_R   0.494360 0.436690 0.611070 -0.568329
C1    C     C_R   0.507293 0.490163 0.348701 0.909022
C2    C     C_R   0.492707 0.509837 0.651299 0.909021
O5    O     O_R   0.269980 0.445280 0.497530 -0.536521
O6    O     O_R   0.730020 0.554720 0.502470 -0.536521
O7    O     O_R   0.282610 0.587550 0.503940 -0.578760
O8    O     O_R   0.717390 0.412450 0.496060 -0.578759
C3    C     C_R   0.205774 0.521710 0.500345 0.834827
C4    C     C_R   0.794226 0.478290 0.499655 0.834829
Cu1   Cu    Cu3+1 0.492520 0.415770 0.496210 1.031886
Cu2   Cu    Cu3+1 0.507480 0.584230 0.503790 1.031887
C5    C     C_2   0.039617 0.532896 0.493551 0.208287
C6    C     C_2   0.960383 0.467104 0.506449 0.208289
C7    C     C_R   0.532258 0.486277 0.263350 -0.222225
C8    C     C_R   0.467742 0.513723 0.736650 -0.222226
C9    C     C_R   0.512395 0.561203 0.223851 -0.281146
C10   C     C_R   0.487600 0.438798 0.776149 -0.281147
C11   C     C_R   0.538790 0.561155 0.144518 0.138583
C12   C     C_R   0.461207 0.438847 0.855483 0.138585
C13   C     C_R   0.572239 0.484184 0.100419 0.205908
C14   C     C_R   0.427762 0.515818 0.899581 0.205906
C15   C     C_R   0.626228 0.412252 0.143515 0.346102
C16   C     C_R   0.373776 0.587750 0.856485 0.346097
C17   C     C_R   0.600284 0.412436 0.224915 0.403164
C18   C     C_R   0.399722 0.587566 0.775086 0.403169
N1    N     N_2   0.558501 0.479177 0.015176 -0.185359
N2    N     N_2   0.441500 0.520825 0.984824 -0.185360
H1    H     H_    0.513632 0.378684 0.744148 0.234882
H2    H     H_    0.486360 0.621316 0.255852 0.234881
N3    N     N_R   0.518730 0.710760 0.509500 -0.249267
N4    N     N_R   0.481270 0.289240 0.490500 -0.249266
C19   C     C_R   0.422743 0.759696 0.457443 0.185578
C20   C     C_R   0.577255 0.240304 0.542557 0.185567
C21   C     C_R   0.416067 0.849105 0.464744 0.289690
C22   C     C_R   0.583928 0.150894 0.535257 0.289687
C23   C     C_R   0.518127 0.890058 0.521630 0.097074
C24   C     C_R   0.481867 0.109942 0.478370 0.097071
C25   C     C_R   0.612196 0.840220 0.575475 0.248811
C26   C     C_R   0.387799 0.159781 0.424526 0.248810
C27   C     C_R   0.611288 0.751052 0.568980 0.181399
C28   C     C_R   0.388711 0.248948 0.431020 0.181403
N5    N     N_2   0.526710 0.980243 0.529747 -0.126807
N6    N     N_2   0.473283 0.019757 0.470253 -0.126828
O9    O     O_3   0.965224 0.604562 0.459320 -0.576438
C29   C     C_3   0.994712 0.678625 0.508292 -0.142007
H3    H     H_    0.084109 0.711027 0.486134 0.177989
H4    H     H_    0.029562 0.667219 0.572255 0.169127
H5    H     H_    0.890663 0.723328 0.504219 0.185101
O10   O     O_3   0.034776 0.395438 0.540680 -0.576439
C30   C     C_3   0.005287 0.321375 0.491708 -0.142013
H6    H     H_    0.970438 0.332780 0.427746 0.169131
H7    H     H_    0.915889 0.288974 0.513866 0.177983
H8    H     H_    0.109336 0.276672 0.495782 0.185100
I1    I     I_    0.412010 0.322061 0.893450 -0.344291
I2    I     I_    0.587988 0.677941 0.106552 -0.344294
O11   O     O_3   0.738942 0.354015 0.116371 -0.543934
C31   C     C_3   0.678785 0.298850 0.054515 -0.225231
H9    H     H_    0.694771 0.322667 0.996415 0.224414
H10   H     H_    0.557763 0.287928 0.058833 0.152283
H11   H     H_    0.746071 0.236424 0.057841 0.179868
O12   O     O_3   0.261063 0.645989 0.883629 -0.543936
C32   C     C_3   0.321219 0.701152 0.945486 -0.225230
H12   H     H_    0.442242 0.712074 0.941169 0.152284
H13   H     H_    0.305230 0.677334 0.003585 0.224414
H14   H     H_    0.253934 0.763579 0.942160 0.179869
O13   O     O_3   0.665820 0.347643 0.271409 -0.542229
C33   C     C_3   0.606791 0.270240 0.243789 -0.212664
H15   H     H_    0.683027 0.233666 0.203142 0.189498
H16   H     H_    0.487927 0.277714 0.214102 0.140819
H17   H     H_    0.605714 0.232244 0.295987 0.161683
O14   O     O_3   0.334195 0.652362 0.728592 -0.542227
C34   C     C_3   0.393228 0.729763 0.756216 -0.212665
H18   H     H_    0.512087 0.722286 0.785907 0.140815
H19   H     H_    0.316987 0.766338 0.796861 0.189498
H20   H     H_    0.394316 0.767760 0.704020 0.161683
I3    I     I_    0.726379 0.291371 0.638418 -0.257681
I4    I     I_    0.273618 0.708629 0.361583 -0.257665
O15   O     O_3   0.688381 0.104596 0.585687 -0.519026
C35   C     C_3   0.819021 0.079403 0.545778 -0.198811
H21   H     H_    0.873981 0.135055 0.530519 0.132517
H22   H     H_    0.791934 0.037857 0.490897 0.151960
H23   H     H_    0.902911 0.042436 0.586232 0.197499
O16   O     O_3   0.311606 0.895402 0.414316 -0.519028
C36   C     C_3   0.180973 0.920596 0.454231 -0.198846
H24   H     H_    0.208047 0.962180 0.509077 0.152008
H25   H     H_    0.126061 0.864956 0.469537 0.132471
H26   H     H_    0.097049 0.957516 0.413768 0.197492
O17   O     O_3   0.716033 0.878218 0.630820 -0.540600
C37   C     C_3   0.642173 0.910438 0.698184 -0.177533
H27   H     H_    0.605709 0.858470 0.729772 0.129960
H28   H     H_    0.542930 0.956687 0.682397 0.168348
H29   H     H_    0.724318 0.944242 0.740469 0.198166
O18   O     O_3   0.283960 0.121785 0.369180 -0.540596
C38   C     C_3   0.357818 0.089561 0.301817 -0.177528
H30   H     H_    0.457007 0.043280 0.317600 0.168399
H31   H     H_    0.394359 0.141521 0.270251 0.129918
H32   H     H_    0.275649 0.055799 0.259514 0.198154
I5    I     I_    0.759190 0.685805 0.657679 -0.312464
I6    I     I_    0.240810 0.314195 0.342321 -0.312454

loop_
_geom_bond_atom_site_label_1
_geom_bond_atom_site_label_2
_geom_bond_distance
_ccdc_geom_bond_type
C36   H24   1.112690 S    
C5    O9    1.393292 S    
O7    Cu2   1.989657 S    
C18   O14   1.387818 S    
C12   I1    2.113566 S    
C38   H30   1.112712 S    
C23   C25   1.402432 A    
C30   H6    1.113871 S    
O5    C3    1.290645 A    
C31   H11   1.109201 S    
C26   O18   1.384414 S    
C13   N1    1.427351 S    
C12   C14   1.405437 A    
C19   C21   1.414447 A    
C14   C16   1.419751 A    
C1    C7    1.477540 S    
C5    C6    1.361268 D    
C19   I4    2.135051 S    
C31   H10   1.115041 S    
O4    Cu1   1.939931 S    
C16   O12   1.385168 S    
C7    C9    1.398650 A    
C3    C5    1.459250 S    
C29   H5    1.107202 S    
C4    C6    1.459250 S    
C32   H13   1.107429 S    
C33   H15   1.108265 S    
N4    C20   1.383885 A    
C17   O13   1.387815 S    
C23   N5    1.439712 S    
C24   C26   1.402433 A    
O11   C31   1.403507 S    
Cu1   Cu2   2.689661 S    
C25   C27   1.415398 A    
O2    C2    1.302129 A    
C26   C28   1.415397 A    
Cu2   N3    2.020205 S    
C9    H2    1.078162 S    
C38   H31   1.110866 S    
O15   C35   1.412336 S    
C30   H7    1.100620 S    
C2    C8    1.477540 S    
O14   C34   1.411155 S    
C7    C17   1.411185 A    
C21   O16   1.384011 S    
N4    C28   1.383009 A    
O4    C2    1.300068 A    
O17   C37   1.411156 S    
C28   I6    2.140795 S    
O16   C36   1.412334 S    
N5    N6    1.250895 D    
O8    Cu1   1.989658 S    
C37   H29   1.109542 S    
C31   H9    1.107427 S    
N3    C27   1.383010 A    
C24   N6    1.439714 S    
C34   H18   1.115283 S    
C27   I5    2.140794 S    
N1    N2    1.256296 D    
O7    C3    1.299185 A    
O9    C29   1.414183 S    
O5    Cu1   1.984812 S    
O6    C4    1.290647 A    
C32   H14   1.109200 S    
O18   C38   1.411151 S    
C33   H17   1.109017 S    
C37   H28   1.112739 S    
C8    C18   1.411187 A    
C34   H19   1.108266 S    
O3    Cu2   1.939931 S    
O8    C4    1.299186 A    
C29   H3    1.100619 S    
C25   O17   1.384414 S    
C10   C12   1.384929 A    
C32   H12   1.115040 S    
C35   H22   1.112828 S    
C11   C13   1.405436 A    
C22   O15   1.384009 S    
O1    C1    1.302130 A    
O1    Cu1   1.928417 S    
C38   H32   1.109510 S    
O10   C30   1.414183 S    
C30   H8    1.107202 S    
O6    Cu2   1.984813 S    
C9    C11   1.384928 A    
C6    O10   1.393291 S    
O3    C1    1.300067 A    
C20   I3    2.135052 S    
C15   C17   1.418048 A    
C35   H23   1.109313 S    
C16   C18   1.418048 A    
O12   C32   1.403506 S    
C20   C22   1.414450 A    
C11   I2    2.113564 S    
C21   C23   1.411076 A    
C22   C24   1.411080 A    
C29   H4    1.113871 S    
C37   H27   1.110893 S    
N3    C19   1.383883 A    
C8    C10   1.398650 A    
C13   C15   1.419752 A    
O13   C33   1.411153 S    
O2    Cu2   1.928418 S    
C34   H20   1.109017 S    
C14   N2    1.427349 S    
Cu1   N4    2.020206 S    
C35   H21   1.112542 S    
C36   H26   1.109178 S    
C36   H25   1.112429 S    
C33   H16   1.115283 S    
C15   O11   1.385168 S    
C10   H1    1.078163 S    
