data_mof_unit_8579.cif
_audit_creation_date              2012-12-10T17:27:56-0500
_audit_creation_method            fapswitch 2.2
_symmetry_space_group_name_H-M    P1
_symmetry_Int_Tables_number       1
_space_group_crystal_system       triclinic
_cell_length_a                    10.675124
_cell_length_b                    12.039435
_cell_length_c                    12.796798
_cell_angle_alpha                 94.504927
_cell_angle_beta                  91.099352
_cell_angle_gamma                 87.705587
_cell_volume                      1638.06797595

loop_
_atom_site_label
_atom_site_type_symbol
_atom_type_description
_atom_site_fract_x
_atom_site_fract_y
_atom_site_fract_z
_atom_type_partial_charge
C1    C     C_R   0.498483 0.523008 0.700185 0.859332
C2    C     C_R   0.399595 0.612063 0.857297 -0.213783
C3    C     C_R   0.562241 0.466858 0.870077 -0.235785
C4    C     C_R   0.739773 0.502544 0.509056 0.869836
C5    C     C_R   0.539720 0.463908 0.975513 0.097903
C6    C     C_R   0.442657 0.533192 0.022818 0.169949
C7    C     C_R   0.416918 0.525156 0.128601 0.047247
C8    C     C_R   0.595140 0.390095 0.140292 0.403288
C9    C     C_R   0.612085 0.390764 0.032961 -0.340615
C10   C     C_R   0.405270 0.947944 0.385966 -0.323627
C11   C     C_R   0.409069 0.833561 0.400248 -0.016335
C12   C     C_R   0.944838 0.408835 0.541692 0.018683
C13   C     C_R   0.540904 0.862774 0.551481 0.290328
C14   C     C_R   0.532833 0.979650 0.543406 0.088488
C15   C     C_R   0.467939 0.021637 0.457377 0.027904
C16   C     C_R   0.499860 0.476801 0.299696 0.950031
C17   C     C_R   0.466992 0.137095 0.445707 0.032724
C18   C     C_R   0.582661 0.169279 0.604432 0.031400
C19   C     C_R   0.589289 0.055691 0.617989 -0.330367
C20   C     C_R   0.260176 0.496471 0.489826 0.851281
C21   C     C_R   0.899925 0.327778 0.603888 -0.214585
C22   C     C_R   0.964017 0.224430 0.609879 0.181138
C23   C     C_R   0.873847 0.505017 0.516710 -0.073796
C24   C     C_R   0.069481 0.198743 0.545939 0.183844
C25   C     C_R   0.115973 0.282048 0.487306 0.434726
C26   C     C_R   0.064219 0.392982 0.500622 -0.065986
C27   C     C_3   0.624797 0.818438 0.636216 -0.876280
C28   C     C_3   0.915280 0.142274 0.680715 -0.922929
C29   C     C_3   0.134454 0.084550 0.537695 -0.814749
C30   C     C_3   0.300287 0.583115 0.176906 -0.909931
C31   C     C_R   0.931180 0.595028 0.477659 -0.200383
C32   C     C_R   0.057960 0.589092 0.462116 -0.194653
C33   C     C_R   0.126098 0.489757 0.476866 -0.120195
C34   C     C_R   0.500240 0.459989 0.187560 -0.119331
C35   C     C_R   0.490310 0.538339 0.811343 -0.032814
C36   C     C_R   0.374880 0.609072 0.962780 -0.190588
H1    H     H_    0.878433 0.669896 0.459023 0.171321
H2    H     H_    0.816201 0.345789 0.649605 0.152664
H3    H     H_    0.102638 0.662533 0.439243 0.165766
H4    H     H_    0.302163 0.665570 0.995856 0.154188
H5    H     H_    0.646184 0.729409 0.625860 0.289364
H6    H     H_    0.717990 0.856179 0.635397 0.204958
H7    H     H_    0.581511 0.838158 0.714019 0.224967
H8    H     H_    0.836376 0.178935 0.728930 0.223730
H9    H     H_    0.881343 0.068038 0.633138 0.249103
H10   H     H_    0.990951 0.116446 0.735472 0.247431
H11   H     H_    0.090378 0.023711 0.584543 0.224929
H12   H     H_    0.685134 0.337703 0.995116 0.144584
H13   H     H_    0.133534 0.049695 0.454740 0.254466
H14   H     H_    0.233157 0.091869 0.565383 0.247394
H15   H     H_    0.200610 0.307518 0.358776 0.325972
H16   H     H_    0.216847 0.561671 0.127346 0.239981
H17   H     H_    0.280211 0.556660 0.255735 0.230295
H18   H     H_    0.310184 0.674768 0.182631 0.237619
H19   H     H_    0.735051 0.283014 0.155579 0.332210
H20   H     H_    0.343458 0.667221 0.810555 0.158458
H21   H     H_    0.633315 0.411055 0.832513 0.129510
H22   H     H_    0.420994 0.170836 0.378503 0.172160
H23   H     H_    0.624397 0.227196 0.662489 0.125943
H24   H     H_    0.352855 0.978599 0.320118 0.165313
H25   H     H_    0.637043 0.029384 0.687630 0.162887
H26   H     H_    0.359531 0.777310 0.345699 0.142707
N1    N     N_R   0.523130 0.207800 0.519340 -0.101546
N2    N     N_R   0.476870 0.792180 0.480660 -0.100308
O1    O     O_R   0.506170 0.421690 0.658830 -0.632235
O2    O     O_3   0.673258 0.326078 0.201138 -0.749644
O3    O     O_R   0.491330 0.609320 0.646410 -0.628446
O4    O     O_R   0.690660 0.406170 0.506210 -0.600227
O5    O     O_R   0.675810 0.593790 0.493790 -0.637682
O6    O     O_R   0.508670 0.390680 0.353590 -0.575325
O7    O     O_R   0.493830 0.578310 0.341170 -0.622785
O8    O     O_R   0.324190 0.406210 0.506210 -0.585327
O9    O     O_R   0.309340 0.593830 0.493790 -0.624366
O10   O     O_3   0.201682 0.249967 0.410186 -0.782640
Zn1   Zn    Zn3+2 0.509910 0.374720 0.508290 0.984960
Zn2   Zn    Zn3+2 0.490090 0.625280 0.491710 0.936280

loop_
_geom_bond_atom_site_label_1
_geom_bond_atom_site_label_2
_ccdc_geom_bond_type
C2    C35   A    
C8    O2    S    
H15   O10   S    
C11   H26   S    
C29   H13   S    
O4    Zn1   S    
C30   H18   S    
C12   C23   A    
C28   H10   S    
C29   H11   S    
C25   O10   S    
C10   C15   A    
O7    Zn2   S    
C18   N1    A    
O5    Zn2   S    
C18   C19   A    
C32   H3    S    
C24   C29   S    
C16   C34   S    
C21   H2    S    
C8    C9    A    
C1    O1    A    
C17   H22   S    
C7    C30   S    
C22   C28   S    
C13   C14   A    
C16   O7    A    
O8    Zn1   S    
C4    O5    A    
C29   H14   S    
C30   H17   S    
C28   H9    S    
C36   H4    S    
C16   O6    A    
C24   C25   A    
C11   N2    A    
C4    O4    A    
C4    C23   S    
C25   C26   A    
C12   C21   A    
C28   H8    S    
C31   H1    S    
C12   C26   A    
C23   C31   A    
C10   H24   S    
C5    C9    A    
C27   H5    S    
C26   C33   A    
C31   C32   A    
C3    C35   A    
N2    Zn2   S    
C8    C34   A    
C20   C33   S    
C3    H21   S    
C7    C34   A    
C22   C24   A    
H19   O2    S    
C1    C35   S    
C2    C36   A    
C15   C17   A    
C30   H16   S    
C14   C19   A    
C13   C27   S    
C3    C5    A    
C6    C7    A    
O1    Zn1   S    
C32   C33   A    
C2    H20   S    
C17   N1    A    
C27   H6    S    
C5    C6    A    
C13   N2    A    
N1    Zn1   S    
C19   H25   S    
C1    O3    A    
C6    C36   A    
C20   O9    A    
C10   C11   A    
C27   H7    S    
C18   H23   S    
O9    Zn2   S    
C9    H12   S    
O6    Zn1   S    
C14   C15   A    
C20   O8    A    
O3    Zn2   S    
C21   C22   A    
