data_mof_unit_66415.cif
_audit_creation_date              2012-12-10T20:30:41-0500
_audit_creation_method            fapswitch 2.2
_symmetry_space_group_name_H-M    P1
_symmetry_Int_Tables_number       1
_space_group_crystal_system       triclinic
_cell_length_a                    25.899202
_cell_length_b                    39.756324
_cell_length_c                    39.746877
_cell_angle_alpha                 89.997226
_cell_angle_beta                  90.00113
_cell_angle_gamma                 89.997586
_cell_volume                      40925.6526644

loop_
_atom_site_label
_atom_site_type_symbol
_atom_type_description
_atom_site_fract_x
_atom_site_fract_y
_atom_site_fract_z
_atom_type_partial_charge
C1    C     C_R   0.390050 0.750070 0.000099 0.889787
C2    C     C_R   0.109964 0.249888 0.500129 0.890400
C3    C     C_R   0.526874 0.282385 0.587735 -0.122414
C4    C     C_R   0.026821 0.217673 0.587773 -0.122227
C5    C     C_R   0.973156 0.786615 0.585985 -0.126052
C6    C     C_R   0.973142 0.217642 0.587750 -0.127047
C7    C     C_R   0.026849 0.786616 0.585984 -0.121736
C8    C     C_R   0.472706 0.737622 0.529528 0.046671
C9    C     C_R   0.527298 0.261006 0.530108 0.044659
C10   C     C_R   0.527302 0.737624 0.529529 0.045282
C11   C     C_R   0.472706 0.260994 0.530125 0.047263
C12   C     C_R   0.972710 0.239001 0.530113 0.046902
C13   C     C_R   0.109959 0.750064 0.500093 0.894107
C14   C     C_R   0.027299 0.762431 0.529494 0.045537
C15   C     C_R   0.027302 0.239017 0.530130 0.044929
C16   C     C_R   0.972703 0.762430 0.529495 0.046760
C17   C     C_R   0.972704 0.738950 0.030096 0.047186
C18   C     C_R   0.027298 0.261007 0.030108 0.044705
C19   C     C_R   0.027296 0.738938 0.030080 0.046817
C20   C     C_R   0.972706 0.260995 0.030125 0.047301
C21   C     C_R   0.472710 0.238996 0.030111 0.046945
C22   C     C_R   0.527297 0.761039 0.030100 0.047149
C23   C     C_R   0.527302 0.239012 0.030128 0.044972
C24   C     C_R   0.890050 0.249922 0.500103 0.882114
C25   C     C_R   0.472706 0.761051 0.030084 0.046866
C26   C     C_R   0.053888 0.749329 0.000786 -0.240266
C27   C     C_R   0.946078 0.250754 0.000789 -0.235196
C28   C     C_R   0.946076 0.749261 0.000785 -0.234494
C29   C     C_R   0.053890 0.250684 0.000790 -0.240725
C30   C     C_R   0.553926 0.249251 0.000790 -0.235106
C31   C     C_R   0.446112 0.750671 0.000787 -0.240109
C32   C     C_R   0.446114 0.249311 0.000789 -0.240770
C33   C     C_R   0.553923 0.750741 0.000785 -0.234588
C34   C     C_R   0.553910 0.749364 0.500766 -0.239532
C35   C     C_R   0.390038 0.250115 0.500130 0.880421
C36   C     C_R   0.446078 0.250753 0.500789 -0.235088
C37   C     C_R   0.446094 0.749357 0.500764 -0.239574
C38   C     C_R   0.553890 0.250684 0.500789 -0.240620
C39   C     C_R   0.053926 0.249251 0.500790 -0.234997
C40   C     C_R   0.946092 0.750624 0.500761 -0.238197
C41   C     C_R   0.946114 0.249311 0.500789 -0.240684
C42   C     C_R   0.053908 0.750627 0.500759 -0.238666
C43   C     C_R   0.026865 0.759389 0.971838 0.338897
C44   C     C_R   0.973037 0.240890 0.971752 0.322332
C45   C     C_R   0.973032 0.759216 0.971779 0.327884
C46   C     C_R   0.609960 0.749932 0.500097 0.891465
C47   C     C_R   0.026867 0.240709 0.971812 0.339162
C48   C     C_R   0.526967 0.259112 0.971752 0.328374
C49   C     C_R   0.473133 0.740624 0.971834 0.339009
C50   C     C_R   0.473136 0.259276 0.971807 0.333369
C51   C     C_R   0.526965 0.740798 0.971775 0.327877
C52   C     C_R   0.526922 0.760934 0.472388 0.335845
C53   C     C_R   0.473037 0.240891 0.471751 0.322238
C54   C     C_R   0.473081 0.760924 0.472384 0.328850
C55   C     C_R   0.526868 0.240710 0.471812 0.339145
C56   C     C_R   0.026966 0.259106 0.471750 0.328314
C57   C     C_R   0.609951 0.250074 0.500101 0.892031
C58   C     C_R   0.973078 0.738970 0.472418 0.335703
C59   C     C_R   0.973136 0.259270 0.471805 0.333344
C60   C     C_R   0.026921 0.738972 0.472416 0.335186
C61   C     C_R   0.249594 0.841033 0.999767 0.834707
C62   C     C_R   0.749620 0.158971 0.000279 0.848437
C63   C     C_R   0.750485 0.841033 0.999711 0.845566
C64   C     C_R   0.249595 0.158967 0.999768 0.834684
C65   C     C_R   0.749581 0.341033 0.999756 0.845981
C66   C     C_R   0.250469 0.658969 0.999726 0.834233
C67   C     C_R   0.249597 0.341033 0.000298 0.835771
C68   C     C_R   0.390041 0.749929 0.500098 0.884138
C69   C     C_R   0.749580 0.658967 0.999756 0.846100
C70   C     C_R   0.749594 0.841032 0.499767 0.835379
C71   C     C_R   0.249680 0.158970 0.500241 0.848309
C72   C     C_R   0.249667 0.841037 0.500252 0.836461
C73   C     C_R   0.749594 0.158967 0.499768 0.834678
C74   C     C_R   0.249582 0.341034 0.499757 0.845918
C75   C     C_R   0.750470 0.658971 0.499724 0.834807
C76   C     C_R   0.749597 0.341034 0.500299 0.835718
C77   C     C_R   0.249591 0.658968 0.499764 0.835084
C78   C     C_R   0.264709 0.432350 0.027265 -0.184884
C79   C     C_1   0.249967 0.749990 0.234701 -0.048887
C80   C     C_R   0.708949 0.567565 0.010005 -0.183825
C81   C     C_R   0.708953 0.432437 0.010008 -0.184289
C82   C     C_R   0.292104 0.567663 0.009137 -0.184195
C83   C     C_R   0.792216 0.932333 0.009084 -0.182308
C84   C     C_R   0.209004 0.067563 0.010042 -0.185749
C85   C     C_R   0.208980 0.932436 0.010004 -0.185346
C86   C     C_R   0.764397 0.067637 0.027208 -0.184118
C87   C     C_R   0.764723 0.432350 0.527266 -0.184696
C88   C     C_R   0.208874 0.567575 0.509872 -0.185318
C89   C     C_R   0.208988 0.432439 0.510064 -0.184692
C90   C     C_1   0.749911 0.249887 0.234650 -0.046825
C91   C     C_R   0.792172 0.567671 0.509047 -0.184225
C92   C     C_R   0.266172 0.932473 0.526438 -0.183161
C93   C     C_R   0.708998 0.067564 0.510038 -0.186168
C94   C     C_R   0.708952 0.932432 0.509963 -0.186291
C95   C     C_R   0.265617 0.067554 0.526562 -0.181819
C96   C     C_R   0.265926 0.397226 0.028560 0.388503
C97   C     C_R   0.706569 0.602682 0.010457 0.392099
C98   C     C_R   0.706574 0.397320 0.010461 0.392081
C99   C     C_R   0.294099 0.602787 0.009913 0.389551
C100  C     C_R   0.794140 0.897208 0.009940 0.391646
C101  C     C_1   0.750030 0.749987 0.234702 -0.048849
C102  C     C_R   0.206584 0.102681 0.010430 0.390117
C103  C     C_R   0.206562 0.897318 0.010392 0.390072
C104  C     C_R   0.765527 0.102760 0.028565 0.387661
C105  C     C_R   0.765934 0.397226 0.528561 0.388462
C106  C     C_R   0.206484 0.602693 0.510287 0.390197
C107  C     C_R   0.206591 0.397321 0.510484 0.391986
C108  C     C_R   0.794159 0.602796 0.509820 0.389782
C109  C     C_R   0.266755 0.897356 0.528055 0.388574
C110  C     C_R   0.706579 0.102681 0.510425 0.390162
C111  C     C_R   0.706535 0.897315 0.510347 0.390422
C112  C     C_R   0.609964 0.249888 0.000129 0.890314
C113  C     C_1   0.249997 0.250005 0.234879 -0.044537
C114  C     C_R   0.266195 0.102669 0.528173 0.387421
C115  C     C_R   0.248928 0.378220 0.000498 -0.104642
C116  C     C_R   0.749628 0.621781 0.999550 -0.104788
C117  C     C_R   0.749630 0.378219 0.999551 -0.104280
C118  C     C_R   0.250765 0.621788 0.999287 -0.106251
C119  C     C_R   0.750858 0.878218 0.999203 -0.104809
C120  C     C_R   0.249694 0.121782 0.999616 -0.105936
C121  C     C_R   0.249693 0.878217 0.999614 -0.106381
C122  C     C_R   0.749050 0.121793 0.000396 -0.113144
C123  C     C_R   0.748930 0.378221 0.500499 -0.104656
C124  C     C_1   0.750006 0.750003 0.734881 -0.045651
C125  C     C_R   0.249670 0.621786 0.499594 -0.106303
C126  C     C_R   0.249644 0.378220 0.499568 -0.104135
C127  C     C_R   0.750770 0.621791 0.499283 -0.106188
C128  C     C_R   0.249473 0.878228 0.500156 -0.104811
C129  C     C_R   0.749693 0.121781 0.499616 -0.105888
C130  C     C_R   0.749694 0.878216 0.499613 -0.105821
C131  C     C_R   0.249518 0.121792 0.500120 -0.113358
C132  C     C_R   0.230399 0.395282 0.971908 -0.226487
C133  C     C_R   0.793923 0.604815 0.987994 -0.221970
C134  C     C_R   0.793923 0.395184 0.987993 -0.221374
C135  C     C_1   0.249914 0.249889 0.734650 -0.046236
C136  C     C_R   0.206603 0.604730 0.987666 -0.236306
C137  C     C_R   0.706837 0.895294 0.987374 -0.221360
C138  C     C_R   0.294095 0.104819 0.988232 -0.235544
C139  C     C_R   0.294115 0.895177 0.988265 -0.236175
C140  C     C_R   0.731160 0.104774 0.971611 -0.206662
C141  C     C_R   0.730401 0.395285 0.471910 -0.226609
C142  C     C_R   0.294121 0.604820 0.488300 -0.236358
C143  C     C_R   0.293950 0.395186 0.488034 -0.221601
C144  C     C_R   0.706558 0.604730 0.487749 -0.236463
C145  C     C_R   0.231355 0.895172 0.471379 -0.225787
C146  C     C_1   0.249920 0.750108 0.734654 -0.045830
C147  C     C_R   0.794098 0.104818 0.488240 -0.235590
C148  C     C_R   0.794141 0.895176 0.488309 -0.236183
C149  C     C_R   0.232037 0.104862 0.471172 -0.206007
C150  C     C_R   0.229370 0.430349 0.970939 -0.146095
C151  C     C_R   0.795801 0.569748 0.987657 -0.144574
C152  C     C_R   0.795802 0.430251 0.987656 -0.144199
C153  C     C_R   0.205109 0.569664 0.987008 -0.149911
C154  C     C_R   0.705415 0.930362 0.986637 -0.145175
C155  C     C_R   0.296016 0.069751 0.987960 -0.148562
C156  C     C_R   0.296035 0.930245 0.987993 -0.148912
C157  C     C_1   0.749992 0.250010 0.734878 -0.043799
C158  C     C_R   0.730215 0.069707 0.970578 -0.142079
C159  C     C_R   0.729379 0.430352 0.470942 -0.146402
C160  C     C_R   0.296013 0.569752 0.488000 -0.148466
C161  C     C_R   0.295847 0.430254 0.487730 -0.145159
C162  C     C_R   0.705070 0.569663 0.487093 -0.149870
C163  C     C_R   0.230957 0.930238 0.470088 -0.146173
C164  C     C_R   0.796017 0.069750 0.487969 -0.148338
C165  C     C_R   0.796059 0.930245 0.488039 -0.148339
C166  C     C_R   0.231640 0.069795 0.469886 -0.144839
C167  C     C_R   0.246623 0.448861 0.998578 0.073680
C168  C     C_R   0.284240 0.729236 0.181113 -0.153115
C169  C     C_R   0.753373 0.551146 0.998732 0.074344
C170  C     C_R   0.753375 0.448854 0.998733 0.074338
C171  C     C_R   0.247800 0.551152 0.997807 0.074691
C172  C     C_R   0.748043 0.948860 0.997561 0.073219
C173  C     C_R   0.253525 0.051147 0.998929 0.075641
C174  C     C_R   0.253522 0.948851 0.998927 0.075646
C175  C     C_R   0.746917 0.051159 0.998342 0.069405
C176  C     C_R   0.746639 0.448862 0.498580 0.073679
C177  C     C_R   0.253443 0.551153 0.498850 0.075588
C178  C     C_R   0.253425 0.448857 0.498816 0.074620
C179  C     C_R   0.715967 0.270879 0.181084 -0.152896
C180  C     C_R   0.747818 0.551156 0.497806 0.074748
C181  C     C_R   0.248465 0.948866 0.497580 0.074143
C182  C     C_R   0.753522 0.051146 0.498933 0.075714
C183  C     C_R   0.753519 0.948849 0.498931 0.075804
C184  C     C_R   0.248515 0.051164 0.497550 0.070816
C185  C     C_1   0.246086 0.484892 0.997671 -0.012233
C186  C     C_1   0.754885 0.515116 0.998389 -0.009624
C187  C     C_1   0.754886 0.484885 0.998389 -0.009652
C188  C     C_1   0.246403 0.515121 0.997466 -0.012682
C189  C     C_1   0.746690 0.984895 0.997189 -0.009089
C190  C     C_R   0.715759 0.729236 0.181111 -0.153783
C191  C     C_1   0.255055 0.015115 0.998612 -0.012895
C192  C     C_1   0.255054 0.984883 0.998612 -0.012877
C193  C     C_1   0.746392 0.015126 0.997398 -0.008470
C194  C     C_1   0.746107 0.484895 0.497673 -0.012313
C195  C     C_1   0.254954 0.515120 0.498512 -0.012283
C196  C     C_1   0.254950 0.484889 0.498500 -0.010803
C197  C     C_1   0.746425 0.515124 0.497467 -0.012721
C198  C     C_1   0.247990 0.984899 0.496550 -0.010777
C199  C     C_1   0.755051 0.015114 0.498617 -0.013029
C200  C     C_1   0.755049 0.984882 0.498617 -0.013068
C201  C     C_R   0.283700 0.271139 0.181209 -0.149728
C202  C     C_1   0.248006 0.015131 0.496538 -0.008971
C203  C     C_R   0.249999 0.750001 0.908957 0.920388
C204  C     C_R   0.750002 0.249998 0.909044 0.941834
C205  C     C_R   0.749999 0.750000 0.909044 0.943788
C206  C     C_R   0.249998 0.250000 0.908955 0.916900
C207  C     C_R   0.750002 0.749999 0.408975 0.922166
C208  C     C_R   0.250003 0.249997 0.409044 0.941815
C209  C     C_R   0.249998 0.750000 0.408975 0.919377
C210  C     C_R   0.749998 0.250000 0.408955 0.916768
C211  C     C_R   0.250000 0.749999 0.091006 0.762512
C212  C     C_R   0.783845 0.228915 0.181072 -0.150956
C213  C     C_R   0.749988 0.249988 0.091000 0.770777
C214  C     C_R   0.750000 0.749999 0.091006 0.761094
C215  C     C_R   0.249990 0.250008 0.091027 0.771645
C216  C     C_R   0.750001 0.750000 0.591028 0.763031
C217  C     C_R   0.249988 0.249989 0.591000 0.770974
C218  C     C_R   0.249988 0.750010 0.591000 0.772037
C219  C     C_R   0.749990 0.250008 0.591027 0.771861
C220  C     C_R   0.296144 0.745572 0.318471 -0.188781
C221  C     C_R   0.704081 0.255489 0.318399 -0.189965
C222  C     C_R   0.703848 0.745591 0.318472 -0.188666
C223  C     C_R   0.609962 0.750109 0.000125 0.888208
C224  C     C_R   0.215719 0.770748 0.181106 -0.153937
C225  C     C_R   0.251011 0.280408 0.318758 -0.175913
C226  C     C_R   0.795822 0.244398 0.318388 -0.189251
C227  C     C_R   0.203803 0.754415 0.318479 -0.189244
C228  C     C_R   0.249009 0.219562 0.318766 -0.176528
C229  C     C_R   0.796198 0.754386 0.318480 -0.188363
C230  C     C_R   0.750902 0.719579 0.818765 -0.176302
C231  C     C_R   0.204080 0.255484 0.818399 -0.189437
C232  C     C_R   0.204064 0.744597 0.818404 -0.188244
C233  C     C_R   0.751007 0.280411 0.818759 -0.175508
C234  C     C_R   0.295826 0.244407 0.818388 -0.188731
C235  C     C_R   0.216237 0.228920 0.181211 -0.151511
C236  C     C_R   0.749100 0.780427 0.818763 -0.176224
C237  C     C_R   0.749004 0.219566 0.818765 -0.175646
C238  C     C_R   0.295853 0.755519 0.818395 -0.188150
C239  C     C_R   0.296594 0.745545 0.353609 0.350870
C240  C     C_R   0.703642 0.255559 0.353532 0.352613
C241  C     C_R   0.703399 0.745565 0.353610 0.351803
C242  C     C_R   0.251008 0.280660 0.353914 0.354987
C243  C     C_R   0.796300 0.244390 0.353521 0.352551
C244  C     C_R   0.203370 0.754444 0.353617 0.351276
C245  C     C_R   0.249003 0.219315 0.353925 0.357242
C246  C     C_R   0.784279 0.770745 0.181108 -0.153541
C247  C     C_R   0.796632 0.754417 0.353619 0.351961
C248  C     C_R   0.750901 0.719329 0.853922 0.355613
C249  C     C_R   0.203641 0.255553 0.853532 0.352778
C250  C     C_R   0.203624 0.744530 0.853538 0.353666
C251  C     C_R   0.751006 0.280662 0.853915 0.355158
C252  C     C_R   0.296303 0.244398 0.853521 0.352695
C253  C     C_R   0.749097 0.780675 0.853920 0.355705
C254  C     C_R   0.748998 0.219318 0.853923 0.357294
C255  C     C_R   0.296328 0.755528 0.853528 0.353715
C256  C     C_R   0.249988 0.749997 0.371749 -0.229341
C257  C     C_R   0.783950 0.729036 0.681215 -0.151322
C258  C     C_R   0.749981 0.249987 0.371696 -0.229991
C259  C     C_R   0.750011 0.749994 0.371750 -0.229290
C260  C     C_R   0.250007 0.249991 0.371937 -0.198873
C261  C     C_R   0.749998 0.750002 0.871938 -0.201888
C262  C     C_R   0.249982 0.249988 0.871696 -0.230097
C263  C     C_R   0.249984 0.750016 0.871700 -0.229973
C264  C     C_R   0.750005 0.249992 0.871937 -0.199429
C265  C     C_R   0.249969 0.749993 0.300982 0.002951
C266  C     C_R   0.749941 0.249926 0.300910 0.003234
C267  C     C_R   0.750027 0.749988 0.300983 0.002946
C268  C     C_R   0.215963 0.270877 0.681084 -0.152597
C269  C     C_R   0.250013 0.249984 0.301233 0.002792
C270  C     C_R   0.750003 0.750003 0.801235 0.003033
C271  C     C_R   0.249943 0.249928 0.800911 0.003071
C272  C     C_R   0.249949 0.750075 0.800916 0.002968
C273  C     C_R   0.750008 0.249989 0.801233 0.002316
C274  C     C_1   0.249964 0.749991 0.264934 0.024447
C275  C     C_1   0.749922 0.249900 0.264874 0.025072
C276  C     C_1   0.750031 0.749987 0.264935 0.024653
C277  C     C_1   0.250007 0.249990 0.265139 0.027550
C278  C     C_1   0.750005 0.750004 0.765142 0.027911
C279  C     C_R   0.216082 0.729043 0.681090 -0.152074
C280  C     C_1   0.249925 0.249902 0.764875 0.025670
C281  C     C_1   0.249932 0.750098 0.764879 0.026184
C282  C     C_1   0.750002 0.249995 0.765139 0.028308
C283  C     C_R   0.783697 0.271142 0.681208 -0.149290
C284  C     C_R   0.283854 0.228922 0.681072 -0.150242
C285  C     C_R   0.716060 0.770967 0.681212 -0.151557
C286  C     C_R   0.716233 0.228923 0.681212 -0.150820
C287  C     C_R   0.390050 0.249922 0.000103 0.882047
C288  C     C_R   0.283743 0.771150 0.681072 -0.150123
C289  C     C_R   0.284285 0.729207 0.145998 -0.184956
C290  C     C_R   0.715952 0.270939 0.145975 -0.186022
C291  C     C_R   0.715715 0.729208 0.145996 -0.185404
C292  C     C_R   0.283735 0.271169 0.146075 -0.168189
C293  C     C_R   0.783903 0.228912 0.145962 -0.168500
C294  C     C_R   0.215693 0.770783 0.145991 -0.185122
C295  C     C_R   0.216192 0.228894 0.146079 -0.185401
C296  C     C_R   0.784306 0.770781 0.145993 -0.185238
C297  C     C_R   0.783987 0.729007 0.646082 -0.183596
C298  C     C_R   0.890038 0.250115 0.000130 0.880458
C299  C     C_R   0.215947 0.270936 0.645975 -0.185788
C300  C     C_R   0.216064 0.728985 0.645980 -0.184880
C301  C     C_R   0.783733 0.271171 0.646075 -0.167953
C302  C     C_R   0.283912 0.228919 0.645962 -0.168228
C303  C     C_R   0.716020 0.770994 0.646079 -0.183778
C304  C     C_R   0.716190 0.228897 0.646079 -0.184975
C305  C     C_R   0.283799 0.771154 0.645962 -0.167755
C306  C     C_R   0.249994 0.749997 0.128098 -0.011882
C307  C     C_R   0.749950 0.249949 0.128079 -0.015420
C308  C     C_R   0.750006 0.749996 0.128098 -0.011271
C309  C     C_R   0.109951 0.749930 0.000099 0.889987
C310  C     C_R   0.249971 0.250025 0.128158 -0.016832
C311  C     C_R   0.750003 0.750000 0.628161 -0.013016
C312  C     C_R   0.249951 0.249950 0.628079 -0.015586
C313  C     C_R   0.249952 0.750047 0.628081 -0.016519
C314  C     C_R   0.749970 0.250026 0.628158 -0.017036
C315  C     C_R   0.249975 0.749991 0.198660 0.142492
C316  C     C_R   0.749901 0.249888 0.198621 0.140344
C317  C     C_R   0.750024 0.749989 0.198661 0.142537
C318  C     C_R   0.249978 0.250023 0.198790 0.138938
C319  C     C_R   0.750006 0.750002 0.698793 0.140717
C320  C     C_R   0.109951 0.250074 0.000101 0.892081
C321  C     C_R   0.249904 0.249891 0.698621 0.140103
C322  C     C_R   0.249909 0.750106 0.698624 0.139745
C323  C     C_R   0.749974 0.250027 0.698790 0.138640
C324  C     C_R   0.053858 0.727858 0.059170 -0.120235
C325  C     C_R   0.946177 0.271979 0.059263 -0.121923
C326  C     C_R   0.946175 0.727903 0.059211 -0.121164
C327  C     C_R   0.053860 0.272026 0.059220 -0.116949
C328  C     C_R   0.553835 0.228033 0.059269 -0.117721
C329  C     C_R   0.446145 0.772120 0.059178 -0.120236
C330  C     C_R   0.446153 0.227981 0.059228 -0.120913
C331  C     C_R   0.890037 0.749891 0.000125 0.888112
C332  C     C_R   0.553829 0.772075 0.059218 -0.121036
C333  C     C_R   0.553863 0.725301 0.558103 -0.121415
C334  C     C_R   0.446177 0.271977 0.559264 -0.121945
C335  C     C_R   0.446148 0.725297 0.558102 -0.121825
C336  C     C_R   0.553860 0.272025 0.559221 -0.116948
C337  C     C_R   0.053835 0.228044 0.559273 -0.117645
C338  C     C_R   0.946144 0.774816 0.558040 -0.120762
C339  C     C_R   0.946153 0.227991 0.559232 -0.120892
C340  C     C_R   0.053860 0.774817 0.558039 -0.117125
C341  C     C_R   0.026873 0.717433 0.087662 -0.126437
C342  C     C_R   0.890041 0.750063 0.500094 0.891619
C343  C     C_R   0.973195 0.282359 0.087758 -0.127850
C344  C     C_R   0.973193 0.717461 0.087684 -0.126689
C345  C     C_R   0.026874 0.282388 0.087734 -0.122627
C346  C     C_R   0.526822 0.217657 0.087766 -0.122827
C347  C     C_R   0.473132 0.782533 0.087672 -0.126690
C348  C     C_R   0.473142 0.217626 0.087744 -0.127597
C349  C     C_R   0.526812 0.782506 0.087694 -0.126635
C350  C     C_R   0.526854 0.713564 0.586075 -0.125629
C351  C     C_R   0.473195 0.282356 0.587759 -0.127666
C352  C     C_R   0.473161 0.713562 0.586075 -0.126781
Cl1   Cl    Cl    0.357039 0.741282 0.373515 -0.474973
Cl2   Cl    Cl    0.143414 0.261342 0.873325 -0.476550
Cl3   Cl    Cl    0.143379 0.738846 0.873338 -0.475611
Cl4   Cl    Cl    0.749878 0.320056 0.874267 -0.533419
Cl5   Cl    Cl    0.356553 0.238648 0.873298 -0.476107
Cl6   Cl    Cl    0.750339 0.820062 0.874282 -0.534944
Cl7   Cl    Cl    0.750091 0.179926 0.874290 -0.558610
Cl8   Cl    Cl    0.356592 0.761174 0.873314 -0.475421
Cl9   Cl    Cl    0.060492 0.773789 0.935842 -0.417283
Cl10  Cl    Cl    0.939287 0.227419 0.935393 -0.470216
Cl11  Cl    Cl    0.939273 0.772812 0.935469 -0.457625
Cl12  Cl    Cl    0.643417 0.261358 0.373324 -0.477253
Cl13  Cl    Cl    0.060492 0.226401 0.935779 -0.420384
Cl14  Cl    Cl    0.560717 0.272607 0.935401 -0.460852
Cl15  Cl    Cl    0.439504 0.726239 0.935833 -0.417986
Cl16  Cl    Cl    0.439511 0.273544 0.935755 -0.431611
Cl17  Cl    Cl    0.560721 0.727218 0.935460 -0.457863
Cl18  Cl    Cl    0.560651 0.776899 0.437096 -0.417990
Cl19  Cl    Cl    0.439287 0.227421 0.435392 -0.471427
Cl20  Cl    Cl    0.439353 0.776852 0.437074 -0.429883
Cl21  Cl    Cl    0.560492 0.226404 0.435777 -0.421374
Cl22  Cl    Cl    0.060717 0.272596 0.435397 -0.461415
Cl23  Cl    Cl    0.642952 0.741334 0.373518 -0.473912
Cl24  Cl    Cl    0.939343 0.722922 0.437167 -0.414346
Cl25  Cl    Cl    0.939512 0.273532 0.435751 -0.431980
Cl26  Cl    Cl    0.060656 0.722930 0.437163 -0.413985
Cl27  Cl    Cl    0.286899 0.378689 0.066471 -0.570465
Cl28  Cl    Cl    0.647927 0.621090 0.023438 -0.523701
Cl29  Cl    Cl    0.647934 0.378914 0.023447 -0.532223
Cl30  Cl    Cl    0.352597 0.621345 0.022952 -0.527565
Cl31  Cl    Cl    0.852497 0.878639 0.023235 -0.523080
Cl32  Cl    Cl    0.147836 0.121090 0.023201 -0.536267
Cl33  Cl    Cl    0.147789 0.878907 0.023111 -0.527981
Cl34  Cl    Cl    0.249878 0.320055 0.374264 -0.534890
Cl35  Cl    Cl    0.785675 0.121282 0.066669 -0.571596
Cl36  Cl    Cl    0.786906 0.378687 0.566472 -0.569964
Cl37  Cl    Cl    0.147680 0.621123 0.522922 -0.527320
Cl38  Cl    Cl    0.147934 0.378916 0.523437 -0.532513
Cl39  Cl    Cl    0.852714 0.621368 0.522730 -0.526550
Cl40  Cl    Cl    0.287258 0.878994 0.566160 -0.568919
Cl41  Cl    Cl    0.647825 0.121092 0.523185 -0.536698
Cl42  Cl    Cl    0.647734 0.878897 0.523002 -0.535492
Cl43  Cl    Cl    0.285859 0.121059 0.566448 -0.569541
Cl44  Cl    Cl    0.856549 0.238630 0.373296 -0.476766
Cl45  Cl    Cl    0.142934 0.758699 0.373536 -0.475021
Cl46  Cl    Cl    0.250097 0.179923 0.374293 -0.561855
Cl47  Cl    Cl    0.857071 0.758642 0.373540 -0.473837
Cl48  Cl    Cl    0.749657 0.679941 0.874284 -0.534040
H1    H     H_    0.331990 0.742326 0.304768 0.188315
H2    H     H_    0.168442 0.259591 0.804693 0.188248
H3    H     H_    0.047724 0.290707 0.109824 0.144219
H4    H     H_    0.547650 0.209362 0.109876 0.144082
H5    H     H_    0.452284 0.790889 0.109749 0.140825
H6    H     H_    0.452295 0.209310 0.109837 0.141832
H7    H     H_    0.547639 0.790843 0.109787 0.140906
H8    H     H_    0.547692 0.704247 0.607769 0.141478
H9    H     H_    0.452369 0.290654 0.609866 0.141741
H10   H     H_    0.452326 0.704244 0.607768 0.141058
H11   H     H_    0.547724 0.290703 0.609826 0.144361
H12   H     H_    0.047650 0.209383 0.609884 0.144542
H13   H     H_    0.168410 0.740550 0.804699 0.188259
H14   H     H_    0.952320 0.795980 0.607657 0.142356
H15   H     H_    0.952295 0.209330 0.609845 0.142289
H16   H     H_    0.047686 0.795981 0.607656 0.144675
H17   H     H_    0.277669 0.446820 0.048786 0.179824
H18   H     H_    0.675880 0.553022 0.018256 0.181533
H19   H     H_    0.675885 0.446980 0.018262 0.181123
H20   H     H_    0.325340 0.553194 0.017235 0.183089
H21   H     H_    0.825405 0.946789 0.017281 0.183183
H22   H     H_    0.175889 0.053019 0.018212 0.181174
H23   H     H_    0.175848 0.946980 0.018146 0.181576
H24   H     H_    0.751480 0.304004 0.805091 0.188014
H25   H     H_    0.776933 0.053143 0.048821 0.179640
H26   H     H_    0.777688 0.446819 0.548786 0.179996
H27   H     H_    0.175700 0.553037 0.517949 0.181564
H28   H     H_    0.175922 0.446981 0.518322 0.181012
H29   H     H_    0.825451 0.553207 0.517076 0.183054
H30   H     H_    0.279236 0.947035 0.547870 0.179869
H31   H     H_    0.675878 0.053021 0.518203 0.180863
H32   H     H_    0.675799 0.946975 0.518071 0.180830
H33   H     H_    0.278198 0.052992 0.548119 0.179943
H34   H     H_    0.331450 0.240279 0.804674 0.188275
H35   H     H_    0.748704 0.804022 0.805097 0.187008
H36   H     H_    0.748525 0.195973 0.805101 0.186752
H37   H     H_    0.331494 0.759586 0.804681 0.188245
H38   H     H_    0.217120 0.381474 0.950066 0.189369
H39   H     H_    0.827453 0.618702 0.979484 0.184830
H40   H     H_    0.827452 0.381296 0.979482 0.185496
H41   H     H_    0.668444 0.259603 0.304693 0.188077
H42   H     H_    0.172876 0.618543 0.979365 0.184360
H43   H     H_    0.673157 0.881497 0.978970 0.184926
H44   H     H_    0.327671 0.118712 0.979810 0.185052
H45   H     H_    0.327708 0.881284 0.979871 0.184354
H46   H     H_    0.718328 0.118620 0.949675 0.208722
H47   H     H_    0.717118 0.381478 0.450068 0.189288
H48   H     H_    0.327754 0.618710 0.479970 0.184318
H49   H     H_    0.327477 0.381298 0.479519 0.185379
H50   H     H_    0.672789 0.618541 0.479517 0.184225
H51   H     H_    0.217896 0.881266 0.449646 0.188997
H52   H     H_    0.667997 0.742363 0.304769 0.188228
H53   H     H_    0.827678 0.118710 0.479822 0.185080
H54   H     H_    0.827754 0.881283 0.479949 0.184688
H55   H     H_    0.219086 0.118783 0.449314 0.208516
H56   H     H_    0.215259 0.443006 0.948614 0.158987
H57   H     H_    0.830334 0.557165 0.978800 0.155404
H58   H     H_    0.830334 0.442833 0.978798 0.155809
H59   H     H_    0.170629 0.557007 0.978168 0.155364
H60   H     H_    0.671035 0.943030 0.977647 0.156144
H61   H     H_    0.330625 0.057170 0.979228 0.155153
H62   H     H_    0.330661 0.942826 0.979290 0.154753
H63   H     H_    0.251483 0.304000 0.305090 0.187726
H64   H     H_    0.716585 0.057078 0.948112 0.164993
H65   H     H_    0.715269 0.443010 0.448617 0.158813
H66   H     H_    0.330661 0.557166 0.479341 0.154821
H67   H     H_    0.330390 0.442836 0.478890 0.155350
H68   H     H_    0.670552 0.557003 0.478323 0.155233
H69   H     H_    0.217046 0.942801 0.447657 0.158037
H70   H     H_    0.830630 0.057168 0.479243 0.155317
H71   H     H_    0.830705 0.942826 0.479371 0.155205
H72   H     H_    0.218217 0.057234 0.447329 0.162090
H73   H     H_    0.310897 0.713096 0.194565 0.150549
H74   H     H_    0.831444 0.240264 0.304673 0.188111
H75   H     H_    0.689556 0.287186 0.194540 0.150176
H76   H     H_    0.689103 0.713096 0.194561 0.150248
H77   H     H_    0.309953 0.287563 0.194650 0.153719
H78   H     H_    0.810242 0.212590 0.194518 0.152781
H79   H     H_    0.189056 0.786887 0.194552 0.150041
H80   H     H_    0.189986 0.212495 0.194654 0.151159
H81   H     H_    0.810941 0.786883 0.194555 0.150365
H82   H     H_    0.810370 0.712725 0.694658 0.151718
H83   H     H_    0.189547 0.287179 0.694540 0.150316
H84   H     H_    0.189757 0.712680 0.694547 0.150609
H85   H     H_    0.167949 0.757658 0.304782 0.188349
H86   H     H_    0.809950 0.287567 0.694649 0.153942
H87   H     H_    0.310257 0.212601 0.694518 0.153160
H88   H     H_    0.689641 0.787279 0.694653 0.151631
H89   H     H_    0.689982 0.212499 0.694654 0.151577
H90   H     H_    0.310056 0.787532 0.694516 0.153264
H91   H     H_    0.311161 0.712958 0.132902 0.176818
H92   H     H_    0.689346 0.287379 0.132882 0.176768
H93   H     H_    0.688841 0.712960 0.132899 0.176641
H94   H     H_    0.310183 0.287711 0.132976 0.185454
H95   H     H_    0.810516 0.212486 0.132858 0.185322
H96   H     H_    0.248532 0.195968 0.305103 0.186128
H97   H     H_    0.188824 0.787034 0.132890 0.176636
H98   H     H_    0.189732 0.212359 0.132983 0.176791
H99   H     H_    0.811174 0.787032 0.132893 0.176720
H100  H     H_    0.810614 0.712585 0.632986 0.177078
H101  H     H_    0.189335 0.287372 0.632882 0.176816
H102  H     H_    0.189545 0.712486 0.632888 0.177264
H103  H     H_    0.810182 0.287712 0.632975 0.185522
H104  H     H_    0.310530 0.212496 0.632858 0.185377
H105  H     H_    0.689392 0.787415 0.632981 0.176876
H106  H     H_    0.689730 0.212361 0.632984 0.176982
H107  H     H_    0.832055 0.757610 0.304784 0.188294
H108  H     H_    0.310324 0.787639 0.632856 0.185708
H109  H     H_    0.095560 0.726823 0.060161 0.118258
H110  H     H_    0.904476 0.272995 0.060282 0.119154
H111  H     H_    0.904473 0.726891 0.060227 0.117898
H112  H     H_    0.095561 0.273066 0.060211 0.121946
H113  H     H_    0.595536 0.227018 0.060288 0.121817
H114  H     H_    0.404444 0.773155 0.060168 0.118135
H115  H     H_    0.404452 0.226938 0.060219 0.119522
H116  H     H_    0.595530 0.773089 0.060234 0.117974
H117  H     H_    0.595581 0.724368 0.559070 0.115751
H118  H     H_    0.751300 0.695985 0.805100 0.187094
H119  H     H_    0.404476 0.272994 0.560283 0.119199
H120  H     H_    0.404431 0.724360 0.559067 0.116203
H121  H     H_    0.595561 0.273065 0.560212 0.121972
H122  H     H_    0.095536 0.227028 0.560292 0.121966
H123  H     H_    0.904425 0.775747 0.559005 0.115603
H124  H     H_    0.904452 0.226948 0.560223 0.119663
H125  H     H_    0.095578 0.775750 0.559003 0.118882
H126  H     H_    0.047723 0.709069 0.109736 0.141128
H127  H     H_    0.952370 0.290658 0.109865 0.141614
H128  H     H_    0.952368 0.709116 0.109774 0.140956
O1    O     O_3   0.250000 0.750000 0.000000 -0.522525
O2    O     O_R   0.634210 0.269630 0.019620 -0.620508
O3    O     O_R   0.865790 0.230390 0.480380 -0.600375
O4    O     O_R   0.365790 0.269610 0.480380 -0.612876
O5    O     O_R   0.634210 0.730390 0.480380 -0.604940
O6    O     O_R   0.634210 0.269610 0.480380 -0.599787
O7    O     O_R   0.365790 0.730390 0.480380 -0.602274
O8    O     O_R   0.634210 0.730370 0.019620 -0.618470
O9    O     O_R   0.365790 0.269630 0.019620 -0.635342
O10   O     O_R   0.865790 0.230370 0.019620 -0.633540
O11   O     O_R   0.134210 0.769630 0.019620 -0.620332
O12   O     O_R   0.134210 0.230370 0.019620 -0.622290
O13   O     O_R   0.865790 0.769630 0.019620 -0.618318
O14   O     O_R   0.865790 0.730370 0.519620 -0.619287
O15   O     O_R   0.134210 0.269630 0.519620 -0.620550
O16   O     O_R   0.134210 0.730370 0.519620 -0.619822
O17   O     O_3   0.750000 0.250000 0.000000 -0.525426
O18   O     O_R   0.865790 0.269630 0.519620 -0.635374
O19   O     O_R   0.365790 0.230370 0.519620 -0.633659
O20   O     O_R   0.634210 0.769630 0.519620 -0.620560
O21   O     O_R   0.634210 0.230370 0.519620 -0.622321
O22   O     O_R   0.365790 0.769630 0.519620 -0.634041
O23   O     O_R   0.280360 0.824820 0.980370 -0.650290
O24   O     O_R   0.719640 0.175180 0.980370 -0.640941
O25   O     O_R   0.719640 0.824820 0.980370 -0.635294
O26   O     O_R   0.280360 0.175180 0.980370 -0.649830
O27   O     O_R   0.780360 0.324820 0.980370 -0.634726
O28   O     O_3   0.750000 0.750000 0.000000 -0.524841
O29   O     O_R   0.219640 0.675180 0.980370 -0.650664
O30   O     O_R   0.219640 0.324820 0.980370 -0.654045
O31   O     O_R   0.780360 0.675180 0.980370 -0.635161
O32   O     O_R   0.780360 0.824820 0.480370 -0.650822
O33   O     O_R   0.219640 0.175180 0.480370 -0.640884
O34   O     O_R   0.219640 0.824820 0.480370 -0.654475
O35   O     O_R   0.780360 0.175180 0.480370 -0.649989
O36   O     O_R   0.280360 0.324820 0.480370 -0.634800
O37   O     O_R   0.719640 0.675180 0.480370 -0.650914
O38   O     O_R   0.719640 0.324820 0.480370 -0.654047
O39   O     O_3   0.250000 0.250000 0.000000 -0.523003
O40   O     O_R   0.280360 0.675180 0.480370 -0.650208
O41   O     O_R   0.280350 0.769620 0.925180 -0.587035
O42   O     O_R   0.719650 0.230380 0.925180 -0.588362
O43   O     O_R   0.719650 0.769620 0.925180 -0.586185
O44   O     O_R   0.280350 0.230380 0.925180 -0.586281
O45   O     O_R   0.780350 0.269620 0.925180 -0.586092
O46   O     O_R   0.219650 0.730380 0.925180 -0.587505
O47   O     O_R   0.219650 0.269620 0.925180 -0.591163
O48   O     O_R   0.780350 0.730380 0.925180 -0.586141
O49   O     O_R   0.780350 0.769620 0.425180 -0.588700
O50   O     O_3   0.750000 0.750000 0.500000 -0.522511
O51   O     O_R   0.219650 0.230380 0.425180 -0.588412
O52   O     O_R   0.219650 0.769620 0.425180 -0.592761
O53   O     O_R   0.780350 0.230380 0.425180 -0.586408
O54   O     O_R   0.280350 0.269620 0.425180 -0.586140
O55   O     O_R   0.719650 0.730380 0.425180 -0.588645
O56   O     O_R   0.719650 0.269620 0.425180 -0.591111
O57   O     O_R   0.280350 0.730380 0.425180 -0.587570
O58   O     O_R   0.280370 0.730380 0.074830 -0.646572
O59   O     O_R   0.719630 0.269620 0.074830 -0.649636
O60   O     O_R   0.719630 0.730380 0.074830 -0.647506
O61   O     O_3   0.250000 0.250000 0.500000 -0.525373
O62   O     O_R   0.280370 0.269620 0.074830 -0.632175
O63   O     O_R   0.780370 0.230380 0.074830 -0.633220
O64   O     O_R   0.219630 0.769620 0.074830 -0.646764
O65   O     O_R   0.219630 0.230380 0.074830 -0.648547
O66   O     O_R   0.780370 0.769620 0.074830 -0.647391
O67   O     O_R   0.780370 0.730380 0.574830 -0.646147
O68   O     O_R   0.219630 0.269620 0.574830 -0.649584
O69   O     O_R   0.219630 0.730380 0.574830 -0.648589
O70   O     O_R   0.780370 0.269620 0.574830 -0.632170
O71   O     O_R   0.280370 0.230380 0.574830 -0.633253
O72   O     O_3   0.250000 0.750000 0.500000 -0.523112
O73   O     O_R   0.719630 0.769620 0.574830 -0.646245
O74   O     O_R   0.719630 0.230380 0.574830 -0.648426
O75   O     O_R   0.280370 0.769620 0.574830 -0.632424
O76   O     O_R   0.219650 0.824830 0.019610 -0.583568
O77   O     O_R   0.780350 0.175170 0.019610 -0.577676
O78   O     O_R   0.780350 0.824830 0.019610 -0.587141
O79   O     O_R   0.219650 0.175170 0.019610 -0.583957
O80   O     O_R   0.719650 0.324830 0.019610 -0.587828
O81   O     O_R   0.280350 0.675170 0.019610 -0.583263
O82   O     O_R   0.280350 0.324830 0.019610 -0.576106
O83   O     O_3   0.750000 0.250000 0.500000 -0.523002
O84   O     O_R   0.719650 0.675170 0.019610 -0.587351
O85   O     O_R   0.719650 0.824830 0.519610 -0.583227
O86   O     O_R   0.280350 0.175170 0.519610 -0.577946
O87   O     O_R   0.280350 0.824830 0.519610 -0.576081
O88   O     O_R   0.719650 0.175170 0.519610 -0.583769
O89   O     O_R   0.219650 0.324830 0.519610 -0.587765
O90   O     O_R   0.780350 0.675170 0.519610 -0.583317
O91   O     O_R   0.780350 0.324830 0.519610 -0.576141
O92   O     O_R   0.219650 0.675170 0.519610 -0.584146
O93   O     O_R   0.365790 0.769610 0.980380 -0.604573
O94   O     O_R   0.365790 0.730370 0.019620 -0.620276
O95   O     O_R   0.634210 0.230390 0.980380 -0.612073
O96   O     O_R   0.634210 0.769610 0.980380 -0.616870
O97   O     O_R   0.365790 0.230390 0.980380 -0.600450
O98   O     O_R   0.865790 0.269610 0.980380 -0.612894
O99   O     O_R   0.134210 0.730390 0.980380 -0.604503
O100  O     O_R   0.134210 0.269610 0.980380 -0.599809
O101  O     O_R   0.865790 0.730390 0.980380 -0.617021
O102  O     O_R   0.865790 0.769610 0.480380 -0.605483
O103  O     O_R   0.134210 0.230390 0.480380 -0.611955
O104  O     O_R   0.134210 0.769610 0.480380 -0.601983
Zn1   Zn    Zn3+2 0.206630 0.778030 0.028030 1.021737
Zn2   Zn    Zn3+2 0.293370 0.221970 0.528030 1.027066
Zn3   Zn    Zn3+2 0.293370 0.778030 0.528030 1.026714
Zn4   Zn    Zn3+2 0.706630 0.221970 0.528030 1.024048
Zn5   Zn    Zn3+2 0.206630 0.278030 0.528030 1.024464
Zn6   Zn    Zn3+2 0.793370 0.721970 0.528030 1.023403
Zn7   Zn    Zn3+2 0.793370 0.278030 0.528030 1.025751
Zn8   Zn    Zn3+2 0.206630 0.721970 0.528030 1.025979
Zn9   Zn    Zn3+2 0.293370 0.778030 0.971970 1.057878
Zn10  Zn    Zn3+2 0.706630 0.221970 0.971970 1.066408
Zn11  Zn    Zn3+2 0.706630 0.778030 0.971970 1.067062
Zn12  Zn    Zn3+2 0.793370 0.221970 0.028030 1.027186
Zn13  Zn    Zn3+2 0.293370 0.221970 0.971970 1.055592
Zn14  Zn    Zn3+2 0.793370 0.278030 0.971970 1.064714
Zn15  Zn    Zn3+2 0.206630 0.721970 0.971970 1.057464
Zn16  Zn    Zn3+2 0.206630 0.278030 0.971970 1.056762
Zn17  Zn    Zn3+2 0.793370 0.721970 0.971970 1.067042
Zn18  Zn    Zn3+2 0.793370 0.778030 0.471970 1.057520
Zn19  Zn    Zn3+2 0.206630 0.221970 0.471970 1.066284
Zn20  Zn    Zn3+2 0.206630 0.778030 0.471970 1.056121
Zn21  Zn    Zn3+2 0.793370 0.221970 0.471970 1.055408
Zn22  Zn    Zn3+2 0.293370 0.278030 0.471970 1.064452
Zn23  Zn    Zn3+2 0.793370 0.778030 0.028030 1.022584
Zn24  Zn    Zn3+2 0.706630 0.721970 0.471970 1.057360
Zn25  Zn    Zn3+2 0.706630 0.278030 0.471970 1.056647
Zn26  Zn    Zn3+2 0.293370 0.721970 0.471970 1.054877
Zn27  Zn    Zn3+2 0.206630 0.221970 0.028030 1.023840
Zn28  Zn    Zn3+2 0.706630 0.278030 0.028030 1.024325
Zn29  Zn    Zn3+2 0.293370 0.721970 0.028030 1.021903
Zn30  Zn    Zn3+2 0.293370 0.278030 0.028030 1.025671
Zn31  Zn    Zn3+2 0.706630 0.721970 0.028030 1.022408
Zn32  Zn    Zn3+2 0.706630 0.778030 0.528030 1.022177

loop_
_geom_bond_atom_site_label_1
_geom_bond_atom_site_label_2
_ccdc_geom_bond_type
C215  O62   A    
O28   Zn17  S    
C208  C260  S    
C132  C150  A    
C133  C151  A    
C32   C287  S    
O87   Zn3   S    
C215  C310  S    
C58   Cl24  S    
C204  C264  S    
C70   O85   A    
C77   C125  S    
C88   C177  A    
C69   C116  S    
C60   Cl26  S    
C87   C176  A    
C103  Cl33  S    
C80   H18   S    
C78   C167  A    
C229  H107  S    
O1    Zn29  S    
C227  H85   S    
C219  C314  S    
C268  C299  A    
C147  C164  A    
C64   O26   A    
C293  C307  A    
C128  C145  A    
C147  H53   S    
C194  C197  T    
O50   Zn24  S    
C58   C60   A    
O39   Zn16  S    
C167  C185  S    
C37   C68   S    
C94   C111  A    
C74   O36   A    
C105  C123  A    
C114  C131  A    
C208  O51   A    
C346  H4    S    
C36   C53   A    
C96   Cl27  S    
C110  Cl41  S    
C38   C55   A    
C236  H35   S    
C78   C96   A    
O65   Zn27  S    
C170  C187  S    
C26   C43   A    
C154  H60   S    
C44   Cl10  S    
C236  C253  A    
O22   Zn3   S    
C85   C103  A    
C300  H102  S    
C93   C110  A    
C283  C301  A    
C48   C50   A    
C208  O54   A    
C199  C200  T    
O3    Zn21  S    
O97   Zn13  S    
C225  H63   S    
C335  H120  S    
C163  H69   S    
C235  C318  A    
C3    H11   S    
C255  Cl8   S    
O7    Zn26  S    
O45   Zn14  S    
O48   Zn17  S    
O19   Zn2   S    
O11   Zn1   S    
O80   Zn28  S    
C301  C314  A    
C40   C58   A    
C182  C199  S    
C135  C280  T    
C165  C183  A    
O61   Zn19  S    
C237  C254  A    
C234  C271  A    
C166  C184  A    
C329  C347  A    
C210  O53   A    
C253  Cl6   S    
C124  C278  T    
C329  H114  S    
C116  C133  A    
C230  C270  A    
O60   Zn31  S    
C106  Cl37  S    
C142  H48   S    
C296  C308  A    
O1    Zn9   S    
C287  O97   A    
C33   C51   A    
C111  Cl42  S    
C94   H32   S    
C75   O37   A    
C59   Cl25  S    
O27   Zn14  S    
C23   C30   A    
O8    Zn31  S    
C332  C349  A    
C38   C57   S    
C152  C170  A    
C2    C39   S    
C283  H86   S    
C190  C291  A    
C141  H47   S    
C14   C340  A    
C334  C351  A    
O43   Zn11  S    
C123  C141  A    
O79   Zn27  S    
C68   O7    A    
C83   H21   S    
C15   C39   A    
C51   Cl17  S    
C146  C281  T    
C16   C40   A    
O38   Zn25  S    
O100  Zn16  S    
C198  C202  T    
C171  C188  S    
C255  C263  A    
C79   C274  T    
C83   C100  A    
C348  H6    S    
O59   Zn28  S    
C131  C149  A    
C120  C138  A    
C94   C183  A    
O67   Zn6   S    
C234  C252  A    
C84   C173  A    
C103  C121  A    
C118  C136  A    
C303  C311  A    
C43   Cl9   S    
C253  C261  A    
O68   Zn5   S    
O90   Zn6   S    
C82   C171  A    
O12   Zn27  S    
C204  O45   A    
C177  C195  S    
O70   Zn7   S    
O83   Zn21  S    
C77   O92   A    
C35   O19   A    
C206  O47   A    
C214  O66   A    
C61   O23   A    
C68   O22   A    
C326  H111  S    
C62   O24   A    
C294  C306  A    
O32   Zn18  S    
C168  H73   S    
C179  C316  A    
C201  C318  A    
C64   C120  S    
C56   C59   A    
C232  H13   S    
C217  O71   A    
C92   H30   S    
C219  O74   A    
C284  C321  A    
C17   C326  A    
C241  Cl23  S    
C109  Cl40  S    
C136  C153  A    
C152  H58   S    
C135  C321  S    
C150  H56   S    
C10   C333  A    
C290  H92   S    
C105  Cl36  S    
C223  O96   A    
C304  H106  S    
C92   C109  A    
O36   Zn22  S    
C327  H112  S    
C63   O25   A    
C195  C196  T    
C45   Cl11  S    
C71   C131  S    
C8    C10   A    
C244  C256  A    
C291  C308  A    
C7    H16   S    
C186  C187  T    
O86   Zn2   S    
O53   Zn21  S    
C143  C161  A    
C12   C339  A    
O55   Zn24  S    
C9    C336  A    
O13   Zn23  S    
O17   Zn10  S    
C25   C31   A    
C24   C41   S    
O14   Zn6   S    
C11   C334  A    
C80   C97   A    
C163  C181  A    
C84   C102  A    
C126  C143  A    
C86   C104  A    
C301  H103  S    
C50   Cl16  S    
C156  H62   S    
C342  O102  A    
C288  H90   S    
C242  Cl34  S    
C106  C125  A    
C333  H117  S    
C29   C47   A    
C76   O38   A    
C273  C282  S    
C279  C322  A    
O41   Zn9   S    
C287  O9    A    
C151  H57   S    
C219  O70   A    
O2    Zn28  S    
C246  H81   S    
C293  H95   S    
C104  C122  A    
O56   Zn25  S    
C100  Cl31  S    
C26   C309  S    
C1    C31   S    
C204  O42   A    
C148  H54   S    
C110  C129  A    
C61   C121  S    
C330  C348  A    
C245  C260  A    
O61   Zn22  S    
O72   Zn20  S    
C69   O31   A    
C140  C158  A    
C56   Cl22  S    
C27   C44   A    
C141  C159  A    
C65   O80   A    
C352  H10   S    
C22   C25   A    
O1    Zn15  S    
C34   C46   S    
C201  H77   S    
C160  H66   S    
C162  C180  A    
C207  O49   A    
C61   O76   A    
C252  C262  A    
C295  H98   S    
C92   C181  A    
O83   Zn25  S    
C254  C264  A    
C328  H113  S    
C342  O14   A    
C224  C315  A    
C331  O13   A    
C211  O58   A    
C220  C265  A    
C257  C319  A    
C236  C270  A    
C309  O11   A    
C232  C250  A    
C115  C132  A    
O35   Zn21  S    
O84   Zn31  S    
C233  C251  A    
C250  C263  A    
O54   Zn22  S    
C129  C147  A    
C297  H100  S    
C336  H121  S    
C77   O40   A    
C237  H36   S    
C227  C244  A    
C347  H5    S    
C227  C265  A    
C268  H83   S    
C145  C163  A    
C139  H45   S    
C220  H1    S    
C157  C323  S    
C178  C196  S    
C24   O18   A    
C309  O99   A    
C30   C112  S    
O9    Zn30  S    
C137  H43   S    
C243  C258  A    
C85   H23   S    
C230  H118  S    
C66   O29   A    
C210  O56   A    
C1    O94   A    
O21   Zn4   S    
C63   C119  S    
C346  C348  A    
C87   C105  A    
C270  C278  S    
C207  C259  S    
C91   C180  A    
C17   C28   A    
C85   C174  A    
C269  C277  S    
C153  C171  A    
C15   C337  A    
C18   C29   A    
C89   C178  A    
O92   Zn8   S    
C161  H67   S    
C284  H87   S    
C90   C316  S    
O17   Zn12  S    
C226  C266  A    
C76   O91   A    
C159  C176  A    
C343  C345  A    
C205  O43   A    
O15   Zn5   S    
C302  C312  A    
C244  Cl45  S    
C231  C249  A    
C214  O60   A    
C62   C122  S    
C46   O5    A    
C243  Cl44  S    
C213  O63   A    
O39   Zn30  S    
C324  C341  A    
C285  C303  A    
C298  O98   A    
C237  C273  A    
C231  H2    S    
O66   Zn23  S    
C289  H91   S    
O88   Zn4   S    
C72   O87   A    
C107  C126  A    
C247  Cl47  S    
C226  H74   S    
C252  Cl5   S    
C248  Cl48  S    
O57   Zn26  S    
C102  C120  A    
C176  C194  S    
O47   Zn16  S    
C121  C139  A    
O33   Zn19  S    
C7    C340  A    
C221  C266  A    
C302  H104  S    
C335  C352  A    
C81   H19   S    
C108  Cl39  S    
O99   Zn15  S    
O28   Zn23  S    
C222  H52   S    
C9    C38   A    
C206  C262  S    
C341  H126  S    
C175  C193  S    
C217  O68   A    
C75   C127  S    
C286  H89   S    
C207  O55   A    
O30   Zn16  S    
C229  C247  A    
C69   O84   A    
C189  C193  T    
C299  C312  A    
C206  O44   A    
C84   H22   S    
O81   Zn29  S    
O69   Zn8   S    
C209  O57   A    
C251  Cl4   S    
C240  C258  A    
C87   H26   S    
C21   C330  A    
C174  C192  S    
O83   Zn4   S    
C143  H49   S    
C138  C155  A    
C113  C318  S    
C224  C294  A    
C146  C322  S    
C334  H119  S    
C13   O16   A    
C35   C36   S    
C213  C307  S    
C288  C305  A    
C214  C308  S    
C229  C267  A    
O10   Zn12  S    
C19   C324  A    
C114  Cl43  S    
C63   O78   A    
C156  C174  A    
C162  H68   S    
C340  H125  S    
C149  H55   S    
C286  C304  A    
C339  H124  S    
C169  C186  S    
C35   O4    A    
C82   C99   A    
C246  C317  A    
O34   Zn20  S    
C20   C325  A    
C295  C310  A    
C81   C98   A    
C95   C114  A    
C350  H8    S    
C73   O35   A    
C70   C130  S    
C305  C313  A    
C179  C290  A    
C86   C175  A    
C18   C327  A    
C19   C26   A    
C13   C42   S    
O61   Zn2   S    
C67   O82   A    
C305  H108  S    
O17   Zn14  S    
C73   O88   A    
C89   H28   S    
O18   Zn7   S    
C155  H61   S    
O58   Zn29  S    
C338  H123  S    
C218  C313  S    
C249  C262  A    
C286  C323  A    
C224  H79   S    
C144  C162  A    
C326  C344  A    
C168  C289  A    
C292  H94   S    
C76   C123  S    
C79   C315  S    
C80   C169  A    
C31   C49   A    
C117  C134  A    
C16   C338  A    
C298  O10   A    
C222  C241  A    
C95   H33   S    
C343  H127  S    
C190  C317  A    
C101  C317  S    
O64   Zn1   S    
C73   C129  S    
C267  C276  S    
C57   O21   A    
C285  H88   S    
C4    C6    A    
C72   O34   A    
O25   Zn11  S    
O83   Zn7   S    
C49   C51   A    
C289  C306  A    
O39   Zn13  S    
C28   C331  S    
C158  C175  A    
C249  Cl2   S    
C191  C192  T    
C2    O15   A    
C351  H9    S    
C12   C41   A    
C320  O100  A    
O17   Zn28  S    
C328  C346  A    
C93   C182  A    
O95   Zn10  S    
C331  O101  A    
C233  H24   S    
C300  C313  A    
C233  C273  A    
C83   C172  A    
C89   C107  A    
C245  Cl46  S    
C81   C170  A    
C97   C116  A    
C350  C352  A    
C225  C269  A    
C216  C311  S    
O49   Zn18  S    
C33   C223  S    
C257  C297  A    
C271  C280  S    
C112  O2    A    
C235  H80   S    
C201  C292  A    
C102  Cl32  S    
C21   C23   A    
O52   Zn20  S    
C8    C37   A    
C250  Cl3   S    
C113  C277  T    
C13   O104  A    
O61   Zn5   S    
C91   H29   S    
C5    C7    A    
C248  C261  A    
O82   Zn30  S    
C40   C342  S    
C272  C281  S    
C345  H3    S    
C294  H97   S    
O24   Zn10  S    
C4    H12   S    
C205  O48   A    
O74   Zn4   S    
C91   C108  A    
C234  H34   S    
C124  C319  S    
C183  C200  S    
C64   O79   A    
C216  O67   A    
C151  C169  A    
O71   Zn2   S    
C3    C351  A    
C2    O103  A    
C20   C27   A    
C172  C189  S    
C210  C258  S    
C238  C255  A    
O85   Zn32  S    
C34   C52   A    
O89   Zn5   S    
O39   Zn27  S    
C49   Cl15  S    
O103  Zn19  S    
O37   Zn24  S    
C225  C242  A    
C29   C320  S    
O91   Zn7   S    
C43   C45   A    
C240  Cl12  S    
C57   O6    A    
C74   O89   A    
C222  C267  A    
C226  C243  A    
C203  O41   A    
O42   Zn10  S    
C133  H39   S    
C150  C167  A    
C109  C128  A    
C173  C191  S    
C137  C154  A    
C254  Cl7   S    
C127  C144  A    
O96   Zn11  S    
O40   Zn26  S    
C160  C177  A    
C303  H105  S    
C164  C182  A    
C213  O59   A    
C67   O30   A    
C122  C140  A    
C239  Cl1   S    
C53   Cl19  S    
C6    C339  A    
C166  H72   S    
C239  C256  A    
C223  O8    A    
C164  H70   S    
C161  C178  A    
O102  Zn18  S    
O44   Zn13  S    
C93   H31   S    
C218  O69   A    
C238  H37   S    
C257  H82   S    
C86   H25   S    
C138  H44   S    
C285  C319  A    
C291  H93   S    
O94   Zn29  S    
C279  H84   S    
C46   O20   A    
C330  H115  S    
O28   Zn11  S    
C332  H116  S    
C284  C302  A    
C290  C307  A    
C205  C261  S    
C72   C128  S    
O26   Zn13  S    
O78   Zn23  S    
C66   O81   A    
C11   C36   A    
C228  C269  A    
C209  C256  S    
C203  C263  S    
C95   C184  A    
C100  C119  A    
O63   Zn12  S    
C333  C350  A    
C140  H46   S    
C55   Cl21  S    
C67   C115  S    
C297  C311  A    
C230  C248  A    
C212  C293  A    
C111  C130  A    
C136  H42   S    
C70   O32   A    
C324  H109  S    
C344  H128  S    
O73   Zn32  S    
C39   C56   A    
C134  H40   S    
C231  C271  A    
C30   C48   A    
C12   C15   A    
C96   C115  A    
C90   C275  T    
C180  C197  S    
C52   Cl18  S    
O77   Zn12  S    
C266  C275  S    
C159  H65   S    
C44   C47   A    
C251  C264  A    
C14   C42   A    
C112  O95   A    
C179  H75   S    
C155  C173  A    
C4    C337  A    
C134  C152  A    
O75   Zn3   S    
C209  O52   A    
C5    C338  A    
C27   C298  S    
C82   H20   S    
C65   O27   A    
O72   Zn3   S    
C181  C198  S    
C23   C328  A    
C1    O93   A    
C52   C54   A    
C325  H110  S    
C25   C329  A    
C53   C55   A    
C21   C32   A    
C28   C45   A    
O29   Zn15  S    
O28   Zn31  S    
C184  C202  S    
C221  C240  A    
C130  C148  A    
C119  C137  A    
C217  C312  S    
O4    Zn22  S    
C292  C310  A    
C41   C59   A    
C78   H17   S    
C5    H14   S    
C42   C60   A    
O20   Zn32  S    
C185  C188  T    
C228  C245  A    
O23   Zn9   S    
C221  H41   S    
C279  C300  A    
O50   Zn6   S    
C190  H76   S    
C153  H59   S    
C24   O3    A    
O46   Zn15  S    
C48   Cl14  S    
C327  C345  A    
O50   Zn32  S    
C211  O64   A    
C347  C349  A    
C88   C106  A    
C320  O12   A    
O50   Zn18  S    
O6    Zn25  S    
C22   C332  A    
C125  C142  A    
O31   Zn17  S    
C232  C272  A    
O98   Zn14  S    
C145  H51   S    
C154  C172  A    
C10   C34   A    
C168  C315  A    
C212  H78   S    
C238  C272  A    
C9    C11   A    
C220  C239  A    
C32   C50   A    
C218  O75   A    
C75   O90   A    
O104  Zn20  S    
C37   C54   A    
C71   O86   A    
C228  H96   S    
C107  Cl38  S    
O93   Zn9   S    
C337  H122  S    
C14   C16   A    
C212  C316  A    
C144  H50   S    
C54   Cl20  S    
C71   O33   A    
O51   Zn19  S    
C216  O73   A    
O62   Zn30  S    
C98   C117  A    
C288  C322  A    
C341  C344  A    
O1    Zn1   S    
C22   C33   A    
C65   C117  S    
C241  C259  A    
C132  H38   S    
C148  C165  A    
C242  C260  A    
C165  H71   S    
C98   Cl29  S    
O101  Zn17  S    
C149  C166  A    
O5    Zn24  S    
C142  C160  A    
C104  Cl35  S    
C8    C335  A    
C247  C259  A    
C304  C314  A    
C211  C306  S    
C97   Cl28  S    
C268  C321  A    
O16   Zn8   S    
C158  H64   S    
O72   Zn8   S    
C88   H27   S    
O76   Zn1   S    
C99   C118  A    
C215  O65   A    
C74   C126  S    
C139  C156  A    
C299  H101  S    
C3    C336  A    
C246  C296  A    
C17   C19   A    
C325  C343  A    
C99   Cl30  S    
C18   C20   A    
C108  C127  A    
C235  C295  A    
C296  H99   S    
C283  C323  A    
C349  H7    S    
C265  C274  S    
C203  O46   A    
C101  C276  T    
C6    H15   S    
C66   C118  S    
C62   O77   A    
O72   Zn26  S    
C157  C282  T    
C47   Cl13  S    
