data_mof_unit_22059.cif
_audit_creation_date              2012-12-10T20:41:55-0500
_audit_creation_method            fapswitch 2.2
_symmetry_space_group_name_H-M    P1
_symmetry_Int_Tables_number       1
_space_group_crystal_system       triclinic
_cell_length_a                    15.036598
_cell_length_b                    15.263109
_cell_length_c                    9.873823
_cell_angle_alpha                 90.332566
_cell_angle_beta                  89.412593
_cell_angle_gamma                 90.031154
_cell_volume                      2265.93653343

loop_
_atom_site_label
_atom_site_type_symbol
_atom_type_description
_atom_site_fract_x
_atom_site_fract_y
_atom_site_fract_z
_atom_type_partial_charge
C1    C     C_R   0.381850 0.878273 0.500126 0.884549
C2    C     C_R   0.926591 0.472923 0.072758 0.213054
C3    C     C_R   0.575220 0.017763 0.070870 -0.057315
C4    C     C_R   0.075230 0.517722 0.070870 -0.057265
C5    C     C_R   0.575206 0.017409 0.927019 0.035189
C6    C     C_R   0.075217 0.517364 0.927018 0.035181
C7    C     C_R   0.426178 0.973947 0.929984 0.207207
C8    C     C_R   0.926168 0.473973 0.929985 0.207223
C9    C     C_3   0.338069 0.018627 0.931389 -0.518245
C10   C     C_3   0.838076 0.518683 0.931388 -0.518228
C11   C     C_3   0.337073 0.013187 0.084111 -0.475864
C12   C     C_R   0.382190 0.122452 0.500183 0.882966
C13   C     C_3   0.837076 0.513240 0.084109 -0.475866
C14   C     C_R   0.620962 0.119016 0.499832 0.886861
C15   C     C_R   0.622813 0.882819 0.499150 0.880480
C16   C     C_R   0.120962 0.619017 0.499833 0.886854
C17   C     C_R   0.122813 0.382818 0.499151 0.880492
C18   C     C_R   0.306889 0.244530 0.616609 0.081807
C19   C     C_R   0.282009 0.781367 0.621808 0.077294
C20   C     C_R   0.806901 0.744545 0.616603 0.081741
C21   C     C_R   0.781937 0.281433 0.621795 0.077296
C22   C     C_R   0.327764 0.199289 0.497816 -0.114156
C23   C     C_R   0.881846 0.378276 0.500128 0.884541
C24   C     C_R   0.324288 0.804466 0.501383 -0.106760
C25   C     C_R   0.827767 0.699293 0.497814 -0.114127
C26   C     C_R   0.824274 0.304477 0.501395 -0.106725
C27   C     C_R   0.298440 0.232458 0.373481 -0.195780
C28   C     C_R   0.311124 0.754579 0.383610 -0.204373
C29   C     C_R   0.798435 0.732454 0.373478 -0.195783
C30   C     C_R   0.811165 0.254540 0.383663 -0.204395
C31   C     C_R   0.734213 0.797359 0.372769 -0.184472
C32   C     C_R   0.745646 0.190715 0.383401 -0.176631
C33   C     C_R   0.234219 0.297364 0.372773 -0.184467
C34   C     C_R   0.882191 0.622454 0.500184 0.882951
C35   C     C_R   0.245603 0.690757 0.383352 -0.176600
C36   C     C_R   0.700267 0.829046 0.496474 -0.166659
C37   C     C_R   0.693949 0.177939 0.500724 -0.160429
C38   C     C_R   0.200264 0.329042 0.496478 -0.166678
C39   C     C_R   0.193958 0.677932 0.500722 -0.160478
C40   C     C_R   0.744111 0.809459 0.616083 0.135287
C41   C     C_R   0.716759 0.219010 0.621683 0.123683
C42   C     C_R   0.244100 0.309444 0.616091 0.135303
C43   C     C_R   0.216832 0.718943 0.621710 0.123708
C44   C     C_3   0.708426 0.784502 0.752205 0.231105
C45   C     C_3   0.277337 0.212310 0.751772 -0.531250
C46   C     C_3   0.659367 0.271045 0.717494 0.237067
C47   C     C_3   0.208406 0.284472 0.752200 0.231068
C48   C     C_3   0.159492 0.770939 0.717669 0.237064
C49   C     C_3   0.233037 0.838559 0.720027 -0.524394
C50   C     C_3   0.777358 0.712341 0.751780 -0.531289
C51   C     C_3   0.732912 0.338664 0.719890 -0.524459
C52   C     C_R   0.426601 0.972897 0.072758 0.213057
Cl1   Cl    Cl    0.730685 0.866392 0.876889 -0.643523
Cl2   Cl    Cl    0.644656 0.219542 0.877653 -0.638404
Cl3   Cl    Cl    0.230660 0.366344 0.876908 -0.643500
Cl4   Cl    Cl    0.144893 0.719378 0.877820 -0.638535
H1    H     H_    0.319377 0.204216 0.277625 0.177110
H2    H     H_    0.732620 0.155023 0.290526 0.184913
H3    H     H_    0.206624 0.317014 0.276682 0.199407
H4    H     H_    0.232530 0.655113 0.290445 0.185000
H5    H     H_    0.638605 0.760456 0.750780 0.120826
H6    H     H_    0.596717 0.294586 0.671112 0.116483
H7    H     H_    0.138586 0.260429 0.750758 0.120816
H8    H     H_    0.096802 0.794503 0.671408 0.116484
H9    H     H_    0.330114 0.222152 0.828314 0.248888
H10   H     H_    0.268647 0.841969 0.817845 0.239514
H11   H     H_    0.830141 0.722192 0.828311 0.248846
H12   H     H_    0.347517 0.767941 0.290727 0.178806
H13   H     H_    0.768455 0.342110 0.817753 0.239499
H14   H     H_    0.247151 0.145873 0.746197 0.172576
H15   H     H_    0.213484 0.902641 0.676294 0.167885
H16   H     H_    0.747171 0.645903 0.746226 0.172604
H17   H     H_    0.713392 0.402729 0.676076 0.167907
H18   H     H_    0.635658 0.033726 0.124121 0.164043
H19   H     H_    0.135677 0.533655 0.124121 0.164091
H20   H     H_    0.635668 0.032618 0.871913 0.214403
H21   H     H_    0.135689 0.532536 0.871911 0.214486
H22   H     H_    0.345070 0.086402 0.896195 0.221631
H23   H     H_    0.819365 0.704207 0.277623 0.177083
H24   H     H_    0.284176 0.980776 0.883281 0.205974
H25   H     H_    0.845105 0.586457 0.896202 0.221621
H26   H     H_    0.784172 0.480852 0.883272 0.205969
H27   H     H_    0.847606 0.267860 0.290814 0.178777
H28   H     H_    0.337846 0.078371 0.134457 0.218197
H29   H     H_    0.286809 0.966450 0.124508 0.212520
H30   H     H_    0.837870 0.578422 0.134457 0.218187
H31   H     H_    0.786797 0.466517 0.124503 0.212528
H32   H     H_    0.706612 0.817002 0.276678 0.199400
N1    N     N_R   0.499140 0.000000 0.142800 -0.126873
N2    N     N_R   0.999140 0.500000 0.142800 -0.126891
N3    N     N_R   0.499160 1.000000 0.857150 -0.125157
N4    N     N_R   0.999160 0.500000 0.857150 -0.125192
O1    O     O_R   0.408400 0.908380 0.614690 -0.614435
O2    O     O_R   0.591610 0.908390 0.614650 -0.604698
O3    O     O_R   0.091610 0.591610 0.614650 -0.593030
O4    O     O_R   0.091610 0.408390 0.614650 -0.604696
O5    O     O_R   0.591590 0.091600 0.385310 -0.624133
O6    O     O_R   0.591590 0.908400 0.385310 -0.621911
O7    O     O_R   0.091590 0.591600 0.385310 -0.624120
O8    O     O_R   0.091590 0.408400 0.385310 -0.621917
O9    O     O_R   0.408400 0.091620 0.614690 -0.611097
O10   O     O_R   0.908400 0.408380 0.614690 -0.614420
O11   O     O_R   0.908400 0.591620 0.614690 -0.611124
O12   O     O_R   0.408370 0.908370 0.385350 -0.624359
O13   O     O_R   0.408370 0.091630 0.385350 -0.626582
O14   O     O_R   0.908370 0.408370 0.385350 -0.624345
O15   O     O_R   0.908370 0.591630 0.385350 -0.626579
O16   O     O_R   0.591610 0.091610 0.614650 -0.592992
Zn1   Zn    Zn3+2 0.500010 1.000000 0.653130 0.989797
Zn2   Zn    Zn3+2 0.000010 0.500000 0.653130 0.989767
Zn3   Zn    Zn3+2 0.499980 1.000000 0.346870 0.961066
Zn4   Zn    Zn3+2 0.999980 0.500000 0.346870 0.961067

loop_
_geom_bond_atom_site_label_1
_geom_bond_atom_site_label_2
_ccdc_geom_bond_type
C21   C26   A    
O15   Zn4   S    
C32   H2    S    
C15   O2    A    
O14   Zn4   S    
C27   C33   A    
C9    H22   S    
C46   H6    S    
O11   Zn2   S    
C34   O15   A    
C2    C13   S    
C28   H12   S    
C7    C52   A    
C38   C42   A    
C18   C42   A    
C47   H7    S    
C12   O13   A    
C20   C40   A    
C6    N4    A    
C48   H8    S    
C23   O10   A    
C20   C25   A    
O9    Zn1   S    
C12   C22   S    
O16   Zn1   S    
C48   Cl4   S    
C23   C26   S    
C30   H27   S    
C2    N2    A    
C3    H18   S    
C50   H16   S    
C4    H19   S    
C20   C50   S    
C11   C52   S    
C44   Cl1   S    
C28   C35   A    
C13   H30   S    
C41   C46   S    
C8    N4    A    
N2    Zn4   S    
C50   H11   S    
C25   C34   S    
C17   C38   S    
C14   O16   A    
O13   Zn3   S    
C33   H3    S    
C13   H31   S    
C52   N1    A    
C19   C43   A    
C4    N2    A    
C45   C47   S    
C25   C29   A    
C49   H10   S    
C24   C28   A    
C36   C40   A    
C4    C6    A    
C27   H1    S    
O6    Zn3   S    
C6    H21   S    
C39   C43   A    
C23   O14   A    
O4    Zn2   S    
C46   C51   S    
C10   C13   S    
C35   H4    S    
C9    H24   S    
C35   C39   A    
C19   C49   S    
C29   H23   S    
C7    N3    A    
C46   Cl2   S    
C17   O4    A    
C32   C37   A    
C9    C11   S    
C1    O12   A    
C5    N3    A    
C21   C41   A    
C8    C10   S    
C48   C49   S    
O8    Zn4   S    
C22   C27   A    
C45   H9    S    
C44   H5    S    
O10   Zn2   S    
C15   O6    A    
C18   C45   S    
C15   C36   S    
C21   C51   S    
C14   O5    A    
C47   Cl3   S    
C43   C48   S    
C44   C50   S    
C7    C9    S    
C16   O3    A    
C31   H32   S    
C10   H25   S    
C45   H14   S    
C18   C22   A    
C2    C8    A    
C51   H17   S    
C3    C5    A    
O3    Zn2   S    
O12   Zn3   S    
C16   O7    A    
C26   C30   A    
C11   H28   S    
N1    Zn3   S    
O2    Zn1   S    
C33   C38   A    
C3    N1    A    
N3    Zn1   S    
C5    H20   S    
C19   C24   A    
C12   O9    A    
C29   C31   A    
C14   C37   S    
C30   C32   A    
N4    Zn2   S    
C11   H29   S    
O5    Zn3   S    
O7    Zn4   S    
C34   O11   A    
C10   H26   S    
C42   C47   S    
C37   C41   A    
C17   O8    A    
C16   C39   S    
C40   C44   S    
C1    C24   S    
C1    O1    A    
C49   H15   S    
C31   C36   A    
C51   H13   S    
O1    Zn1   S    
