data_mof_unit_25672.cif
_audit_creation_date              2012-12-10T18:03:59-0500
_audit_creation_method            fapswitch 2.2
_symmetry_space_group_name_H-M    P1
_symmetry_Int_Tables_number       1
_space_group_crystal_system       triclinic
_cell_length_a                    10.907887
_cell_length_b                    9.602641
_cell_length_c                    11.089687
_cell_angle_alpha                 90.401642
_cell_angle_beta                  94.598925
_cell_angle_gamma                 88.596688
_cell_volume                      1157.48201096

loop_
_atom_site_label
_atom_site_type_symbol
_atom_type_description
_atom_site_fract_x
_atom_site_fract_y
_atom_site_fract_z
_atom_type_partial_charge
C1    C     C_R   0.263263 0.501622 0.511695 0.848969
C2    C     C_R   0.736930 0.498077 0.488461 0.915114
C3    C     C_R   0.408544 0.075483 0.435554 0.081518
C4    C     C_R   0.593207 0.069963 0.560315 0.051177
C5    C     C_R   0.410984 0.926798 0.433161 -0.004686
C6    C     C_R   0.587729 0.922773 0.567528 0.052481
C7    C     C_R   0.497566 0.499464 0.261636 0.871042
C8    C     C_R   0.508052 0.501270 0.737750 0.906500
C9    C     C_R   0.450391 0.612150 0.055941 -0.024401
C10   C     C_R   0.468271 0.618151 0.932103 -0.000396
C11   C     C_R   0.497215 0.496944 0.126982 -0.249398
C12   C     C_R   0.519593 0.506225 0.871752 -0.260264
C13   C     C_R   0.550360 0.381482 0.064170 0.335925
C14   C     C_R   0.575819 0.397760 0.941990 0.337152
C15   C     C_3   0.513425 0.765685 0.944706 -0.158542
C16   C     C_3   0.460217 0.768929 0.068764 -0.194229
C17   C     C_R   0.067471 0.375417 0.524144 -0.120581
C18   C     C_R   0.942382 0.370456 0.487430 -0.114291
C19   C     C_R   0.871739 0.494758 0.475889 -0.248980
C20   C     C_R   0.128610 0.503203 0.523211 -0.232920
C21   C     C_R   0.933613 0.620198 0.467122 0.297490
C22   C     C_R   0.057283 0.627778 0.509569 0.342338
Cu1   Cu    Cu3+1 0.500000 0.640660 0.500000 1.021094
Cu2   Cu    Cu3+1 0.500000 0.359340 0.500000 1.060166
N1    N     N_R   0.500000 0.852070 0.500000 -0.233036
N2    N     N_R   0.500000 0.147940 0.500000 -0.213182
O1    O     O_R   0.319640 0.618740 0.499990 -0.577914
O2    O     O_R   0.680360 0.618740 0.500010 -0.542067
O3    O     O_R   0.319620 0.381170 0.499990 -0.613626
O4    O     O_R   0.680380 0.381170 0.500010 -0.589107
O5    O     O_R   0.499990 0.618810 0.319660 -0.594177
O6    O     O_R   0.500010 0.618810 0.680340 -0.613026
O7    O     O_R   0.499960 0.381240 0.319650 -0.513316
O8    O     O_R   0.500040 0.381240 0.680350 -0.552618
S1    S     S_3+6 0.579374 0.214298 0.133049 0.059586
O9    O     O_2   0.671214 0.229143 0.240178 -0.283685
O10   O     O_2   0.460606 0.164832 0.174130 -0.312187
O11   O     O_3   0.630392 0.087743 0.043419 -0.478903
H1    H     H_    0.711262 0.056133 0.081998 0.395918
S2    S     S_3+6 0.707204 0.314591 0.890243 0.043629
O12   O     O_2   0.668580 0.175957 0.839987 -0.286568
O13   O     O_2   0.758948 0.400418 0.794310 -0.306857
O14   O     O_3   0.816131 0.292134 0.005150 -0.493218
H2    H     H_    0.879611 0.230609 0.972023 0.390437
C23   C     C_1   0.649800 0.768432 0.952755 0.310949
N3    N     N_1   0.756213 0.770147 0.961990 -0.155555
C24   C     C_1   0.336435 0.836295 0.065155 0.329274
N4    N     N_1   0.239918 0.889895 0.059682 -0.161958
C25   C     C_1   0.459728 0.869023 0.856692 0.370551
N5    N     N_1   0.419311 0.953979 0.790463 -0.240705
C26   C     C_1   0.541065 0.828405 0.167466 0.393716
N6    N     N_1   0.603195 0.878985 0.244125 -0.098989
C27   C     C_1   0.128183 0.251606 0.577079 0.376039
N7    N     N_1   0.176784 0.154033 0.621183 -0.181569
C28   C     C_1   0.898890 0.242721 0.431582 0.379084
N8    N     N_1   0.868102 0.139176 0.386264 -0.106168
S3    S     S_3+6 0.874048 0.744490 0.359990 0.071198
O15   O     O_2   0.806834 0.858188 0.422573 -0.241348
O16   O     O_2   0.975324 0.807341 0.295800 -0.222856
O17   O     O_3   0.777410 0.665170 0.257057 -0.545232
H3    H     H_    0.829457 0.596901 0.215744 0.355534
S4    S     S_3+6 0.099988 0.782379 0.589078 0.070662
O18   O     O_2   0.114392 0.898421 0.501853 -0.282863
O19   O     O_2   0.999358 0.825078 0.667332 -0.212885
O20   O     O_3   0.229421 0.758674 0.679716 -0.513209
H4    H     H_    0.291107 0.814208 0.642201 0.374387
C29   C     C_1   0.310818 0.148457 0.364439 0.397116
N9    N     N_1   0.232062 0.204994 0.306337 -0.239263
C30   C     C_1   0.705877 0.130883 0.607774 0.431008
N10   N     N_1   0.799383 0.172396 0.647417 -0.178820
C31   C     C_1   0.319011 0.852289 0.360211 0.348324
N11   N     N_1   0.244556 0.791253 0.303275 -0.204744
C32   C     C_1   0.677490 0.845894 0.644772 0.366343
N12   N     N_1   0.750327 0.784031 0.705557 -0.186384

loop_
_geom_bond_atom_site_label_1
_geom_bond_atom_site_label_2
_ccdc_geom_bond_type
Cu1   O5    S    
C4    N2    A    
Cu1   Cu2   S    
C21   S3    S    
S4    O18   D    
Cu2   O7    S    
Cu1   O1    S    
C22   S4    S    
C3    N2    A    
C7    O7    A    
C9    C10   A    
S4    O19   D    
C24   N4    T    
C16   C26   S    
C2    O4    A    
C8    C12   S    
Cu1   O6    S    
S1    O11   S    
C28   N8    T    
C1    O3    A    
C17   C18   A    
C12   C14   A    
C3    C5    A    
C31   N11   T    
C5    C31   S    
C8    O8    A    
C23   N3    T    
C7    C11   S    
C9    C11   A    
S3    O15   D    
C30   N10   T    
C10   C12   A    
C18   C28   S    
Cu1   N1    S    
C29   N9    T    
C5    N1    A    
C16   C24   S    
S2    O13   D    
C4    C30   S    
S1    O10   D    
C9    C16   S    
C20   C22   A    
C21   C22   A    
O20   H4    S    
C10   C15   S    
C15   C25   S    
O14   H2    S    
O11   H1    S    
Cu2   O4    S    
S3    O16   D    
C6    N1    A    
Cu1   O2    S    
C15   C23   S    
C14   S2    S    
C26   N6    T    
C8    O6    A    
C13   S1    S    
C17   C27   S    
C11   C13   A    
C17   C20   A    
C7    O5    A    
C6    C32   S    
C4    C6    A    
C25   N5    T    
C32   N12   T    
C1    O1    A    
S2    O12   D    
Cu2   O3    S    
C18   C19   A    
C1    C20   S    
C2    O2    A    
S4    O20   S    
C19   C21   A    
C2    C19   S    
C13   C14   A    
S2    O14   S    
C3    C29   S    
C15   C16   S    
C27   N7    T    
Cu2   N2    S    
O17   H3    S    
S3    O17   S    
S1    O9    D    
Cu2   O8    S    
