data_mof_unit_65030.cif
_audit_creation_date              2012-12-10T20:43:40-0500
_audit_creation_method            fapswitch 2.2
_symmetry_space_group_name_H-M    P1
_symmetry_Int_Tables_number       1
_space_group_crystal_system       triclinic
_cell_length_a                    10.825075
_cell_length_b                    19.223062
_cell_length_c                    19.253015
_cell_angle_alpha                 94.798937
_cell_angle_beta                  91.854387
_cell_angle_gamma                 96.745021
_cell_volume                      3961.09982247

loop_
_atom_site_label
_atom_site_type_symbol
_atom_type_description
_atom_site_fract_x
_atom_site_fract_y
_atom_site_fract_z
_atom_type_partial_charge
C1    C     C_R   0.514196 0.690194 0.508576 0.821475
C2    C     C_R   0.523645 0.767332 0.512923 -0.116928
C3    C     C_R   0.637746 0.808000 0.502167 0.521578
C4    C     C_R   0.485643 0.309709 0.492245 0.866588
C5    C     C_R   0.642636 0.881006 0.502449 -0.279221
C6    C     C_R   0.482089 0.509890 0.765381 -0.041805
C7    C     C_R   0.549467 0.466310 0.802814 -0.219154
C8    C     C_R   0.545790 0.468980 0.875085 -0.267070
C9    C     C_R   0.474322 0.515664 0.911617 0.307487
C10   C     C_R   0.406766 0.559584 0.874546 0.444039
C11   C     C_R   0.410672 0.556333 0.801441 -0.332763
C12   C     C_R   0.573031 0.202111 0.521554 -0.309892
C13   C     C_R   0.531545 0.551793 0.127401 0.502514
C14   C     C_R   0.529127 0.555820 0.200675 0.310434
C15   C     C_R   0.518823 0.485167 0.088620 0.144068
C16   C     C_R   0.511415 0.493756 0.311067 0.809979
C17   C     C_R   0.511824 0.492954 0.234791 -0.171219
C18   C     C_R   0.497377 0.427718 0.195344 -0.254256
C19   C     C_R   0.502974 0.424003 0.123173 -0.264502
C20   C     C_R   0.487008 0.507015 0.688964 0.822777
C21   C     C_R   0.835177 0.515451 0.515239 0.854040
C22   C     C_R   0.163910 0.485074 0.485085 0.890203
C23   C     C_R   0.564329 0.130012 0.525504 -0.266278
C24   C     C_2   0.028996 0.479157 0.479418 -0.330652
C25   C     C_2   0.968534 0.521489 0.520774 -0.295056
C26   C     C_R   0.475063 0.232493 0.491625 -0.085667
C27   C     C_3   0.448306 0.647333 0.091828 -0.155264
C28   C     C_3   0.813356 0.776322 0.551134 -0.286818
C29   C     C_R   0.457933 0.085902 0.497908 0.266707
C30   C     C_R   0.359501 0.115221 0.466753 0.318960
C31   C     C_R   0.365786 0.189440 0.465588 0.304466
C32   C     C_R   0.423893 0.873865 0.527606 -0.147511
C33   C     C_R   0.418047 0.801010 0.527283 -0.302425
C34   C     C_R   0.536339 0.914267 0.513938 0.247555
H1    H     H_    0.978535 0.440109 0.441409 0.152647
H2    H     H_    0.340635 0.898404 0.538230 0.175298
H3    H     H_    0.641350 0.108906 0.550218 0.187947
H4    H     H_    0.729586 0.911895 0.492552 0.171538
H5    H     H_    0.496931 0.619854 0.279592 0.333512
H6    H     H_    0.435863 0.676423 0.142889 0.188647
H7    H     H_    0.459911 0.686540 0.052689 0.201978
H8    H     H_    0.362590 0.610787 0.075712 0.151545
H9    H     H_    0.296017 0.632386 0.877720 0.332869
H10   H     H_    0.221619 0.092092 0.398502 0.346392
H11   H     H_    0.187815 0.190712 0.449795 0.339530
H12   H     H_    0.656714 0.234419 0.542713 0.200088
H13   H     H_    0.759133 0.746492 0.589549 0.133821
H14   H     H_    0.845910 0.830802 0.573868 0.155912
H15   H     H_    0.897007 0.749636 0.540215 0.198105
H16   H     H_    0.358502 0.590311 0.772931 0.168648
H17   H     H_    0.484838 0.379271 0.220681 0.192913
H18   H     H_    0.599544 0.434692 0.902121 0.179287
H19   H     H_    0.493783 0.372992 0.093719 0.183847
H20   H     H_    0.605299 0.429998 0.776271 0.184240
H21   H     H_    0.016674 0.561071 0.558987 0.158731
H22   H     H_    0.330139 0.770797 0.536590 0.186954
N1    N     N_2   0.446608 0.011656 0.500111 -0.114992
N2    N     N_2   0.547180 0.988279 0.511942 -0.185841
N3    N     N_2   0.469186 0.521075 0.985485 -0.101803
N4    N     N_2   0.524282 0.477546 0.014975 -0.172714
O1    O     O_3   0.500000 0.500000 0.500000 -0.501943
O2    O     O_R   0.783160 0.551820 0.473170 -0.620411
O3    O     O_R   0.222430 0.530340 0.530340 -0.643644
O4    O     O_R   0.771990 0.472690 0.551320 -0.636028
O5    O     O_R   0.222420 0.445150 0.445160 -0.630119
O6    O     O_3   0.544484 0.621685 0.236618 -0.721874
O7    O     O_3   0.556213 0.612559 0.093764 -0.568931
O8    O     O_3   0.337758 0.605204 0.911116 -0.775069
O9    O     O_3   0.260140 0.069716 0.436885 -0.754433
O10   O     O_3   0.265830 0.221111 0.442446 -0.745128
O11   O     O_3   0.743681 0.776546 0.488037 -0.568636
O12   O     O_R   0.435070 0.449940 0.339290 -0.641110
O13   O     O_R   0.419380 0.543640 0.654290 -0.646157
O14   O     O_R   0.586230 0.658380 0.469080 -0.585164
O15   O     O_R   0.559310 0.348040 0.537340 -0.661788
O16   O     O_R   0.435110 0.654980 0.544320 -0.657142
O17   O     O_R   0.419350 0.338590 0.449260 -0.578324
O18   O     O_R   0.586210 0.538520 0.349230 -0.617854
O19   O     O_R   0.559330 0.467910 0.657200 -0.647393
Zn1   Zn    Zn3+2 0.396020 0.434560 0.434560 1.007555
Zn2   Zn    Zn3+2 0.611960 0.561120 0.448760 1.014515
Zn3   Zn    Zn3+2 0.595990 0.448060 0.560420 0.964987
Zn4   Zn    Zn3+2 0.396040 0.556260 0.556260 0.958598

loop_
_geom_bond_atom_site_label_1
_geom_bond_atom_site_label_2
_ccdc_geom_bond_type
C28   H13   S    
C15   N4    S    
C27   H8    S    
C7    C8    A    
C15   C19   A    
C12   C23   A    
C1    O14   A    
C23   C29   A    
C18   C19   A    
O1    Zn3   S    
C30   C31   A    
O1    Zn1   S    
C1    C2    S    
C21   O4    A    
C22   O3    A    
C31   O10   S    
C8    C9    A    
C4    O15   A    
C16   O12   A    
C9    C10   A    
C8    H18   S    
C19   H19   S    
C33   H22   S    
N3    N4    D    
O5    Zn1   S    
C13   C14   A    
C14   C17   A    
O16   Zn4   S    
C18   H17   S    
C24   H1    S    
C24   C25   D    
C12   H12   S    
O1    Zn4   S    
C6    C11   A    
H9    O8    S    
C23   H3    S    
C12   C26   A    
C9    N3    S    
C32   C34   A    
C3    O11   S    
C22   O5    A    
C29   C30   A    
C28   H15   S    
C27   H7    S    
C27   H6    S    
C5    C34   A    
C17   C18   A    
C14   O6    S    
H10   O9    S    
O4    Zn3   S    
C21   O2    A    
C2    C33   A    
O2    Zn2   S    
C29   N1    S    
C13   C15   A    
H5    O6    S    
C22   C24   S    
C28   O11   S    
O14   Zn2   S    
C32   H2    S    
C30   O9    S    
C13   O7    S    
O17   Zn1   S    
C21   C25   S    
C28   H14   S    
C20   O19   A    
H11   O10   S    
C1    O16   A    
C25   H21   S    
C3    C5    A    
O19   Zn3   S    
C4    C26   S    
O15   Zn3   S    
C6    C7    A    
C10   O8    S    
C6    C20   S    
C32   C33   A    
C2    C3    A    
C4    O17   A    
O12   Zn1   S    
C11   H16   S    
O1    Zn2   S    
O18   Zn2   S    
N1    N2    D    
C16   C17   S    
C20   O13   A    
C16   O18   A    
C27   O7    S    
C10   C11   A    
C26   C31   A    
O3    Zn4   S    
C34   N2    S    
C7    H20   S    
C5    H4    S    
O13   Zn4   S    
