data_mof_unit_24117.cif
_audit_creation_date              2012-12-11T15:30:35-0500
_audit_creation_method            fapswitch 2.2
_symmetry_space_group_name_H-M    P1
_symmetry_Int_Tables_number       1
_space_group_crystal_system       triclinic
_cell_length_a                    6.951331
_cell_length_b                    20.47902
_cell_length_c                    24.415213
_cell_angle_alpha                 89.681222
_cell_angle_beta                  90.441352
_cell_angle_gamma                 89.440162
_cell_volume                      3475.33867461

loop_
_atom_site_label
_atom_site_type_symbol
_atom_type_description
_atom_site_fract_x
_atom_site_fract_y
_atom_site_fract_z
_atom_type_partial_charge
O1    O     O_R   0.507310 0.423620 0.460450 -0.536349
O2    O     O_R   0.170760 0.556060 0.437190 -0.537858
O3    O     O_R   0.004040 0.576380 0.539550 -0.536808
C1    C     C_R   0.338787 0.576197 0.421234 0.723937
O4    O     O_R   0.177350 0.422870 0.454070 -0.537959
O5    O     O_R   0.010680 0.442240 0.556560 -0.531894
C2    C     C_R   0.346321 0.398913 0.443483 0.695919
O6    O     O_R   0.500670 0.557760 0.443440 -0.535716
O7    O     O_3   0.340380 0.506510 0.533610 -0.365549
V1    V     V_3+5 0.064130 0.498790 0.493770 1.424517
O8    O     O_R   0.681170 0.443940 0.562810 -0.537405
C3    C     C_R   0.850876 0.423901 0.578694 0.723643
O9    O     O_R   0.674570 0.577130 0.545930 -0.538077
C4    C     C_R   0.842635 0.601029 0.556616 0.692338
V2    V     V_3+5 0.564560 0.501210 0.506230 1.425026
O10   O     O_3   0.838170 0.493490 0.466390 -0.367746
C5    C     C_R   0.976820 0.838272 0.911156 -0.041214
C6    C     C_R   0.847207 0.661696 0.588819 -0.040874
C7    C     C_R   0.043501 0.722457 0.905829 -0.165069
C8    C     C_R   0.033641 0.779694 0.936145 -0.169772
C9    C     C_R   0.930391 0.839358 0.854962 -0.216288
C10   C     C_R   0.942680 0.781639 0.822661 0.086386
C11   C     C_R   0.000038 0.722918 0.849589 0.142070
C12   C     C_R   0.902867 0.780102 0.764787 0.058835
C13   C     C_R   0.921194 0.719873 0.735183 0.058537
C14   C     C_R   0.978080 0.663223 0.764471 -0.189115
C15   C     C_R   0.016116 0.664901 0.820326 -0.204974
C16   C     C_R   0.845971 0.836752 0.735500 -0.189575
C17   C     C_R   0.807905 0.835072 0.679646 -0.205986
C18   C     C_R   0.823974 0.777052 0.650385 0.142659
C19   C     C_R   0.881371 0.718335 0.677311 0.086347
C20   C     C_R   0.780460 0.777507 0.594148 -0.165786
C21   C     C_R   0.790320 0.720269 0.563833 -0.169983
C22   C     C_R   0.893684 0.660616 0.645010 -0.216078
H1    H     H_    0.059961 0.620034 0.840875 0.119218
H2    H     H_    0.934041 0.613861 0.662190 0.092831
H3    H     H_    0.752145 0.721553 0.520722 0.103185
H4    H     H_    0.764040 0.879937 0.659098 0.117844
H5    H     H_    0.088046 0.677670 0.926343 0.109413
H6    H     H_    0.071781 0.778405 0.979258 0.103475
H7    H     H_    0.890100 0.886118 0.837779 0.092569
H8    H     H_    0.995360 0.616305 0.745399 0.121194
H9    H     H_    0.828688 0.883669 0.754573 0.120662
H10   H     H_    0.735876 0.822291 0.573634 0.108578
C23   C     C_3   0.715313 0.221858 0.777505 -0.345265
C24   C     C_3   0.028867 0.272526 0.805346 -0.336739
C25   C     C_3   0.009122 0.322246 0.757161 -0.313678
H11   H     H_    0.614930 0.315728 0.743648 0.170593
H12   H     H_    0.642193 0.241685 0.814331 0.151734
H13   H     H_    0.184008 0.263647 0.814617 0.144852
H14   H     H_    0.962911 0.293657 0.842751 0.141188
H15   H     H_    0.932817 0.366898 0.771589 0.130862
H16   H     H_    0.154660 0.337541 0.743800 0.173873
C26   C     C_1   0.863520 0.378431 0.624412 -0.182328
C27   C     C_3   0.930080 0.207159 0.790952 0.235988
C28   C     C_3   0.695842 0.271856 0.729532 -0.415859
C29   C     C_3   0.896902 0.292053 0.708365 0.206050
C30   C     C_3   0.005033 0.229056 0.689577 0.398875
C31   C     C_3   0.026337 0.179883 0.738605 -0.370157
C32   C     C_1   0.877156 0.339871 0.662307 -0.044687
C33   C     C_1   0.948013 0.159739 0.837312 -0.076146
C34   C     C_1   0.960890 0.121373 0.875386 -0.198298
H17   H     H_    0.959279 0.132681 0.727235 0.099390
H18   H     H_    0.181164 0.169464 0.747243 0.163562
H19   H     H_    0.913614 0.206187 0.657137 0.026788
H20   H     H_    0.640933 0.175901 0.766245 0.147887
H21   H     H_    0.610586 0.249950 0.695700 0.172221
C35   C     C_3   0.592581 0.700783 0.265918 -0.326783
C36   C     C_3   0.238581 0.696175 0.245024 -0.329893
C37   C     C_3   0.265733 0.745569 0.196986 -0.326315
H22   H     H_    0.654539 0.723202 0.179819 0.137300
H23   H     H_    0.614459 0.650196 0.250598 0.137019
H24   H     H_    0.090621 0.701502 0.261637 0.137126
H25   H     H_    0.253061 0.645455 0.229358 0.137300
H26   H     H_    0.293197 0.718324 0.158475 0.136455
H27   H     H_    0.130489 0.774279 0.190715 0.135972
C38   C     C_1   0.475522 0.878286 0.124726 -0.194824
C39   C     C_3   0.388977 0.707691 0.291171 0.291011
C40   C     C_3   0.619688 0.750256 0.217937 -0.331728
C41   C     C_3   0.435291 0.792402 0.208893 0.292029
C42   C     C_3   0.391521 0.828512 0.263182 -0.328133
C43   C     C_3   0.364536 0.779072 0.311205 -0.327925
C44   C     C_1   0.459998 0.839827 0.162696 -0.101425
C45   C     C_1   0.364258 0.660258 0.337364 -0.101701
C46   C     C_1   0.348733 0.621783 0.375322 -0.194641
H28   H     H_    0.471522 0.789198 0.344144 0.136355
H29   H     H_    0.219039 0.785957 0.329110 0.135593
H30   H     H_    0.511265 0.862156 0.273293 0.136411
H31   H     H_    0.704242 0.709295 0.297937 0.135554
H32   H     H_    0.743981 0.782334 0.227195 0.134943
H33   H     H_    0.258800 0.858877 0.258250 0.136407
C47   C     C_R   0.471598 0.161658 0.088901 -0.040770
C48   C     C_R   0.352923 0.338217 0.411344 -0.040544
C49   C     C_R   0.527810 0.277730 0.093954 -0.165057
C50   C     C_R   0.520601 0.220427 0.063706 -0.169932
C51   C     C_R   0.430370 0.160441 0.145228 -0.216150
C52   C     C_R   0.439951 0.218250 0.177444 0.086495
C53   C     C_R   0.489318 0.277166 0.150307 0.142233
C54   C     C_R   0.404906 0.219715 0.235412 0.058652
C55   C     C_R   0.419778 0.280078 0.264888 0.058510
C56   C     C_R   0.468722 0.336914 0.235396 -0.189295
C57   C     C_R   0.502268 0.335297 0.179461 -0.205182
C58   C     C_R   0.356146 0.162871 0.264921 -0.189487
C59   C     C_R   0.322755 0.164490 0.320875 -0.205815
C60   C     C_R   0.335594 0.222637 0.350020 0.143699
C61   C     C_R   0.384692 0.281556 0.322849 0.086613
C62   C     C_R   0.297304 0.222098 0.406395 -0.167667
C63   C     C_R   0.304364 0.279438 0.436614 -0.171772
C64   C     C_R   0.393994 0.339396 0.355018 -0.216617
H34   H     H_    0.540028 0.380313 0.158756 0.118946
H35   H     H_    0.428105 0.386298 0.337661 0.092123
H36   H     H_    0.270613 0.278053 0.479865 0.104841
H37   H     H_    0.285209 0.119465 0.341600 0.118572
H38   H     H_    0.566229 0.322675 0.073281 0.109365
H39   H     H_    0.554573 0.221827 0.020476 0.103334
H40   H     H_    0.395875 0.113553 0.162551 0.092397
H41   H     H_    0.483086 0.383939 0.254363 0.120876
H42   H     H_    0.341960 0.115837 0.245954 0.120888
H43   H     H_    0.259178 0.177149 0.427109 0.107119
O11   O     O_R   0.323590 0.942280 0.056590 -0.535271
O12   O     O_R   0.647030 0.077140 0.045940 -0.537899
O13   O     O_R   0.813570 0.057750 0.943430 -0.535096
C65   C     C_R   0.478075 0.101024 0.056667 0.693941
O14   O     O_R   0.653510 0.943950 0.062820 -0.537361
O15   O     O_R   0.820100 0.923600 0.960440 -0.536424
C66   C     C_R   0.485474 0.923843 0.078796 0.725627
O16   O     O_R   0.317060 0.076430 0.039590 -0.536224
O17   O     O_3   0.483830 0.993520 0.966410 -0.366681
V3    V     V_3+5 0.760140 0.001200 0.006230 1.418926
O18   O     O_R   0.149560 0.922820 0.954030 -0.537918
C67   C     C_R   0.981466 0.898938 0.943358 0.693708
O19   O     O_R   0.143080 0.056020 0.937150 -0.537974
C68   C     C_R   0.973376 0.076051 0.921247 0.726208
V4    V     V_3+5 0.259690 0.998730 0.993720 1.419436
O20   O     O_3   0.986120 0.006480 0.033580 -0.366617
O21   O     O_3   0.189344 0.246025 0.669533 -0.548820
C69   C     C_3   0.247669 0.202326 0.628242 -0.302175
H44   H     H_    0.155153 0.208073 0.591122 0.138388
H45   H     H_    0.246690 0.150847 0.643045 0.130502
H46   H     H_    0.397122 0.214028 0.616320 0.159435

loop_
_geom_bond_atom_site_label_1
_geom_bond_atom_site_label_2
_ccdc_geom_bond_type
C13   C19   A    
C54   C58   A    
C56   C57   A    
C27   C31   S    
C5    C67   S    
C4    C6    S    
O2    C1    A    
C7    C8    A    
O16   V4    S    
C1    O6    A    
O17   V3    S    
H22   C40   S    
C52   C53   A    
C49   H38   S    
C26   C32   T    
C60   C62   A    
C14   C15   A    
C34   C68   S    
C16   C17   A    
C36   C37   S    
C64   H35   S    
C48   C63   A    
O5    C3    A    
C18   C19   A    
C8    H6    S    
O11   C66   A    
C49   C53   A    
V2    O10   S    
C47   C51   A    
C5    C8    A    
C28   C29   S    
C39   C43   S    
C40   H32   S    
V3    O20   S    
O8    V2    S    
C23   C28   S    
C50   H39   S    
O19   C68   A    
C24   C27   S    
C62   C63   A    
C36   H24   S    
O1    V2    S    
C11   C15   A    
O7    V1    S    
O13   V3    S    
C22   H2    S    
C25   H16   S    
C35   C40   S    
O9    C4    A    
C36   C39   S    
C33   C34   T    
C41   C44   S    
C62   H43   S    
C59   C60   A    
C52   C54   A    
C42   C43   S    
C35   C39   S    
C2    C48   S    
C69   H46   S    
C37   C41   S    
C45   C46   T    
C47   C65   S    
O4    C2    A    
C41   C42   S    
C29   C32   S    
C1    C46   S    
C15   H1    S    
C30   C31   S    
C43   H28   S    
C24   H14   S    
C47   C50   A    
C21   H3    S    
C63   H36   S    
C23   H20   S    
C17   H4    S    
C7    C11   A    
O13   C68   A    
C17   C18   A    
O17   V4    S    
C25   C29   S    
C69   H45   S    
O15   C67   A    
C30   H19   S    
C65   O16   A    
C54   C55   A    
C23   H12   S    
C35   H23   S    
C51   C52   A    
C35   H31   S    
C20   H10   S    
C19   C22   A    
C36   H25   S    
C12   C13   A    
C6    C22   A    
C25   H15   S    
O3    C4    A    
C7    H5    S    
C9    H7    S    
O6    V2    S    
O9    V2    S    
C37   H27   S    
C10   C12   A    
C40   C41   S    
C57   H34   S    
C58   H42   S    
O2    V1    S    
C37   H26   S    
C14   H8    S    
O14   C66   A    
C69   H44   S    
H11   C28   S    
C24   C25   S    
O1    C2    A    
C31   H17   S    
C12   C16   A    
O12   V3    S    
O21   C69   S    
O5    V1    S    
O8    C3    A    
V4    O20   S    
C28   H21   S    
C60   C61   A    
C24   H13   S    
C16   H9    S    
C55   C61   A    
C30   O21   S    
C20   C21   A    
O18   C67   A    
C13   C14   A    
C56   H41   S    
O4    V1    S    
C31   H18   S    
O3    V1    S    
C53   C57   A    
C18   C20   A    
C29   C30   S    
C27   C33   S    
C55   C56   A    
O14   V3    S    
O11   V4    S    
O7    V2    S    
C49   C50   A    
O18   V4    S    
C6    C21   A    
C5    C9    A    
C39   C45   S    
O12   C65   A    
C42   H30   S    
C59   H37   S    
C42   H33   S    
O15   V3    S    
C23   C27   S    
O19   V4    S    
C58   C59   A    
C38   C44   T    
C10   C11   A    
C51   H40   S    
V1    O10   S    
C9    C10   A    
C3    C26   S    
C38   C66   S    
C43   H29   S    
C48   C64   A    
C61   C64   A    
