data_mof_unit_29448.cif
_audit_creation_date              2012-12-10T18:43:43-0500
_audit_creation_method            fapswitch 2.2
_symmetry_space_group_name_H-M    P1
_symmetry_Int_Tables_number       1
_space_group_crystal_system       triclinic
_cell_length_a                    10.84331
_cell_length_b                    10.70484
_cell_length_c                    9.878622
_cell_angle_alpha                 90.362468
_cell_angle_beta                  105.363449
_cell_angle_gamma                 90.380062
_cell_volume                      1105.63005476

loop_
_atom_site_label
_atom_site_type_symbol
_atom_type_description
_atom_site_fract_x
_atom_site_fract_y
_atom_site_fract_z
_atom_type_partial_charge
Br1   Br    Br    0.698617 0.687317 0.899732 -0.469965
Br2   Br    Br    0.301374 0.312692 0.100268 -0.469799
C1    C     C_R   0.499522 0.260003 0.499540 0.905123
C2    C     C_2   0.878541 0.497287 0.597284 -0.311406
C3    C     C_2   0.058665 0.466688 0.496183 -0.067239
C4    C     C_2   0.941173 0.533324 0.503363 -0.066650
C5    C     C_R   0.532267 0.063545 0.390566 -0.153562
C6    C     C_R   0.467729 0.936455 0.609431 -0.153501
C7    C     C_R   0.533295 0.935565 0.391408 -0.129699
C8    C     C_R   0.466700 0.064435 0.608589 -0.129705
C9    C     C_R   0.500850 0.872494 0.500748 -0.022132
C10   C     C_R   0.499146 0.127506 0.499250 -0.022074
C11   C     C_2   0.889488 0.638155 0.404923 0.472497
C12   C     C_R   0.500477 0.739997 0.500459 0.904767
C13   C     C_2   0.109937 0.361230 0.593886 0.471888
C14   C     C_R   0.258961 0.496325 0.439960 0.995130
C15   C     C_R   0.741054 0.503773 0.560035 0.994324
C16   C     C_R   0.580345 0.576993 0.096506 -0.169525
C17   C     C_R   0.419629 0.423028 0.903485 -0.169236
C18   C     C_R   0.580904 0.577063 0.953398 0.320972
C19   C     C_R   0.419089 0.422942 0.046600 0.320972
C20   C     C_2   0.121533 0.503179 0.402665 -0.310476
H1    H     H_    0.644200 0.638710 0.170459 0.178380
H2    H     H_    0.104583 0.362285 0.701748 0.063568
H3    H     H_    0.355728 0.361351 0.829515 0.178265
H4    H     H_    0.920404 0.438689 0.686050 0.121365
H5    H     H_    0.080019 0.562504 0.314445 0.120889
H6    H     H_    0.558454 0.112067 0.306171 0.178968
H7    H     H_    0.441541 0.887933 0.693826 0.178979
H8    H     H_    0.560160 0.886352 0.307457 0.177455
H9    H     H_    0.439835 0.113648 0.692540 0.177309
H10   H     H_    0.894033 0.636045 0.296780 0.063519
N1    N     N_R   0.499970 0.499970 0.857200 -0.120193
N2    N     N_R   0.500030 0.500030 0.142800 -0.120211
O1    O     O_R   0.499990 0.316750 0.614620 -0.626549
O2    O     O_2   0.160636 0.271937 0.553565 -0.560527
O3    O     O_R   0.500010 0.683250 0.385380 -0.626529
O4    O     O_R   0.499990 0.316780 0.385290 -0.593772
O5    O     O_R   0.500010 0.683220 0.614710 -0.593807
O6    O     O_R   0.317810 0.500000 0.571850 -0.621402
O7    O     O_R   0.682190 0.500000 0.428150 -0.621572
O8    O     O_R   0.317810 0.500030 0.342520 -0.578397
O9    O     O_R   0.682190 0.499970 0.657480 -0.578343
O10   O     O_2   0.839307 0.727981 0.444916 -0.560498
Zn1   Zn    Zn3+2 0.500000 0.499980 0.653120 1.011204
Zn2   Zn    Zn3+2 0.500000 0.500020 0.346880 1.011193

loop_
_geom_bond_atom_site_label_1
_geom_bond_atom_site_label_2
_ccdc_geom_bond_type
C2    H4    S    
O7    Zn2   S    
C15   O9    A    
N2    Zn2   S    
O9    Zn1   S    
C11   H10   S    
O3    Zn2   S    
C1    O1    A    
O5    Zn1   S    
Br2   C19   S    
C1    C10   S    
C4    C11   S    
C7    C9    A    
C3    C4    S    
C8    C10   A    
C7    H8    S    
C14   O6    A    
C6    C9    A    
C18   N1    A    
C3    C20   D    
C2    C4    D    
C13   H2    S    
C17   C19   A    
C16   C18   A    
C20   H5    S    
C16   N2    A    
O8    Zn2   S    
O6    Zn1   S    
C17   H3    S    
C9    C12   S    
C15   O7    A    
C5    C10   A    
C3    C13   S    
O4    Zn2   S    
C6    H7    S    
C16   H1    S    
O1    Zn1   S    
C14   O8    A    
C13   O2    D    
N1    Zn1   S    
C6    C8    A    
C17   N1    A    
C5    C7    A    
Br1   C18   S    
C14   C20   S    
C19   N2    A    
C12   O5    A    
C8    H9    S    
C11   O10   D    
C5    H6    S    
C1    O4    A    
C12   O3    A    
C2    C15   S    
