data_mof_unit_60979.cif
_audit_creation_date              2012-12-10T19:13:20-0500
_audit_creation_method            fapswitch 2.2
_symmetry_space_group_name_H-M    P1
_symmetry_Int_Tables_number       1
_space_group_crystal_system       triclinic
_cell_length_a                    16.011274
_cell_length_b                    14.769746
_cell_length_c                    10.951006
_cell_angle_alpha                 90.00003
_cell_angle_beta                  89.989997
_cell_angle_gamma                 89.999944
_cell_volume                      2589.72069065

loop_
_atom_site_label
_atom_site_type_symbol
_atom_type_description
_atom_site_fract_x
_atom_site_fract_y
_atom_site_fract_z
_atom_type_partial_charge
C1    C     C_R   0.340896 0.500012 0.499984 0.829094
C2    C     C_R   0.659103 0.500012 0.500024 0.829094
C3    C     C_R   0.551293 0.952113 0.580672 -0.148029
C4    C     C_R   0.448707 0.952113 0.419329 -0.148036
C5    C     C_R   0.500000 0.902866 0.500000 0.047334
C6    C     C_R   0.448709 0.047894 0.419326 -0.151618
C7    C     C_R   0.551291 0.047894 0.580675 -0.151597
C8    C     C_R   0.500000 0.097139 0.500000 0.048998
C9    C     C_1   0.500000 0.802714 0.500000 0.127954
C10   C     C_1   0.500000 0.197288 0.500000 0.118157
C11   C     C_R   0.501042 0.500045 0.264731 0.851236
C12   C     C_R   0.498958 0.500045 0.735269 0.851229
C13   C     C_2   0.501813 0.425660 0.933136 -0.151305
C14   C     C_2   0.498185 0.425660 0.066864 -0.151363
C15   C     C_2   0.494691 0.501547 0.866947 -0.309480
C16   C     C_2   0.505308 0.501546 0.133053 -0.309504
C17   C     C_R   0.956160 0.590068 0.504250 0.419387
C18   C     C_R   0.043839 0.590068 0.504237 0.419353
C19   C     C_R   0.912587 0.506493 0.500604 -0.045142
C20   C     C_R   0.087413 0.506493 0.500583 -0.045140
C21   C     C_R   0.956601 0.424866 0.497071 -0.214724
C22   C     C_R   0.043400 0.424866 0.497061 -0.214712
C23   C     C_1   0.823055 0.502548 0.500346 -0.039577
C24   C     C_1   0.176944 0.502548 0.500315 -0.039585
C25   C     C_1   0.251892 0.500498 0.500129 -0.164805
C26   C     C_1   0.748108 0.500498 0.500165 -0.164804
Cu1   Cu    Cu3+1 0.500000 0.589220 0.500000 0.987922
Cu2   Cu    Cu3+1 0.500000 0.410780 0.500000 0.982020
H1    H     H_    0.509338 0.360513 0.888393 0.170208
H2    H     H_    0.490659 0.360513 0.111606 0.170191
H3    H     H_    0.483798 0.567156 0.907818 0.150938
H4    H     H_    0.516202 0.567156 0.092182 0.150939
H5    H     H_    0.923610 0.360810 0.494282 0.174342
H6    H     H_    0.076391 0.360810 0.494266 0.174315
H7    H     H_    0.591526 0.083560 0.643964 0.133696
H8    H     H_    0.408474 0.083560 0.356037 0.133629
H9    H     H_    0.591533 0.916448 0.643956 0.136772
H10   H     H_    0.408467 0.916448 0.356045 0.136694
N1    N     N_1   0.500000 0.276710 0.500000 -0.155149
N2    N     N_1   0.500000 0.723290 0.500000 -0.151487
O1    O     O_R   0.380310 0.575320 0.500020 -0.571246
O2    O     O_R   0.619690 0.575320 0.499980 -0.571245
O3    O     O_R   0.380310 0.424640 0.499970 -0.570314
O4    O     O_R   0.619690 0.424640 0.500030 -0.570319
O5    O     O_R   0.500000 0.575320 0.321940 -0.577481
O6    O     O_R   0.500000 0.575320 0.678060 -0.577520
O7    O     O_R   0.500000 0.424640 0.321880 -0.576759
O8    O     O_R   0.500000 0.424640 0.678120 -0.576715
O9    O     O_3   0.083663 0.673207 0.507849 -0.673524
H11   H     H_    0.144941 0.665047 0.507560 0.325642
O10   O     O_3   0.916335 0.673206 0.507878 -0.673564
H12   H     H_    0.855058 0.665046 0.507632 0.325601

loop_
_geom_bond_atom_site_label_1
_geom_bond_atom_site_label_2
_ccdc_geom_bond_type
C19   C23   S    
Cu2   O7    S    
C5    C9    S    
C16   H4    S    
C1    O3    A    
C11   C16   S    
Cu1   O1    S    
Cu2   O3    S    
C3    C7    A    
C11   O7    A    
C12   C15   S    
Cu1   N2    S    
C12   O8    A    
C17   O10   S    
C17   C18   A    
C14   H2    S    
C7    C8    A    
C2    C26   S    
C13   C14   S    
C1    C25   S    
Cu1   O2    S    
Cu1   O5    S    
C2    O2    A    
Cu1   O6    S    
C1    O1    A    
C17   C19   A    
C6    H8    S    
C18   C20   A    
C13   C15   D    
C22   H6    S    
C14   C16   D    
C11   O5    A    
C4    C6    A    
C21   H5    S    
C20   C22   A    
O10   H12   S    
C4    C5    A    
C24   C25   T    
C3    H9    S    
C8    C10   S    
O9    H11   S    
C23   C26   T    
C13   H1    S    
Cu1   Cu2   S    
Cu2   O8    S    
C6    C8    A    
Cu2   N1    S    
C19   C21   A    
C21   C22   A    
C7    H7    S    
C15   H3    S    
Cu2   O4    S    
C9    N2    T    
C2    O4    A    
C20   C24   S    
C18   O9    S    
C4    H10   S    
C10   N1    T    
C3    C5    A    
C12   O6    A    
