data_mof_unit_6431.cif
_audit_creation_date              2012-12-11T14:21:05-0500
_audit_creation_method            fapswitch 2.2
_symmetry_space_group_name_H-M    P1
_symmetry_Int_Tables_number       1
_space_group_crystal_system       triclinic
_cell_length_a                    22.002207
_cell_length_b                    7.202518
_cell_length_c                    14.905484
_cell_angle_alpha                 89.992489
_cell_angle_beta                  107.085681
_cell_angle_gamma                 89.998444
_cell_volume                      2257.84385363

loop_
_atom_site_label
_atom_site_type_symbol
_atom_type_description
_atom_site_fract_x
_atom_site_fract_y
_atom_site_fract_z
_atom_type_partial_charge
O1    O     O_R   0.584770 0.505770 0.002090 -0.536738
O2    O     O_R   0.415230 0.005770 0.997910 -0.536703
O3    O     O_R   0.467060 0.173340 0.861950 -0.539298
O4    O     O_R   0.532940 0.673340 0.138050 -0.539411
C1    C     C_R   0.455577 0.344230 0.825828 0.654365
C2    C     C_R   0.544422 0.844197 0.174176 0.654313
O5    O     O_R   0.587510 0.175890 0.993210 -0.542458
O6    O     O_R   0.412490 0.675890 0.006790 -0.542486
O7    O     O_R   0.536540 0.008150 0.130100 -0.534859
O8    O     O_R   0.463460 0.508150 0.869900 -0.534922
C3    C     C_R   0.613225 0.344709 0.999776 0.742281
C4    C     C_R   0.386775 0.844710 0.000226 0.742310
O9    O     O_3   0.483140 0.340040 0.044760 -0.374898
O10   O     O_3   0.516860 0.840040 0.955240 -0.374877
V1    V     V_3+5 0.503130 0.064190 0.991700 1.482523
V2    V     V_3+5 0.496870 0.564190 0.008300 1.482441
C5    C     C_2   0.213179 0.736094 0.993943 0.651258
C6    C     C_2   0.786855 0.236154 0.006212 0.650761
C7    C     C_2   0.184017 0.886714 0.018821 -0.292408
C8    C     C_2   0.815990 0.386696 0.981198 -0.292747
C9    C     C_2   0.282874 0.719036 0.007425 -0.135339
C10   C     C_2   0.717161 0.219027 0.992712 -0.135440
C11   C     C_2   0.318418 0.860304 0.991955 -0.291718
C12   C     C_2   0.681581 0.360326 0.008044 -0.292142
H1    H     H_    0.303861 0.581907 0.022913 0.163814
H2    H     H_    0.696208 0.081846 0.977345 0.163816
H3    H     H_    0.296280 0.994234 0.970313 0.158110
H4    H     H_    0.703692 0.494315 0.029580 0.158006
C13   C     C_R   0.924059 0.886153 0.724144 -0.269455
C14   C     C_R   0.075970 0.385929 0.275830 -0.269649
C15   C     C_R   0.570186 0.850042 0.276596 -0.101824
C16   C     C_R   0.429830 0.350285 0.723412 -0.101782
C17   C     C_R   0.931324 0.882341 0.565972 -0.219024
C18   C     C_R   0.068669 0.378903 0.433954 -0.219106
C19   C     C_R   0.960103 0.905520 0.661712 0.552493
C20   C     C_R   0.039854 0.403032 0.338283 0.552370
C21   C     C_R   0.858366 0.854265 0.690532 0.469250
C22   C     C_R   0.141741 0.355324 0.309374 0.469146
C23   C     C_R   0.826914 0.849885 0.592371 0.015666
C24   C     C_R   0.173175 0.349821 0.407524 0.015693
C25   C     C_R   0.865602 0.850544 0.531181 -0.077075
C26   C     C_R   0.134461 0.348232 0.468678 -0.077194
C27   C     C_R   0.759227 0.842396 0.552354 0.001596
C28   C     C_R   0.240873 0.343169 0.447550 0.001612
C29   C     C_R   0.732550 0.812254 0.453513 -0.041342
C30   C     C_R   0.267582 0.311681 0.546277 -0.041242
C31   C     C_R   0.774632 0.767633 0.399830 -0.013728
C32   C     C_R   0.225568 0.264981 0.599762 -0.013490
C33   C     C_R   0.839460 0.805992 0.436754 -0.064022
C34   C     C_R   0.160668 0.302458 0.562944 -0.064369
C35   C     C_R   0.717263 0.871767 0.606886 -0.147719
C36   C     C_R   0.282804 0.374597 0.393163 -0.147869
C37   C     C_R   0.651810 0.860079 0.568372 0.619649
C38   C     C_R   0.348274 0.363663 0.431670 0.619486
C39   C     C_R   0.625056 0.840824 0.471665 -0.027420
C40   C     C_R   0.375040 0.343181 0.528309 -0.027572
C41   C     C_R   0.665059 0.829624 0.412718 -0.007467
C42   C     C_R   0.335035 0.329853 0.587175 -0.007460
C43   C     C_R   0.558566 0.842827 0.432902 -0.038552
C44   C     C_R   0.441523 0.346146 0.567126 -0.038541
C45   C     C_R   0.530467 0.842433 0.335394 -0.096953
C46   C     C_R   0.469593 0.344773 0.664639 -0.096759
C47   C     C_R   0.636258 0.850628 0.315310 -0.175852
C48   C     C_R   0.363761 0.349738 0.684658 -0.175851
H5    H     H_    0.870933 0.785966 0.393545 0.189050
H6    H     H_    0.129219 0.280742 0.606046 0.189514
H7    H     H_    0.664362 0.872045 0.267773 0.115448
H8    H     H_    0.335589 0.369634 0.732224 0.115492
H9    H     H_    0.960669 0.886578 0.518934 0.174966
H10   H     H_    0.039295 0.381368 0.480975 0.175182
H11   H     H_    0.733110 0.911126 0.679544 0.237919
H12   H     H_    0.266904 0.415036 0.320655 0.237981
H13   H     H_    0.528436 0.846298 0.478815 0.207195
H14   H     H_    0.471664 0.351260 0.521258 0.207141
O11   O     O_R   0.036450 0.233070 0.130130 -0.536685
O12   O     O_R   0.963550 0.733070 0.869870 -0.536385
O13   O     O_R   0.912470 0.560570 0.006790 -0.550267
O14   O     O_R   0.087530 0.060570 0.993210 -0.550296
C49   C     C_R   0.886301 0.392171 0.999037 0.746387
C50   C     C_R   0.113703 0.892170 0.000974 0.745993
O15   O     O_R   0.032920 0.562940 0.138050 -0.545239
O16   O     O_R   0.967080 0.062940 0.861950 -0.545158
O17   O     O_R   0.084790 0.730500 0.002090 -0.502941
O18   O     O_R   0.915210 0.230500 0.997910 -0.503088
C51   C     C_R   0.045334 0.394438 0.174531 0.856240
C52   C     C_R   0.954666 0.894472 0.825463 0.855721
O19   O     O_3   0.016820 0.396170 0.955260 -0.378484
O20   O     O_3   0.983180 0.896170 0.044740 -0.378620
V3    V     V_3+5 0.996880 0.672090 0.008300 1.638000
V4    V     V_3+5 0.003120 0.172090 0.991700 1.637946
F1    F     F_    0.177584 0.587577 0.952785 -0.657613
F2    F     F_    0.822485 0.087800 0.047541 -0.657253
F3    F     F_    0.023733 0.935925 0.693939 -0.657092
F4    F     F_    0.976145 0.432058 0.306106 -0.656997
F5    F     F_    0.828031 0.812621 0.755154 -0.704342
F6    F     F_    0.172184 0.315677 0.244641 -0.704189
C53   C     C_2   0.754502 0.655889 0.312098 0.389944
H15   H     H_    0.711407 0.573248 0.296334 0.050376
O21   O     O_2   0.786294 0.651926 0.257318 -0.500091
C54   C     C_2   0.245898 0.152015 0.687085 0.389284
H16   H     H_    0.289149 0.070124 0.702559 0.050702
O22   O     O_2   0.214108 0.146217 0.741837 -0.500303
C55   C     C_2   0.220147 0.043026 0.075656 0.372628
H17   H     H_    0.199860 0.181559 0.067791 0.147642
O23   O     O_2   0.270811 0.016963 0.135638 -0.489933
C56   C     C_2   0.779837 0.542830 0.924213 0.373521
H18   H     H_    0.800102 0.681376 0.931954 0.147275
O24   O     O_2   0.729180 0.516590 0.864248 -0.489667
C57   C     C_2   0.460054 0.839763 0.295999 0.527788
H19   H     H_    0.437810 0.844127 0.220729 0.022316
O25   O     O_2   0.425819 0.832575 0.347255 -0.483518
C58   C     C_2   0.540006 0.343269 0.704081 0.527321
H20   H     H_    0.562216 0.346740 0.779370 0.022605
O26   O     O_2   0.574282 0.338007 0.652841 -0.484090
F7    F     F_    0.614379 0.882178 0.625708 -0.651457
F8    F     F_    0.385684 0.387751 0.374447 -0.651064

loop_
_geom_bond_atom_site_label_1
_geom_bond_atom_site_label_2
_ccdc_geom_bond_type
C39   C43   A    
C15   C45   A    
C37   C39   A    
C5    F1    S    
C45   C57   S    
C2    O7    A    
C58   O26   D    
C53   H15   S    
C23   C25   A    
O14   V4    S    
O5    C3    A    
C4    C11   S    
C29   C41   A    
C33   H5    S    
C48   H8    S    
C57   O25   D    
C49   O18   A    
O14   C50   A    
C56   H18   S    
C3    C12   S    
C14   C22   A    
C44   C46   A    
C29   C31   A    
C44   H14   S    
O11   V4    S    
C17   C19   A    
C7    C55   S    
O11   C51   A    
C28   C30   A    
C18   C26   A    
C38   F8    S    
C11   H3    S    
C43   H13   S    
C18   C20   A    
C17   H9    S    
O12   V3    S    
C1    C16   S    
O15   V3    S    
C28   C36   A    
O13   C49   A    
C2    C15   S    
O2    C4    A    
O6    V2    S    
C30   C42   A    
C35   H11   S    
C50   O17   A    
O17   V3    S    
C25   C33   A    
C58   H20   S    
C53   O21   D    
C36   C38   A    
C41   C47   A    
C8    C56   S    
C19   F3    S    
C42   C48   A    
C32   C54   S    
C47   H7    S    
C43   C45   A    
C15   C47   A    
C16   C48   A    
O4    C2    A    
C18   H10   S    
C23   C27   A    
O5    V1    S    
O16   C52   A    
C5    C9    S    
C40   C44   A    
C35   C37   A    
O4    V2    S    
C36   H12   S    
C34   H6    S    
O6    C4    A    
O13   V3    S    
C54   O22   D    
C55   O23   D    
O1    V2    S    
C14   C51   S    
O2    V1    S    
C27   C29   A    
C13   C52   S    
C26   C34   A    
C39   C41   A    
C10   C12   D    
O19   V4    S    
C13   C21   A    
O12   C52   A    
O3    V1    S    
O18   V4    S    
C9    H1    S    
C8    C49   S    
C6    C10   S    
C12   H4    S    
C24   C26   A    
O3    C1    A    
C31   C53   S    
C38   C40   A    
C31   C33   A    
C13   C19   A    
O16   V4    S    
C14   C20   A    
C6    F2    S    
C9    C11   D    
O7    V1    S    
C17   C25   A    
C1    O8    A    
C21   C23   A    
O8    V2    S    
C57   H19   S    
C22   C24   A    
C27   C35   A    
C56   O24   D    
C32   C34   A    
C54   H16   S    
C5    C7    D    
C40   C42   A    
C6    C8    D    
C7    C50   S    
C21   F5    S    
C16   C46   A    
C30   C32   A    
C20   F4    S    
C24   C28   A    
C46   C58   S    
O20   V3    S    
C10   H2    S    
O9    V2    S    
C22   F6    S    
C55   H17   S    
O10   V1    S    
O1    C3    A    
O15   C51   A    
C37   F7    S    
