data_mof_unit_33186.cif
_audit_creation_date              2012-12-10T17:51:26-0500
_audit_creation_method            fapswitch 2.2
_symmetry_space_group_name_H-M    P1
_symmetry_Int_Tables_number       1
_space_group_crystal_system       triclinic
_cell_length_a                    9.915536
_cell_length_b                    10.723381
_cell_length_c                    16.83365
_cell_angle_alpha                 92.411483
_cell_angle_beta                  85.109177
_cell_angle_gamma                 88.456634
_cell_volume                      1780.95550127

loop_
_atom_site_label
_atom_site_type_symbol
_atom_type_description
_atom_site_fract_x
_atom_site_fract_y
_atom_site_fract_z
_atom_type_partial_charge
C1    C     C_R   0.497756 0.740415 0.496610 0.873596
C2    C     C_R   0.343475 0.544061 0.783058 -0.210211
C3    C     C_R   0.417644 0.548886 0.141884 -0.150627
C4    C     C_R   0.412425 0.515755 0.220580 -0.211635
C5    C     C_R   0.652849 0.552458 0.222445 -0.204175
C6    C     C_R   0.657960 0.585777 0.143485 -0.180603
C7    C     C_R   0.539912 0.586995 0.103541 0.207861
C8    C     C_2   0.443938 0.654386 0.982055 -0.244206
C9    C     C_2   0.550288 0.614476 0.019267 -0.231847
C10   C     C_R   0.529361 0.519399 0.261710 -0.033842
C11   C     C_R   0.236953 0.897865 0.498820 -0.170023
C12   C     C_R   0.480915 0.506437 0.653013 0.838174
C13   C     C_R   0.119218 0.964691 0.528146 -0.150111
C14   C     C_R   0.128284 0.079159 0.568725 -0.159339
C15   C     C_R   0.254149 0.132477 0.572437 -0.146293
C16   C     C_R   0.373035 0.070277 0.536135 0.101191
C17   C     C_R   0.366827 0.945103 0.510108 0.095434
C18   C     C_R   0.491419 0.874921 0.496376 -0.121968
C19   C     C_R   0.615451 0.934453 0.494700 -0.220101
C20   C     C_R   0.618084 0.061357 0.505112 -0.226805
C21   C     C_R   0.497533 0.130146 0.521968 -0.128881
C22   C     C_R   0.841041 0.665344 0.605361 -0.162425
C23   C     C_R   0.499629 0.261777 0.509082 0.889243
C24   C     C_R   0.901841 0.744741 0.658253 -0.227997
C25   C     C_R   0.041336 0.742437 0.659244 -0.182231
C26   C     C_R   0.120857 0.661699 0.606730 -0.153112
C27   C     C_R   0.062591 0.579725 0.552693 0.130848
C28   C     C_R   0.918135 0.580715 0.552246 0.135707
C29   C     C_R   0.940401 0.422691 0.448942 0.185440
C30   C     C_R   0.083272 0.425827 0.448645 -0.118121
C31   C     C_R   0.518816 0.501176 0.347033 0.865871
C32   C     C_R   0.468758 0.544278 0.737506 -0.027070
C33   C     C_R   0.580625 0.596502 0.770461 -0.218234
C34   C     C_R   0.568774 0.645944 0.847800 -0.159644
C35   C     C_R   0.446999 0.636612 0.895438 0.208624
C36   C     C_R   0.332983 0.589375 0.862193 -0.173349
H1    H     H_    0.677773 0.600222 0.736665 0.159857
H2    H     H_    0.753718 0.611647 0.113711 0.124207
H3    H     H_    0.222667 0.812649 0.464732 0.174177
H4    H     H_    0.037513 0.128811 0.594671 0.137285
H5    H     H_    0.257664 0.222426 0.603736 0.156453
H6    H     H_    0.714432 0.105707 0.498013 0.178043
H7    H     H_    0.733593 0.672761 0.608226 0.203759
H8    H     H_    0.840118 0.808560 0.698638 0.151213
H9    H     H_    0.316380 0.488795 0.249413 0.152523
H10   H     H_    0.088508 0.804917 0.700043 0.156049
H11   H     H_    0.227531 0.667676 0.608981 0.208356
H12   H     H_    0.744461 0.555720 0.253142 0.152697
H13   H     H_    0.238082 0.582023 0.898430 0.123402
H14   H     H_    0.326503 0.541966 0.111132 0.123770
H15   H     H_    0.254869 0.507143 0.758064 0.155740
H16   H     H_    0.347725 0.679416 0.015344 0.145585
H17   H     H_    0.656839 0.686469 0.871300 0.126918
N1    N     N_R   0.857140 0.501200 0.500750 -0.146460
N2    N     N_R   0.142740 0.501280 0.500770 -0.145413
O1    O     O_R   0.385310 0.683220 0.500000 -0.649665
O2    O     O_R   0.614640 0.683250 0.500010 -0.637173
O3    O     O_R   0.371780 0.500010 0.615800 -0.643669
O4    O     O_R   0.601110 0.500030 0.615800 -0.631436
O5    O     O_R   0.385360 0.316750 0.499990 -0.618426
O6    O     O_R   0.614690 0.316780 0.500000 -0.625506
O7    O     O_R   0.398890 0.499970 0.384200 -0.616551
O8    O     O_R   0.628220 0.499990 0.384200 -0.642162
Zn1   Zn    Zn3+2 0.346870 0.499980 0.499990 0.918169
Zn2   Zn    Zn3+2 0.653130 0.500020 0.500010 0.919962
H18   H     H_    0.711538 0.883392 0.483802 0.173595
H19   H     H_    0.020929 0.926513 0.520473 0.149452
C37   C     C_3   0.886033 0.332274 0.389110 -0.376289
C38   C     C_3   0.934909 0.197686 0.399282 -0.918226
H20   H     H_    0.042138 0.182979 0.375209 0.260154
H21   H     H_    0.926144 0.175549 0.463215 0.262515
H22   H     H_    0.872909 0.132095 0.366102 0.253309
H23   H     H_    0.775648 0.333258 0.393640 0.274163
H24   H     H_    0.919561 0.359885 0.327823 0.178286
H25   H     H_    0.147812 0.366918 0.406729 0.163457
H26   H     H_    0.645952 0.587887 0.985817 0.148746

loop_
_geom_bond_atom_site_label_1
_geom_bond_atom_site_label_2
_ccdc_geom_bond_type
C8    C9    D    
O8    Zn2   S    
C16   C21   A    
C19   C20   A    
N1    Zn2   S    
C26   C27   A    
C1    O1    A    
C34   C35   A    
C3    C7    A    
C5    C6    A    
C27   N2    A    
C29   N1    A    
C37   H24   S    
C15   C16   A    
C19   H18   S    
C2    C32   A    
C18   C19   A    
C38   H21   S    
O7    Zn1   S    
C12   O4    A    
C10   C31   S    
C35   C36   A    
C16   C17   A    
O1    Zn1   S    
C9    H26   S    
C8    H16   S    
C12   O3    A    
C22   C28   A    
C13   C14   A    
C12   C32   S    
C31   O7    A    
C3    H14   S    
C33   C34   A    
C4    H9    S    
O3    Zn1   S    
C23   O5    A    
C5    H12   S    
C31   O8    A    
C24   C25   A    
C15   H5    S    
C28   N1    A    
C37   C38   S    
C37   H23   S    
C33   H1    S    
C8    C35   S    
C38   H22   S    
C29   C30   A    
C1    O2    A    
C29   C37   S    
C22   H7    S    
N2    Zn1   S    
C6    H2    S    
C17   C18   A    
C1    C18   S    
C11   H3    S    
C26   H11   S    
C21   C23   S    
C24   H8    S    
C22   C24   A    
C4    C10   A    
C3    C4    A    
C13   H19   S    
C2    C36   A    
C7    C9    S    
C11   C17   A    
O2    Zn2   S    
C20   H6    S    
C6    C7    A    
C30   N2    A    
O5    Zn1   S    
C32   C33   A    
C25   C26   A    
C5    C10   A    
O4    Zn2   S    
C30   H25   S    
C11   C13   A    
C38   H20   S    
C2    H15   S    
C14   H4    S    
O6    Zn2   S    
C23   O6    A    
C20   C21   A    
C34   H17   S    
C27   C28   A    
C14   C15   A    
C25   H10   S    
C36   H13   S    
