data_mof_unit_64346.cif
_audit_creation_date              2013-03-05T16:52:49-0500
_audit_creation_method            fapswitch 2.2
_symmetry_space_group_name_H-M    P1
_symmetry_Int_Tables_number       1
_space_group_crystal_system       triclinic
_cell_length_a                    22.429783
_cell_length_b                    22.446239
_cell_length_c                    15.080285
_cell_angle_alpha                 89.998983
_cell_angle_beta                  89.997823
_cell_angle_gamma                 90.000305
_cell_volume                      7592.38467117

loop_
_atom_site_label
_atom_site_type_symbol
_atom_site_description
_atom_site_fract_x
_atom_site_fract_y
_atom_site_fract_z
_atom_type_partial_charge
O1    O     O_R   0.061000 0.439020 0.573650 -0.595960
O2    O     O_R   0.939000 0.560980 0.426350 -0.595162
O3    O     O_R   0.939000 0.560980 0.573650 -0.595802
O4    O     O_R   0.061000 0.439020 0.426350 -0.595012
O5    O     O_R   0.939000 0.439020 0.426350 -0.595687
O6    O     O_R   0.061000 0.560980 0.573650 -0.595008
O7    O     O_R   0.061000 0.560980 0.426350 -0.595518
O8    O     O_R   0.939000 0.439020 0.573650 -0.594859
O9    O     O_R   0.561000 0.939020 0.573650 -0.594668
O10   O     O_R   0.439000 0.060980 0.426350 -0.595463
O11   O     O_R   0.439000 0.060980 0.573650 -0.594523
O12   O     O_R   0.561000 0.939020 0.426350 -0.595298
O13   O     O_R   0.439000 0.939020 0.426350 -0.595509
O14   O     O_R   0.561000 0.060980 0.573650 -0.596200
O15   O     O_R   0.561000 0.060980 0.426350 -0.595361
O16   O     O_R   0.439000 0.939020 0.573650 -0.596033
C1    C     C_R   0.080432 0.419371 0.499996 0.889418
C2    C     C_R   0.919569 0.580630 0.499997 0.889405
C3    C     C_R   0.919568 0.419370 0.500005 0.889433
C4    C     C_R   0.080432 0.580629 0.500001 0.889427
C5    C     C_R   0.580433 0.919372 0.500003 0.889496
C6    C     C_R   0.419567 0.080629 0.500004 0.889495
C7    C     C_R   0.419568 0.919372 0.499999 0.889366
C8    C     C_R   0.580433 0.080628 0.499995 0.889384
Zn1   Zn    Zn3+2 1.000000 0.500000 0.598370 1.069785
Zn2   Zn    Zn3+2 1.000000 0.500000 0.401630 1.069917
Zn3   Zn    Zn3+2 0.500000 0.000000 0.598370 1.069912
Zn4   Zn    Zn3+2 0.500000 0.000000 0.401630 1.069798
H1    H     H_    0.007275 0.404362 0.081830 0.176494
H2    H     H_    0.992725 0.595638 0.918170 0.176517
H3    H     H_    0.992725 0.595638 0.081826 0.176488
H4    H     H_    0.007275 0.404362 0.918174 0.176488
H5    H     H_    0.471964 0.908269 0.081832 0.176808
H6    H     H_    0.528036 0.091731 0.918168 0.176654
H7    H     H_    0.528036 0.091731 0.081824 0.176793
H8    H     H_    0.471964 0.908269 0.918176 0.176673
C9    C     C_R   0.004078 0.446390 0.953138 -0.096942
C10   C     C_R   0.995922 0.553610 0.046862 -0.096839
C11   C     C_R   0.995922 0.553610 0.953136 -0.096914
C12   C     C_R   0.004078 0.446390 0.046864 -0.096850
C13   C     C_R   0.484285 0.948580 0.953139 -0.097324
C14   C     C_R   0.515716 0.051420 0.046861 -0.097244
C15   C     C_R   0.515715 0.051420 0.953135 -0.097411
C16   C     C_R   0.484285 0.948580 0.046865 -0.097299
C17   C     C_R   1.000000 0.500000 0.905037 0.033443
C18   C     C_R   1.000000 0.500000 0.094963 0.033423
C19   C     C_R   0.500000 1.000000 0.905037 0.034091
C20   C     C_R   0.500000 1.000000 0.094963 0.033856
C21   C     C_R   0.227501 0.728507 0.581559 0.201165
C22   C     C_R   0.775514 0.268414 0.418721 0.201285
C23   C     C_R   0.772064 0.271930 0.581564 0.201149
C24   C     C_R   0.225058 0.731016 0.418636 0.201283
C25   C     C_R   0.772107 0.728103 0.418437 0.201388
C26   C     C_R   0.224323 0.268245 0.581244 0.201559
C27   C     C_R   0.228164 0.272169 0.418442 0.201384
C28   C     C_R   0.775482 0.731557 0.581284 0.201551
C29   C     C_R   0.724609 0.231464 0.581282 0.201948
C30   C     C_R   0.272516 0.771480 0.418440 0.201813
C31   C     C_R   0.274959 0.768971 0.581364 0.201925
C32   C     C_R   0.728058 0.227948 0.418441 0.201819
C33   C     C_R   0.275621 0.231705 0.418753 0.200922
C34   C     C_R   0.728025 0.772022 0.581557 0.200809
C35   C     C_R   0.724650 0.768567 0.418711 0.200918
C36   C     C_R   0.271779 0.227780 0.581554 0.200808
C37   C     C_R   0.203146 0.709956 0.500190 -0.193399
C38   C     C_R   0.796916 0.289985 0.500275 -0.193365
C39   C     C_R   0.796922 0.710018 0.499731 -0.193039
C40   C     C_R   0.203114 0.290016 0.499696 -0.193052
C41   C     C_R   0.703196 0.209905 0.499728 -0.193266
C42   C     C_R   0.296870 0.790032 0.499809 -0.193238
C43   C     C_R   0.296834 0.209937 0.500302 -0.193163
C44   C     C_R   0.703200 0.790096 0.500264 -0.193184
C45   C     C_1   1.000000 0.500000 0.807155 0.153311
C46   C     C_1   1.000000 0.500000 0.192845 0.153464
C47   C     C_1   0.500000 1.000000 0.807155 0.153338
C48   C     C_1   0.500000 1.000000 0.192845 0.153185
N1    N     N_1   1.000000 0.500000 0.270550 -0.064839
N2    N     N_1   1.000000 0.500000 0.729450 -0.064875
N3    N     N_1   0.500000 0.000000 0.270550 -0.064859
N4    N     N_1   0.500000 0.000000 0.729450 -0.064834
C49   C     C_1   0.159558 0.664423 0.500092 0.173608
C50   C     C_1   0.840481 0.335539 0.500140 0.173620
C51   C     C_1   0.840486 0.664463 0.499867 0.173539
C52   C     C_1   0.159537 0.335559 0.499847 0.173547
C53   C     C_1   0.659591 0.164390 0.499860 0.173667
C54   C     C_1   0.340451 0.835570 0.499908 0.173675
C55   C     C_1   0.340429 0.164411 0.500152 0.173337
C56   C     C_1   0.659594 0.835611 0.500131 0.173340
C57   C     C_1   0.876660 0.374075 0.500040 -0.067007
C58   C     C_1   0.123360 0.625907 0.500021 -0.067002
C59   C     C_1   0.123349 0.374084 0.499959 -0.067234
C60   C     C_1   0.876662 0.625927 0.499966 -0.067248
C61   C     C_1   0.376645 0.874090 0.499979 -0.067610
C62   C     C_1   0.623376 0.125890 0.499960 -0.067604
C63   C     C_1   0.623378 0.874110 0.500034 -0.066681
C64   C     C_1   0.376634 0.125901 0.500041 -0.066698
N5    N     N_R   0.793248 0.296553 0.663859 0.250117
O17   O     O_R   0.850015 0.297520 0.681613 -0.324859
O18   O     O_R   0.755790 0.318336 0.721228 -0.269825
N6    N     N_R   0.200895 0.709440 0.336261 0.250234
O19   O     O_R   0.143568 0.709046 0.323017 -0.325304
O20   O     O_R   0.236195 0.689865 0.274286 -0.269351
N7    N     N_R   0.205809 0.704393 0.663898 0.250123
O21   O     O_R   0.148936 0.703556 0.680911 -0.324842
O22   O     O_R   0.242909 0.682946 0.722053 -0.269860
N8    N     N_R   0.800188 0.289477 0.336383 0.250220
O23   O     O_R   0.857597 0.289819 0.323933 -0.325330
O24   O     O_R   0.765275 0.308636 0.273643 -0.269407
N9    N     N_R   0.207179 0.296999 0.336171 0.249945
O25   O     O_R   0.150456 0.297991 0.318106 -0.325730
O26   O     O_R   0.244773 0.318946 0.279139 -0.269665
N10   N     N_R   0.800118 0.710461 0.663626 0.250023
O27   O     O_R   0.857521 0.710126 0.676135 -0.325874
O28   O     O_R   0.765176 0.691259 0.726306 -0.269367
N11   N     N_R   0.793328 0.703512 0.336139 0.249932
O29   O     O_R   0.850103 0.702557 0.318432 -0.325827
O30   O     O_R   0.755897 0.681743 0.278724 -0.269713
N12   N     N_R   0.199452 0.289102 0.663565 0.250010
O31   O     O_R   0.142014 0.289400 0.675721 -0.325972
O32   O     O_R   0.234214 0.308120 0.726584 -0.269420
N13   N     N_R   0.299122 0.790547 0.663740 0.249808
O33   O     O_R   0.356451 0.790957 0.676975 -0.326876
O34   O     O_R   0.263822 0.810108 0.725724 -0.270898
N14   N     N_R   0.706877 0.203320 0.336146 0.249731
O35   O     O_R   0.650114 0.202385 0.318362 -0.326673
O36   O     O_R   0.744336 0.181504 0.278807 -0.271253
N15   N     N_R   0.699940 0.210395 0.663620 0.249805
O37   O     O_R   0.642534 0.210086 0.676101 -0.326835
O38   O     O_R   0.734857 0.191199 0.726331 -0.270988
N16   N     N_R   0.294206 0.795596 0.336099 0.249717
O39   O     O_R   0.351079 0.796454 0.319095 -0.326637
O40   O     O_R   0.257102 0.817028 0.277937 -0.271303
N17   N     N_R   0.700016 0.789664 0.336369 0.250352
O41   O     O_R   0.642615 0.789973 0.323840 -0.323622
O42   O     O_R   0.734959 0.808882 0.273702 -0.268643
N18   N     N_R   0.292764 0.202950 0.663825 0.250220
O43   O     O_R   0.349485 0.201967 0.681898 -0.323311
O44   O     O_R   0.255169 0.180999 0.720854 -0.269188
N19   N     N_R   0.300492 0.210848 0.336432 0.250338
O45   O     O_R   0.357929 0.210562 0.324269 -0.323742
O46   O     O_R   0.265730 0.191826 0.273416 -0.268693
N20   N     N_R   0.706807 0.796615 0.663855 0.250215
O47   O     O_R   0.650035 0.797548 0.681582 -0.323413
O48   O     O_R   0.744240 0.818397 0.721256 -0.269206

loop_
_geom_bond_atom_site_label_1
_geom_bond_atom_site_label_2
_geom_bond_distance
_ccdc_geom_bond_type
C31   N13   1.439281 S    
C36   N18   1.439257 S    
C23   N5    1.439267 S    
O2    C2    1.271988 A    
C25   C35   1.399300 A    
C20   C48   1.476094 S    
C1    C59   1.399989 S    
C48   N3    1.171811 T    
N10   O28   1.301301 A    
N5    O17   1.301306 A    
O10   C6    1.272084 A    
C39   C51   1.414346 S    
C51   C60   1.186020 T    
O7    Zn2   1.970927 S    
C21   C37   1.406256 A    
O12   Zn4   1.970929 S    
C26   C36   1.399303 A    
C35   N17   1.439264 S    
C9    C12   1.413413 A    
N9    O26   1.301300 A    
C10   C11   1.413412 A    
O6    Zn1   1.970898 S    
C26   C40   1.406225 A    
N8    O23   1.301307 A    
N11   O29   1.301308 A    
O13   C7    1.271997 A    
O3    C2    1.272076 A    
C17   C45   1.476096 S    
C36   C43   1.406265 A    
O14   C8    1.272071 A    
C32   N14   1.439266 S    
H7    C14   1.083107 S    
N12   O31   1.301307 A    
C44   C56   1.414359 S    
N11   O30   1.301300 A    
C46   N1    1.171809 T    
C45   N2    1.171809 T    
O13   Zn4   1.970899 S    
C23   C29   1.399299 A    
C52   C59   1.186018 T    
C22   N8    1.439277 S    
O14   Zn3   1.970898 S    
C47   N4    1.171811 T    
C11   C17   1.408028 A    
C33   C43   1.406230 A    
O16   Zn3   1.970928 S    
C49   C58   1.186022 T    
C56   C63   1.186025 T    
C27   N9    1.439262 S    
O1    Zn1   1.970919 S    
O8    Zn1   1.970928 S    
H8    C13   1.083107 S    
C34   N20   1.439258 S    
N10   O27   1.301307 A    
N5    O18   1.301303 A    
C27   C40   1.406260 A    
Zn2   N1    1.976725 S    
N13   O34   1.301301 A    
Zn1   N2    1.976725 S    
O8    C3    1.271990 A    
O3    Zn1   1.970928 S    
C50   C57   1.186023 T    
O2    Zn2   1.970917 S    
Zn3   N4    1.976725 S    
C33   N19   1.439267 S    
C5    C63   1.400003 S    
C4    C58   1.399997 S    
O12   C5    1.272078 A    
C24   N6    1.439267 S    
C7    C61   1.399978 S    
C23   C38   1.406267 A    
C40   C52   1.414347 S    
N16   O40   1.301302 A    
N15   O38   1.301299 A    
C29   N15   1.439274 S    
C3    C57   1.399997 S    
C54   C61   1.186012 T    
C8    C62   1.399977 S    
C38   C50   1.414352 S    
C53   C62   1.186013 T    
C37   C49   1.414352 S    
O11   Zn3   1.970928 S    
C55   C64   1.186027 T    
N6    O20   1.301300 A    
C13   C19   1.408029 A    
C34   C44   1.406265 A    
N7    O22   1.301301 A    
C14   C20   1.408028 A    
H4    C9    1.083104 S    
C22   C38   1.406237 A    
N13   O33   1.301306 A    
C24   C30   1.399301 A    
C43   C55   1.414358 S    
O4    C1    1.271983 A    
N18   O44   1.301299 A    
O15   C8    1.271984 A    
O16   C7    1.272062 A    
C26   N12   1.439274 S    
N17   O41   1.301305 A    
C13   C16   1.413416 A    
C28   C34   1.399303 A    
C14   C15   1.413416 A    
C12   C18   1.408028 A    
C9    C17   1.408029 A    
N15   O37   1.301308 A    
C42   C54   1.414337 S    
C18   C46   1.476094 S    
C41   C53   1.414333 S    
O9    Zn3   1.970919 S    
N14   O36   1.301300 A    
O10   Zn4   1.970917 S    
H5    C16   1.083105 S    
C6    C64   1.400002 S    
C30   C42   1.406262 A    
H6    C15   1.083105 S    
N18   O43   1.301305 A    
C21   N7    1.439260 S    
O4    Zn2   1.970929 S    
N19   O45   1.301306 A    
O5    C3    1.272075 A    
C28   C39   1.406226 A    
O6    C4    1.272000 A    
O11   C6    1.271987 A    
O1    C1    1.272079 A    
C21   C31   1.399302 A    
H3    C10   1.083105 S    
C22   C32   1.399302 A    
N16   O39   1.301308 A    
C2    C60   1.399989 S    
N9    O25   1.301306 A    
N19   O46   1.301301 A    
O9    C5    1.271990 A    
O15   Zn4   1.970927 S    
N8    O24   1.301302 A    
C32   C41   1.406260 A    
C30   N16   1.439274 S    
C27   C33   1.399303 A    
H1    C12   1.083106 S    
N6    O19   1.301306 A    
H2    C11   1.083105 S    
N20   O48   1.301302 A    
C25   C39   1.406259 A    
N12   O32   1.301301 A    
C10   C18   1.408028 A    
C31   C42   1.406237 A    
C19   C47   1.476096 S    
O5    Zn2   1.970899 S    
C16   C20   1.408029 A    
C35   C44   1.406229 A    
Zn4   N3    1.976725 S    
O7    C4    1.272065 A    
N7    O21   1.301305 A    
N17   O42   1.301299 A    
N20   O47   1.301304 A    
C29   C41   1.406229 A    
C15   C19   1.408029 A    
C28   N10   1.439273 S    
C24   C37   1.406233 A    
C25   N11   1.439268 S    
N14   O35   1.301305 A    
