data_mof_unit_32153.cif
_audit_creation_date              2012-12-11T15:21:44-0500
_audit_creation_method            fapswitch 2.2
_symmetry_space_group_name_H-M    P1
_symmetry_Int_Tables_number       1
_space_group_crystal_system       triclinic
_cell_length_a                    19.149863
_cell_length_b                    7.147332
_cell_length_c                    17.665244
_cell_angle_alpha                 89.998164
_cell_angle_beta                  109.015776
_cell_angle_gamma                 89.999774
_cell_volume                      2285.90480088

loop_
_atom_site_label
_atom_site_type_symbol
_atom_type_description
_atom_site_fract_x
_atom_site_fract_y
_atom_site_fract_z
_atom_type_partial_charge
O1    O     O_R   0.562310 0.505770 0.439670 -0.534875
O2    O     O_R   0.437690 0.005770 0.560330 -0.534899
O3    O     O_R   0.411650 0.169150 0.405330 -0.536609
O4    O     O_R   0.588350 0.669150 0.594670 -0.536603
C1    C     C_R   0.384544 0.345895 0.382769 0.624795
C2    C     C_R   0.615456 0.845892 0.617232 0.624833
O5    O     O_R   0.560140 0.175610 0.430010 -0.540253
O6    O     O_R   0.439860 0.675610 0.569990 -0.540253
O7    O     O_R   0.587240 0.012100 0.585200 -0.540042
O8    O     O_R   0.412760 0.512100 0.414800 -0.540046
C3    C     C_R   0.581122 0.344589 0.414975 0.697101
C4    C     C_R   0.418877 0.844588 0.585025 0.697063
O9    O     O_3   0.508720 0.341420 0.550890 -0.370937
O10   O     O_3   0.491280 0.841420 0.449110 -0.370929
V1    V     V_3+5 0.498380 0.063930 0.490560 1.380426
V2    V     V_3+5 0.501620 0.563930 0.509440 1.380438
C5    C     C_R   0.176554 0.065791 0.862316 -0.225669
C6    C     C_R   0.823431 0.565770 0.137663 -0.225687
C7    C     C_R   0.129218 0.916261 0.863901 -0.081186
C8    C     C_R   0.870773 0.416246 0.136089 -0.081205
C9    C     C_R   0.129409 0.755228 0.817980 -0.195937
C10   C     C_R   0.870571 0.255193 0.181999 -0.195910
C11   C     C_R   0.175726 0.743383 0.770674 0.018348
C12   C     C_R   0.824239 0.243328 0.229289 0.018523
C13   C     C_R   0.223832 0.892533 0.770467 0.052334
C14   C     C_R   0.776133 0.392483 0.229491 0.052250
C15   C     C_R   0.224482 0.053927 0.816853 0.112699
C16   C     C_R   0.775489 0.553887 0.183108 0.112703
C17   C     C_R   0.174828 0.584538 0.723758 -0.266184
C18   C     C_R   0.825107 0.084435 0.276176 -0.266120
C19   C     C_R   0.220645 0.572824 0.676002 0.434719
C20   C     C_R   0.779244 0.072678 0.323882 0.433698
C21   C     C_R   0.271189 0.718402 0.677895 -0.023911
C22   C     C_R   0.728754 0.218330 0.322041 -0.023699
C23   C     C_R   0.271894 0.879688 0.724528 -0.005960
C24   C     C_R   0.728064 0.379634 0.275422 -0.006242
C25   C     C_R   0.320864 0.028202 0.725642 0.140341
C26   C     C_R   0.679099 0.528157 0.274311 0.140397
C27   C     C_R   0.321576 0.186931 0.772679 -0.122812
C28   C     C_R   0.678375 0.686868 0.227255 -0.122478
C29   C     C_R   0.273676 0.199923 0.817656 -0.183925
C30   C     C_R   0.726281 0.699866 0.182286 -0.183855
C31   C     C_R   0.320790 0.706478 0.634082 -0.210241
C32   C     C_R   0.679190 0.206453 0.365897 -0.209827
C33   C     C_R   0.369080 0.854987 0.634154 -0.096142
C34   C     C_R   0.630910 0.354981 0.365835 -0.096336
C35   C     C_R   0.368353 0.015787 0.679828 -0.198962
C36   C     C_R   0.631623 0.515764 0.320142 -0.198802
H1    H     H_    0.177360 0.189786 0.897958 0.121876
H2    H     H_    0.822631 0.689774 0.102025 0.121874
H3    H     H_    0.092829 0.639670 0.818326 0.127305
H4    H     H_    0.907148 0.139631 0.181652 0.127296
H5    H     H_    0.138455 0.468559 0.724047 0.151048
H6    H     H_    0.861454 0.968424 0.275855 0.150766
H7    H     H_    0.320989 0.583207 0.598469 0.150799
H8    H     H_    0.679008 0.083199 0.401530 0.150956
H9    H     H_    0.405504 0.130753 0.680529 0.124050
H10   H     H_    0.594475 0.630736 0.319442 0.124056
H11   H     H_    0.358836 0.302051 0.774184 0.117542
H12   H     H_    0.641108 0.801981 0.225739 0.117539
H13   H     H_    0.275133 0.324459 0.853124 0.120808
H14   H     H_    0.724822 0.824399 0.146811 0.120783
C37   C     C_3   0.752201 0.812241 0.837901 -0.311876
C38   C     C_3   0.247803 0.312259 0.162101 -0.311897
H15   H     H_    0.772505 0.672921 0.863996 0.139628
H16   H     H_    0.227503 0.172942 0.136006 0.139626
H17   H     H_    0.740388 0.895356 0.885598 0.120665
H18   H     H_    0.259613 0.395391 0.114406 0.120672
C39   C     C_3   0.679570 0.785073 0.766281 -0.329064
C40   C     C_3   0.320433 0.285091 0.233723 -0.329056
H19   H     H_    0.633120 0.855218 0.779799 0.123096
H20   H     H_    0.366882 0.355243 0.220205 0.123089
H21   H     H_    0.666065 0.633393 0.758262 0.139884
H22   H     H_    0.333942 0.133411 0.241745 0.139888
H23   H     H_    0.848119 0.653663 0.766606 0.144244
H24   H     H_    0.151893 0.153639 0.233396 0.144239
H25   H     H_    0.740700 0.614397 0.662048 0.139129
H26   H     H_    0.259309 0.114392 0.337963 0.139113
C41   C     C_3   0.825728 0.793498 0.743187 -0.315187
C42   C     C_3   0.174275 0.293477 0.256815 -0.315175
C43   C     C_3   0.781626 0.104258 0.775581 -0.336145
C44   C     C_3   0.218365 0.604254 0.224419 -0.336123
C45   C     C_3   0.812724 0.912490 0.811332 0.120896
C46   C     C_3   0.187275 0.412486 0.188669 0.120893
H27   H     H_    0.822928 0.179292 0.754707 0.136758
H28   H     H_    0.177060 0.679269 0.245294 0.136756
H29   H     H_    0.770574 0.192763 0.822280 0.136481
H30   H     H_    0.229412 0.692774 0.177720 0.136481
C47   C     C_3   0.687423 0.866793 0.688229 0.117382
C48   C     C_3   0.312576 0.366799 0.311773 0.117431
C49   C     C_3   0.752837 0.766430 0.671845 -0.324162
C50   C     C_3   0.247166 0.266423 0.328159 -0.324185
C51   C     C_3   0.709401 0.078298 0.704607 -0.285192
C52   C     C_3   0.290592 0.578300 0.295393 -0.285208
H31   H     H_    0.664364 0.156172 0.717846 0.141861
H32   H     H_    0.335626 0.656181 0.282150 0.141859
H33   H     H_    0.716698 0.142666 0.650267 0.134166
H34   H     H_    0.283294 0.642659 0.349732 0.134144
H35   H     H_    0.867676 0.862909 0.721518 0.119235
H36   H     H_    0.132321 0.362868 0.278479 0.119243
H37   H     H_    0.760029 0.822979 0.616168 0.115222
H38   H     H_    0.239970 0.322971 0.383833 0.115113
O11   O     O_R   0.087220 0.271820 0.085230 -0.541473
O12   O     O_R   0.912780 0.771820 0.914770 -0.541473
O13   O     O_R   0.939860 0.595540 0.069990 -0.539659
O14   O     O_R   0.060140 0.095540 0.930010 -0.539658
C53   C     C_R   0.919326 0.426525 0.085546 0.696063
C54   C     C_R   0.080673 0.926529 0.914452 0.696060
O15   O     O_R   0.088340 0.601930 0.094680 -0.538874
O16   O     O_R   0.911660 0.101930 0.905320 -0.538873
O17   O     O_R   0.062310 0.765410 0.939660 -0.536954
O18   O     O_R   0.937690 0.265410 0.060340 -0.536956
C55   C     C_R   0.115839 0.431855 0.117907 0.644803
C56   C     C_R   0.884160 0.931859 0.882093 0.644802
O19   O     O_3   0.991270 0.429630 0.949130 -0.372479
O20   O     O_3   0.008730 0.929630 0.050870 -0.372481
V3    V     V_3+5 0.001620 0.707150 0.009440 1.375168
V4    V     V_3+5 0.998380 0.207150 0.990560 1.375178
O21   O     O_3   0.219092 0.411939 0.631927 -0.555613
C57   C     C_3   0.170948 0.436943 0.552600 0.092520
H39   H     H_    0.194824 0.360787 0.512005 0.131159
H40   H     H_    0.164570 0.585713 0.532053 0.098156
C58   C     C_3   0.095400 0.352591 0.542945 -0.742462
H41   H     H_    0.067271 0.433772 0.578132 0.209476
H42   H     H_    0.060593 0.356406 0.478915 0.179973
H43   H     H_    0.101599 0.204938 0.563735 0.232573
O22   O     O_3   0.780698 0.911747 0.367899 -0.555532
C59   C     C_3   0.829267 0.935979 0.447080 0.092823
H44   H     H_    0.804946 0.862635 0.487987 0.130575
H45   H     H_    0.837067 0.084867 0.467388 0.097970
C60   C     C_3   0.903974 0.846931 0.456510 -0.740902
H46   H     H_    0.932472 0.924792 0.420745 0.209455
H47   H     H_    0.939130 0.850882 0.520415 0.179454
H48   H     H_    0.896420 0.698943 0.436235 0.232424

loop_
_geom_bond_atom_site_label_1
_geom_bond_atom_site_label_2
_ccdc_geom_bond_type
O18   V4    S    
C37   H15   S    
O4    V2    S    
C46   C55   S    
C44   C52   S    
C53   O18   A    
O1    C3    A    
C29   H13   S    
C42   C46   S    
C60   H48   S    
O2    C4    A    
C59   H44   S    
O16   V4    S    
C2    O7    A    
O15   V3    S    
C58   H41   S    
C27   C29   A    
O5    C3    A    
C18   H6    S    
O14   C54   A    
C28   H12   S    
C11   C17   A    
C20   O22   S    
C41   H35   S    
C23   C25   A    
C12   C14   A    
C38   H18   S    
C58   H42   S    
C52   H34   S    
C43   C51   S    
O20   V3    S    
C6    C8    A    
C39   H19   S    
C32   H8    S    
C38   C46   S    
C5    C7    A    
C37   C39   S    
C32   C34   A    
C41   C45   S    
C40   H22   S    
C19   C21   A    
C39   H21   S    
C38   C40   S    
C25   C35   A    
C30   H14   S    
C41   C49   S    
C1    C48   S    
C57   C58   S    
C50   H38   S    
O3    C1    A    
C8    C53   S    
C7    C54   S    
C28   C30   A    
O6    V2    S    
C26   C28   A    
C42   H36   S    
C45   C56   S    
O13   V3    S    
C40   C48   S    
C49   H37   S    
C39   C47   S    
C43   C45   S    
C57   H40   S    
C43   H27   S    
C48   C52   S    
C34   C36   A    
C33   C35   A    
C37   H17   S    
C21   C31   A    
C6    C16   A    
O4    C2    A    
C5    H1    S    
C58   H43   S    
O5    V1    S    
H26   C50   S    
C20   C22   A    
C44   H28   S    
C37   C45   S    
C5    C15   A    
C42   C50   S    
C35   H9    S    
O13   C53   A    
C15   C29   A    
C48   C50   S    
O6    C4    A    
O19   V4    S    
C27   H11   S    
C22   C32   A    
O1    V2    S    
C52   H32   S    
O2    V1    S    
C31   C33   A    
C19   O21   S    
C43   H29   S    
C13   C23   A    
O12   C56   A    
C14   C24   A    
C8    C10   A    
C44   C46   S    
C9    C11   A    
C10   C12   A    
O11   V4    S    
C47   C49   S    
O22   C59   S    
C59   C60   S    
C51   H33   S    
C9    H3    S    
O3    V1    S    
C57   H39   S    
C6    H2    S    
C10   H4    S    
O12   V3    S    
C31   H7    S    
O16   C56   A    
H25   C49   S    
O11   C55   A    
C26   C36   A    
H24   C42   S    
C4    C33   S    
C60   H47   S    
C59   H45   S    
O21   C57   S    
C36   H10   S    
O15   C55   A    
C13   C15   A    
C2    C47   S    
C14   C16   A    
C54   O17   A    
O17   V3    S    
C24   C26   A    
O7    V1    S    
C1    O8    A    
C25   C27   A    
O8    V2    S    
C18   C20   A    
C51   H31   S    
C17   H5    S    
C44   H30   S    
C16   C30   A    
C21   C23   A    
C22   C24   A    
C11   C13   A    
C47   C51   S    
C12   C18   A    
C17   C19   A    
O9    V2    S    
O10   V1    S    
C3    C34   S    
C40   H20   S    
H23   C41   S    
O14   V4    S    
C60   H46   S    
C38   H16   S    
C7    C9    A    
