data_mof_unit_21629.cif
_audit_creation_date              2012-12-11T14:14:35-0500
_audit_creation_method            fapswitch 2.2
_symmetry_space_group_name_H-M    P1
_symmetry_Int_Tables_number       1
_space_group_crystal_system       triclinic
_cell_length_a                    24.411045
_cell_length_b                    17.268157
_cell_length_c                    15.603771
_cell_angle_alpha                 90.258332
_cell_angle_beta                  128.889142
_cell_angle_gamma                 90.218676
_cell_volume                      5119.45085287

loop_
_atom_site_label
_atom_site_type_symbol
_atom_type_description
_atom_site_fract_x
_atom_site_fract_y
_atom_site_fract_z
_atom_type_partial_charge
C1    C     C_R   0.348917 0.361622 0.240429 -0.119578
C2    C     C_R   0.665435 0.390168 0.795899 -0.117674
C3    C     C_R   0.848917 0.861622 0.240430 -0.119577
C4    C     C_R   0.165434 0.890166 0.795898 -0.117668
C5    C     C_R   0.413634 0.642054 0.594700 -0.126778
C6    C     C_R   0.590425 0.642051 0.410031 -0.126666
C7    C     C_R   0.913634 0.142054 0.594700 -0.126778
C8    C     C_R   0.090426 0.142047 0.410029 -0.126661
C9    C     C_R   0.364214 0.686860 0.504728 0.125568
C10   C     C_R   0.637674 0.687774 0.502606 0.130612
C11   C     C_R   0.864213 0.186859 0.504729 0.125567
C12   C     C_R   0.137675 0.187772 0.502601 0.130606
C13   C     C_R   0.367026 0.659510 0.171479 0.157404
C14   C     C_R   0.647595 0.623942 0.864786 0.160770
C15   C     C_R   0.867033 0.159524 0.171497 0.157337
C16   C     C_R   0.147595 0.123941 0.864786 0.160770
C17   C     C_2   0.646813 0.806886 0.423439 0.208131
C18   C     C_2   0.353566 0.806722 0.585899 0.211628
C19   C     C_2   0.146806 0.306870 0.423406 0.208162
C20   C     C_2   0.853565 0.306721 0.585900 0.211629
C21   C     C_2   0.665885 0.764610 0.510538 -0.258927
C22   C     C_2   0.336553 0.763124 0.499920 -0.247870
C23   C     C_2   0.165877 0.264612 0.510520 -0.258982
C24   C     C_2   0.836553 0.263123 0.499921 -0.247879
C25   C     C_2   0.202573 0.347672 0.429140 -0.167460
C26   C     C_2   0.796954 0.352065 0.570967 -0.190669
C27   C     C_2   0.702580 0.847684 0.429168 -0.167501
C28   C     C_2   0.296955 0.852067 0.570966 -0.190669
C29   C     C_2   0.270822 0.327888 0.502326 -0.231587
C30   C     C_2   0.729259 0.329242 0.498825 -0.221444
C31   C     C_2   0.770827 0.827892 0.502339 -0.231566
C32   C     C_2   0.229260 0.829244 0.498824 -0.221442
C33   C     C_2   0.688914 0.335714 0.966570 -0.215151
C34   C     C_2   0.356103 0.245858 0.146215 -0.221986
C35   C     C_2   0.188910 0.835707 0.966564 -0.215120
C36   C     C_2   0.856103 0.745857 0.146216 -0.221981
C37   C     C_2   0.758316 0.332926 0.023372 -0.110149
C38   C     C_2   0.303832 0.205920 0.131582 -0.105876
C39   C     C_2   0.258312 0.832915 0.023363 -0.110138
C40   C     C_2   0.803832 0.705920 0.131583 -0.105867
C41   C     C_2   0.338444 0.727352 0.102317 -0.224032
C42   C     C_2   0.693119 0.650566 0.979293 -0.224694
C43   C     C_2   0.838457 0.227371 0.102343 -0.223811
C44   C     C_2   0.193120 0.150563 0.979294 -0.224693
C45   C     C_R   0.610386 0.386797 0.408072 -0.155606
C46   C     C_R   0.390628 0.385061 0.592294 -0.145949
C47   C     C_R   0.110386 0.886797 0.408072 -0.155606
C48   C     C_R   0.890630 0.885061 0.592296 -0.145945
C49   C     C_2   0.297023 0.774477 0.106559 -0.123558
C50   C     C_2   0.762979 0.652272 0.038888 -0.105673
C51   C     C_2   0.797031 0.274493 0.106576 -0.123517
C52   C     C_2   0.262980 0.152273 0.038887 -0.105674
C53   C     C_R   0.684264 0.387174 0.591984 -0.125600
C54   C     C_R   0.315062 0.387816 0.408614 -0.137409
C55   C     C_R   0.184265 0.887174 0.591983 -0.125597
C56   C     C_R   0.815062 0.887816 0.408616 -0.137415
C57   C     C_R   0.574694 0.388169 0.797107 -0.148261
C58   C     C_R   0.440169 0.359816 0.240203 -0.148300
C59   C     C_R   0.074693 0.888168 0.797105 -0.148263
C60   C     C_R   0.940169 0.859816 0.240203 -0.148301
C61   C     C_R   0.381148 0.318740 0.207928 0.147307
C62   C     C_R   0.644296 0.367541 0.856203 0.148370
C63   C     C_R   0.881148 0.818739 0.207929 0.147305
C64   C     C_R   0.144294 0.867538 0.856199 0.148363
C65   C     C_R   0.675717 0.363072 0.499884 0.151489
C66   C     C_R   0.324311 0.362022 0.500433 0.151795
C67   C     C_R   0.175717 0.863073 0.499884 0.151489
C68   C     C_R   0.824314 0.862022 0.500438 0.151790
C69   C     C_R   0.338748 0.643252 0.411593 -0.145369
C70   C     C_R   0.660504 0.644201 0.593089 -0.145759
C71   C     C_R   0.838747 0.143251 0.411594 -0.145369
C72   C     C_R   0.160505 0.144202 0.593087 -0.145749
C73   C     C_R   0.430775 0.626022 0.215808 -0.162669
C74   C     C_R   0.576892 0.606646 0.802588 -0.160778
C75   C     C_R   0.930778 0.126029 0.215817 -0.162628
C76   C     C_R   0.076892 0.106646 0.802589 -0.160780
C77   C     C_R   0.667873 0.604334 0.802301 -0.129919
C78   C     C_R   0.339168 0.623200 0.215319 -0.135466
C79   C     C_R   0.167874 0.104333 0.802301 -0.129918
C80   C     C_R   0.839173 0.123209 0.215329 -0.135488
H1    H     H_    0.300210 0.348552 0.225049 0.089139
H2    H     H_    0.717855 0.390450 0.820670 0.079502
H3    H     H_    0.800210 0.848552 0.225051 0.089140
H4    H     H_    0.217854 0.890447 0.820668 0.079509
H5    H     H_    0.713955 0.779232 0.591975 0.122323
H6    H     H_    0.290439 0.778767 0.417566 0.119281
H7    H     H_    0.213940 0.279250 0.591956 0.122343
H8    H     H_    0.790439 0.278767 0.417567 0.119280
H9    H     H_    0.187052 0.390273 0.366817 0.123911
H10   H     H_    0.811378 0.398884 0.628660 0.126154
H11   H     H_    0.687056 0.890282 0.366839 0.123929
H12   H     H_    0.311378 0.898885 0.628660 0.126153
H13   H     H_    0.289370 0.284815 0.565225 0.134297
H14   H     H_    0.711970 0.282063 0.440673 0.133419
H15   H     H_    0.789377 0.784818 0.565238 0.134291
H16   H     H_    0.211970 0.782065 0.440671 0.133418
H17   H     H_    0.283875 0.763036 0.160244 0.130557
H18   H     H_    0.788273 0.626341 0.008401 0.122872
H19   H     H_    0.783879 0.263049 0.160255 0.130522
H20   H     H_    0.288273 0.126345 0.008397 0.122877
H21   H     H_    0.784069 0.361232 0.995108 0.130469
H22   H     H_    0.283233 0.222604 0.173610 0.128609
H23   H     H_    0.284066 0.861221 0.995101 0.130464
H24   H     H_    0.783232 0.722604 0.173610 0.128607
H25   H     H_    0.351513 0.739167 0.048599 0.134967
H26   H     H_    0.668500 0.677416 0.010570 0.128062
H27   H     H_    0.851529 0.239187 0.048629 0.134877
H28   H     H_    0.168501 0.177411 0.010573 0.128062
H29   H     H_    0.664006 0.306029 0.995601 0.128541
H30   H     H_    0.375958 0.229067 0.103017 0.127299
H31   H     H_    0.164001 0.806022 0.995593 0.128536
H32   H     H_    0.875958 0.729066 0.103019 0.127294
H33   H     H_    0.591741 0.386823 0.324286 0.094090
H34   H     H_    0.411135 0.383111 0.677047 0.093645
H35   H     H_    0.091741 0.886824 0.324286 0.094088
H36   H     H_    0.911138 0.883112 0.677050 0.093643
H37   H     H_    0.731984 0.386156 0.676597 0.088748
H38   H     H_    0.266343 0.388648 0.325024 0.087152
H39   H     H_    0.231984 0.886157 0.676597 0.088748
H40   H     H_    0.766342 0.888649 0.325028 0.087164
H41   H     H_    0.544253 0.387460 0.825776 0.091820
H42   H     H_    0.476553 0.343965 0.225863 0.096115
H43   H     H_    0.044252 0.887458 0.825773 0.091818
H44   H     H_    0.976553 0.843965 0.225863 0.096114
H45   H     H_    0.296681 0.660027 0.328448 0.088504
H46   H     H_    0.698841 0.661572 0.678244 0.099473
H47   H     H_    0.796677 0.160024 0.328449 0.088505
H48   H     H_    0.198840 0.161576 0.678241 0.099476
H49   H     H_    0.461445 0.634605 0.188577 0.090767
H50   H     H_    0.547464 0.604056 0.832947 0.089883
H51   H     H_    0.961448 0.134612 0.188584 0.090750
H52   H     H_    0.047465 0.104055 0.832948 0.089882
H53   H     H_    0.720943 0.600377 0.830105 0.078061
H54   H     H_    0.285957 0.627808 0.186600 0.086454
H55   H     H_    0.220943 0.100376 0.830104 0.078066
H56   H     H_    0.785962 0.127820 0.186609 0.086457
H57   H     H_    0.443122 0.654967 0.680360 0.104916
H58   H     H_    0.568528 0.654632 0.326815 0.090315
H59   H     H_    0.943122 0.154967 0.680361 0.104916
H60   H     H_    0.068530 0.154623 0.326813 0.090308
N1    N     N_R   0.389060 0.424180 0.294540 -0.044681
N2    N     N_R   0.610940 0.424180 0.705460 -0.043120
N3    N     N_R   0.889060 0.924180 0.294540 -0.044681
N4    N     N_R   0.110940 0.924180 0.705460 -0.043120
N5    N     N_R   0.579670 0.423790 0.443360 -0.039852
N6    N     N_R   0.420330 0.423790 0.556640 -0.040468
N7    N     N_R   0.079670 0.923790 0.443360 -0.039852
N8    N     N_R   0.920330 0.923790 0.556640 -0.040468
N9    N     N_R   0.625470 0.423490 0.556600 -0.044048
N10   N     N_R   0.374530 0.423490 0.443400 -0.043028
N11   N     N_R   0.125470 0.923490 0.556600 -0.044048
N12   N     N_R   0.874530 0.923490 0.443400 -0.043027
N13   N     N_R   0.555250 0.423100 0.705420 -0.039391
N14   N     N_R   0.444750 0.423100 0.294580 -0.041377
N15   N     N_R   0.055250 0.923100 0.705420 -0.039390
N16   N     N_R   0.944750 0.923100 0.294580 -0.041379
N17   N     N_R   0.375210 0.577180 0.443400 -0.040211
N18   N     N_R   0.624790 0.577180 0.556600 -0.042163
N19   N     N_R   0.875210 0.077180 0.443400 -0.040210
N20   N     N_R   0.124790 0.077180 0.556600 -0.042164
N21   N     N_R   0.445430 0.577570 0.294580 -0.038674
N22   N     N_R   0.554570 0.577570 0.705420 -0.039475
N23   N     N_R   0.945430 0.077570 0.294580 -0.038676
N24   N     N_R   0.054570 0.077570 0.705420 -0.039475
N25   N     N_R   0.611620 0.576500 0.705460 -0.041887
N26   N     N_R   0.388380 0.576500 0.294540 -0.040833
N27   N     N_R   0.111620 0.076500 0.705460 -0.041888
N28   N     N_R   0.888380 0.076500 0.294540 -0.040828
N29   N     N_R   0.421010 0.576890 0.556640 -0.044443
N30   N     N_R   0.578990 0.576890 0.443360 -0.041530
N31   N     N_R   0.921010 0.076890 0.556640 -0.044443
N32   N     N_R   0.078990 0.076890 0.443360 -0.041531
Ni1   Ni    Ni4+2 0.383200 0.500680 0.370150 0.209372
Ni2   Ni    Ni4+2 0.616800 0.500680 0.629850 0.205057
Ni3   Ni    Ni4+2 0.883200 0.000680 0.370150 0.209377
Ni4   Ni    Ni4+2 0.116800 0.000680 0.629850 0.205059
Ni5   Ni    Ni4+2 0.512440 0.500680 0.370150 0.211476
Ni6   Ni    Ni4+2 0.487560 0.500680 0.629850 0.207860
Ni7   Ni    Ni4+2 0.012440 0.000680 0.370150 0.211472
Ni8   Ni    Ni4+2 0.987560 0.000680 0.629850 0.207860
C81   C     C_3   0.571034 0.810822 0.318223 -0.434310
C82   C     C_3   0.544237 0.894451 0.289843 -0.243434
C83   C     C_3   0.465432 0.896679 0.193425 -0.938017
H61   H     H_    0.453840 0.867717 0.119855 0.255599
H62   H     H_    0.435415 0.867279 0.215663 0.274645
H63   H     H_    0.447930 0.957763 0.172693 0.249268
H64   H     H_    0.554072 0.922910 0.362492 0.204245
H65   H     H_    0.572190 0.927955 0.266974 0.186197
H66   H     H_    0.567144 0.784679 0.249337 0.174609
H67   H     H_    0.535678 0.778277 0.327367 0.207239
C84   C     C_3   0.425073 0.808287 0.699671 -0.424539
C85   C     C_3   0.485540 0.823533 0.695770 -0.224050
C86   C     C_3   0.556431 0.825691 0.811373 -0.933373
H68   H     H_    0.558041 0.873970 0.860212 0.257310
H69   H     H_    0.565496 0.770204 0.854032 0.259149
H70   H     H_    0.599298 0.834603 0.806073 0.257168
H71   H     H_    0.487257 0.777811 0.647362 0.209365
H72   H     H_    0.477255 0.879998 0.655364 0.195145
H73   H     H_    0.426365 0.855788 0.749304 0.174950
H74   H     H_    0.433099 0.755135 0.745341 0.172622
C87   C     C_3   0.071030 0.310752 0.318166 -0.434223
C88   C     C_3   0.044235 0.394377 0.289526 -0.243656
C89   C     C_3   0.965374 0.396543 0.193365 -0.937477
H75   H     H_    0.953573 0.367171 0.119866 0.255543
H76   H     H_    0.935492 0.367512 0.216117 0.274533
H77   H     H_    0.947904 0.457625 0.172246 0.249134
H78   H     H_    0.054250 0.423081 0.362179 0.204234
H79   H     H_    0.072053 0.427676 0.266242 0.186134
H80   H     H_    0.067142 0.284462 0.249353 0.174468
H81   H     H_    0.035675 0.278305 0.327402 0.207352
C90   C     C_3   0.925073 0.308286 0.699673 -0.424540
C91   C     C_3   0.985539 0.323533 0.695771 -0.224048
C92   C     C_3   0.056431 0.325692 0.811375 -0.933353
H82   H     H_    0.058039 0.373968 0.860216 0.257306
H83   H     H_    0.065498 0.270203 0.854032 0.259146
H84   H     H_    0.099297 0.334608 0.806074 0.257167
H85   H     H_    0.987256 0.277813 0.647362 0.209363
H86   H     H_    0.977254 0.379999 0.655366 0.195144
H87   H     H_    0.926364 0.355787 0.749306 0.174953
H88   H     H_    0.933099 0.255134 0.745343 0.172622

loop_
_geom_bond_atom_site_label_1
_geom_bond_atom_site_label_2
_ccdc_geom_bond_type
N28   Ni3   S    
C15   C75   A    
C89   H75   S    
C7    N31   A    
N20   Ni4   S    
C87   C88   S    
C87   H81   S    
C19   C23   D    
C17   C81   S    
N3    Ni3   S    
C13   C41   S    
C35   H31   S    
C57   C62   A    
C54   N10   A    
C55   H39   S    
C81   C82   S    
C47   H35   S    
C90   H88   S    
C89   H76   S    
C12   C23   S    
C59   C64   A    
C41   H25   S    
C72   H48   S    
C60   C63   A    
C45   N5    A    
C14   C74   A    
C9    C69   A    
C46   C66   A    
C83   H62   S    
C37   C51   S    
N16   Ni7   S    
C11   C71   A    
N1    N14   A    
C20   C90   S    
C38   C52   S    
C91   H85   S    
C77   N25   A    
N22   N25   A    
C40   C50   S    
C11   C24   S    
C19   C87   S    
N6    Ni6   S    
C25   C29   D    
C75   N23   A    
N9    Ni2   S    
C14   C77   A    
C47   C67   A    
C60   H44   S    
C82   C83   S    
C73   N21   A    
C37   H21   S    
N17   N29   A    
N6    N10   A    
N12   Ni3   S    
C81   H66   S    
N18   Ni2   S    
C1    N1    A    
C20   C24   D    
C33   C62   S    
C86   H69   S    
C36   H32   S    
C69   N17   A    
C27   H11   S    
C35   C64   S    
N13   Ni6   S    
C85   H72   S    
C56   N12   A    
C36   C63   S    
C53   C65   A    
C16   C44   S    
N21   N26   A    
N24   Ni8   S    
C48   H36   S    
C44   C52   D    
C58   C61   A    
C16   C76   A    
C12   C72   A    
C69   H45   S    
N8    Ni8   S    
C23   H7    S    
C53   N9    A    
C56   H40   S    
C71   H47   S    
C77   H53   S    
C79   H55   S    
C87   H80   S    
C29   H13   S    
C75   H51   S    
C7    C11   A    
C47   N7    A    
C44   H28   S    
C10   C21   S    
C59   H43   S    
C31   C68   S    
C89   H77   S    
C21   H5    S    
C18   C84   S    
C50   H18   S    
C58   H42   S    
C88   C89   S    
C46   H34   S    
N30   Ni5   S    
C27   C31   D    
C84   C85   S    
C17   C27   S    
C28   C32   D    
C18   C28   S    
C84   H74   S    
N2    Ni2   S    
C83   H63   S    
C74   N22   A    
C59   N15   A    
N18   N30   A    
C82   H65   S    
C70   H46   S    
N25   Ni2   S    
C92   H82   S    
C57   N13   A    
C52   H20   S    
C34   C61   S    
C33   C37   D    
C70   N18   A    
C34   C38   D    
C6    H58   S    
C86   H68   S    
C35   C39   D    
C83   H61   S    
C60   N16   A    
C90   C91   S    
C4    N4    A    
N7    Ni7   S    
C40   H24   S    
C51   H19   S    
C78   H54   S    
C81   H67   S    
C15   C80   A    
C4    H4    S    
C36   C40   D    
C8    C12   A    
C86   H70   S    
N4    Ni4   S    
N20   N32   A    
C3    N3    A    
C28   H12   S    
C43   H27   S    
C85   H71   S    
C48   C68   A    
C55   N11   A    
C24   H8    S    
C78   N26   A    
N19   N31   A    
C42   C50   D    
C32   C67   S    
C10   C70   A    
N32   Ni7   S    
C32   H16   S    
C13   C73   A    
C26   C30   D    
C88   H78   S    
C74   H50   S    
C45   C65   A    
C30   C65   S    
C2    N2    A    
N31   Ni8   S    
C2    H2    S    
C33   H29   S    
N21   Ni5   S    
N29   Ni6   S    
C90   H87   S    
N15   Ni8   S    
C6    N30   A    
C92   H84   S    
N1    Ni1   S    
C13   C78   A    
N26   Ni1   S    
N11   Ni4   S    
C39   C49   S    
C18   C22   D    
N24   N27   A    
N8    N12   A    
C84   H73   S    
C1    C61   A    
C6    C10   A    
C55   C67   A    
C39   H23   S    
C54   C66   A    
C3    C63   A    
C26   H10   S    
C41   C49   D    
C71   N19   A    
C4    C64   A    
C25   H9    S    
C72   N20   A    
C14   C42   S    
C8    H60   S    
C16   C79   A    
C79   N27   A    
C85   C86   S    
N4    N15   A    
C54   H38   S    
N23   N28   A    
C92   H83   S    
C15   C43   S    
C5    H57   S    
C30   H14   S    
C56   C68   A    
C7    H59   S    
C76   H52   S    
C43   C51   D    
N3    N16   A    
C46   N6    A    
C20   C26   S    
C73   H49   S    
C31   H15   S    
N7    N11   A    
C48   N8    A    
C53   H37   S    
C82   H64   S    
C22   H6    S    
N2    N13   A    
C19   C25   S    
C17   C21   D    
N22   Ni6   S    
C80   H56   S    
C76   N24   A    
C57   H41   S    
C29   C66   S    
C42   H26   S    
C45   H33   S    
N10   Ni1   S    
C3    H3    S    
C91   C92   S    
C38   H22   S    
C9    C22   S    
N14   Ni5   S    
N5    Ni5   S    
C2    C62   A    
C5    N29   A    
C88   H79   S    
C5    C9    A    
C34   H30   S    
C58   N14   A    
N23   Ni7   S    
C1    H1    S    
C80   N28   A    
N19   Ni3   S    
N5    N9    A    
C8    N32   A    
N17   Ni1   S    
N27   Ni4   S    
C91   H86   S    
C49   H17   S    
