data_mof_unit_19111.cif
_audit_creation_date              2012-12-10T17:36:47-0500
_audit_creation_method            fapswitch 2.2
_symmetry_space_group_name_H-M    P1
_symmetry_Int_Tables_number       1
_space_group_crystal_system       triclinic
_cell_length_a                    10.594266
_cell_length_b                    12.332778
_cell_length_c                    13.048408
_cell_angle_alpha                 116.881619
_cell_angle_beta                  77.440079
_cell_angle_gamma                 101.422013
_cell_volume                      1474.48248741

loop_
_atom_site_label
_atom_site_type_symbol
_atom_type_description
_atom_site_fract_x
_atom_site_fract_y
_atom_site_fract_z
_atom_type_partial_charge
C1    C     C_R   0.518950 0.854576 0.285066 0.760930
C2    C     C_3   0.014398 0.903071 0.516027 -0.133869
C3    C     C_3   0.957003 0.895883 0.413622 -0.183273
C4    C     C_3   0.877376 0.000172 0.500145 0.033829
C5    C     C_R   0.277455 0.290692 0.003432 0.265290
C6    C     C_R   0.445902 0.226531 0.836036 -0.073720
C7    C     C_R   0.637750 0.804299 0.080416 0.146031
C8    C     C_R   0.659672 0.717589 0.964293 -0.125331
C9    C     C_R   0.599835 0.598455 0.929951 -0.262344
C10   C     C_R   0.514104 0.561292 0.009720 0.102091
C11   C     C_R   0.469507 0.652646 0.118970 0.079999
C12   C     C_R   0.740432 0.999950 0.500075 0.771868
C13   C     C_R   0.462364 0.437074 0.979609 -0.009948
C14   C     C_R   0.343158 0.410642 0.043838 0.097427
C15   C     C_R   0.289737 0.505442 0.144516 -0.214085
C16   C     C_R   0.353622 0.623543 0.183222 -0.199967
C17   C     C_R   0.523228 0.338081 0.886410 0.089423
C18   C     C_R   0.325691 0.201826 0.895842 -0.326362
C19   C     C_R   0.539327 0.771699 0.159226 -0.179421
C20   C     C_R   0.718359 0.353978 0.339284 -0.303584
C21   C     C_R   0.326196 0.762857 0.648550 0.003768
C22   C     C_R   0.299387 0.677185 0.694194 -0.262220
C23   C     C_R   0.479357 0.144939 0.713863 0.822336
C24   C     C_R   0.371934 0.577641 0.648511 0.274170
C25   C     C_R   0.466217 0.558378 0.546907 -0.099530
C26   C     C_R   0.496273 0.654742 0.509261 0.256450
C27   C     C_R   0.535555 0.451467 0.483149 -0.037063
C28   C     C_R   0.643976 0.452722 0.397728 0.185636
C29   C     C_R   0.676454 0.551264 0.369092 -0.288946
C30   C     C_R   0.602056 0.647953 0.421014 -0.156199
C31   C     C_R   0.499589 0.340325 0.495361 0.001979
C32   C     C_R   0.683476 0.252130 0.362764 0.059267
C33   C     C_R   0.259515 0.000076 0.500025 0.776790
C34   C     C_3   0.985436 0.096683 0.484059 -0.133051
C35   C     C_3   0.067363 0.992255 0.397511 -0.167723
C36   C     C_3   0.122447 0.999618 0.499954 0.025090
C37   C     C_3   0.042718 0.103800 0.586504 -0.182429
C38   C     C_3   0.932426 0.007407 0.602524 -0.162865
Cu1   Cu    Cu3+1 0.529830 0.098270 0.475420 0.916163
Cu2   Cu    Cu3+1 0.470170 0.901730 0.524580 0.918727
H1    H     H_    0.125793 0.986148 0.313769 0.131303
H2    H     H_    0.620442 0.535798 0.839452 0.141879
H3    H     H_    0.726540 0.739142 0.898969 0.154631
H4    H     H_    0.306685 0.693067 0.260620 0.163921
H5    H     H_    0.742407 0.177088 0.320207 0.120006
H6    H     H_    0.758443 0.552173 0.303035 0.146611
H7    H     H_    0.803060 0.355631 0.275867 0.141587
H8    H     H_    0.410718 0.325204 0.547519 0.157582
H9    H     H_    0.272669 0.841701 0.688701 0.139625
H10   H     H_    0.970988 0.176065 0.470969 0.135089
H11   H     H_    0.227899 0.693961 0.771316 0.150982
H12   H     H_    0.632704 0.716765 0.390041 0.200514
H13   H     H_    0.080559 0.188323 0.657693 0.122794
H14   H     H_    0.874319 0.013033 0.686188 0.129435
H15   H     H_    0.028879 0.823687 0.529089 0.136976
H16   H     H_    0.918397 0.810915 0.343174 0.120313
H17   H     H_    0.268220 0.113921 0.857876 0.149385
H18   H     H_    0.198134 0.489082 0.194376 0.176323
N1    N     N_R   0.575030 0.246270 0.438190 -0.179293
N2    N     N_R   0.425760 0.754330 0.561190 -0.198853
O1    O     O_R   0.537510 0.972500 0.318130 -0.583967
O2    O     O_R   0.487140 0.806530 0.359650 -0.589595
O3    O     O_R   0.708330 0.082950 0.479220 -0.591576
O4    O     O_R   0.657960 0.916980 0.520740 -0.595317
O5    O     O_R   0.512860 0.193470 0.640350 -0.584421
O6    O     O_R   0.462490 0.027500 0.681870 -0.581364
O7    O     O_R   0.342040 0.083020 0.479260 -0.582018
O8    O     O_R   0.291670 0.917050 0.520780 -0.595661
C39   C     C_3   0.670889 0.343600 0.849848 -0.418239
C40   C     C_3   0.727888 0.245266 0.860956 -0.839333
H19   H     H_    0.700268 0.252336 0.950746 0.260133
H20   H     H_    0.693540 0.152200 0.798740 0.243412
H21   H     H_    0.835762 0.258291 0.841645 0.234275
H22   H     H_    0.696395 0.333478 0.759037 0.213607
H23   H     H_    0.721510 0.431556 0.906468 0.215990
C41   C     C_3   0.718494 0.929657 0.120655 -0.364442
C42   C     C_3   0.833065 0.947858 0.033283 -0.914955
H24   H     H_    0.900211 0.877313 0.003722 0.255079
H25   H     H_    0.797724 0.944817 0.957778 0.254254
H26   H     H_    0.888296 0.039234 0.075650 0.245555
H27   H     H_    0.653511 0.000626 0.144907 0.223840
H28   H     H_    0.760159 0.946268 0.198370 0.200849
N3    N     N_2   0.365862 0.515458 0.719116 -0.428478
H29   H     H_    0.448426 0.480718 0.715229 0.248026
C43   C     C_3   0.242289 0.448403 0.740568 -0.706070
H30   H     H_    0.253335 0.398352 0.790097 0.226784
H31   H     H_    0.208362 0.381485 0.657267 0.214726
H32   H     H_    0.167773 0.511962 0.792883 0.232746
N4    N     N_2   0.157323 0.261731 0.065104 -0.445549
H33   H     H_    0.092835 0.197855 0.012125 0.247384
C44   C     C_3   0.171930 0.231616 0.156645 -0.713995
H34   H     H_    0.218780 0.145984 0.119183 0.232612
H35   H     H_    0.074590 0.217699 0.204824 0.218299
H36   H     H_    0.231772 0.306989 0.218964 0.241264

loop_
_geom_bond_atom_site_label_1
_geom_bond_atom_site_label_2
_ccdc_geom_bond_type
C17   C39   S    
Cu2   N2    S    
C34   C37   S    
C32   H5    S    
C35   C36   S    
C8    H3    S    
C1    O2    A    
C21   H9    S    
C7    C8    A    
C42   H24   S    
C11   C19   A    
C9    H2    S    
C29   C30   A    
C23   O6    A    
C36   C37   S    
C24   N3    S    
C2    H15   S    
C12   O4    A    
C43   H32   S    
C15   C16   A    
C33   C36   S    
Cu2   O2    S    
C34   C35   S    
C11   C16   A    
C31   N1    A    
C8    C9    A    
C40   H19   S    
N4    C44   S    
C9    C10   A    
C16   H4    S    
C37   H13   S    
C43   H31   S    
Cu2   O6    S    
C21   C22   A    
Cu1   O5    S    
C6    C18   A    
C42   H25   S    
Cu1   O1    S    
C4    C34   S    
C34   H10   S    
C1    C19   S    
C27   C31   A    
C24   C25   A    
C21   N2    A    
C41   H28   S    
Cu1   Cu2   S    
C12   O3    A    
C5    C18   A    
C20   C28   A    
C25   C26   A    
C43   H30   S    
C37   C38   S    
C44   H35   S    
C3    H16   S    
C2    C38   S    
C18   H17   S    
N3    H29   S    
C38   H14   S    
C3    C35   S    
Cu1   N1    S    
C40   H21   S    
C39   H22   S    
C41   C42   S    
C5    C14   A    
N3    C43   S    
C4    C38   S    
C26   C30   A    
C7    C19   A    
C31   H8    S    
C15   H18   S    
C22   C24   A    
C4    C12   S    
C3    C4    S    
C44   H34   S    
C33   O7    A    
C20   C32   A    
C42   H26   S    
C2    C36   S    
C6    C17   A    
C30   H12   S    
C28   C29   A    
Cu1   O7    S    
C10   C13   A    
C1    O1    A    
C41   H27   S    
C7    C41   S    
C25   C27   A    
Cu1   O3    S    
Cu2   O4    S    
C13   C17   A    
C29   H6    S    
C23   O5    A    
C2    C3    S    
C44   H36   S    
C6    C23   S    
C39   H23   S    
C39   C40   S    
C35   H1    S    
C20   H7    S    
C10   C11   A    
Cu2   O8    S    
C27   C28   A    
C14   C15   A    
C40   H20   S    
C32   N1    A    
N4    H33   S    
C13   C14   A    
C26   N2    A    
C5    N4    S    
C33   O8    A    
C22   H11   S    
