data_mof_unit_25586.cif
_audit_creation_date              2013-03-05T16:46:55-0500
_audit_creation_method            fapswitch 2.2
_symmetry_space_group_name_H-M    P1
_symmetry_Int_Tables_number       1
_space_group_crystal_system       triclinic
_cell_length_a                    18.178885
_cell_length_b                    18.258709
_cell_length_c                    18.403165
_cell_angle_alpha                 120.115052
_cell_angle_beta                  89.914778
_cell_angle_gamma                 119.871694
_cell_volume                      4323.35978974

loop_
_atom_site_label
_atom_site_type_symbol
_atom_site_description
_atom_site_fract_x
_atom_site_fract_y
_atom_site_fract_z
_atom_type_partial_charge
Zn1   Zn    Zn3+2 0.456040 0.586770 0.543190 1.004392
Zn2   Zn    Zn3+2 0.456820 0.413240 0.543960 0.988927
Zn3   Zn    Zn3+2 0.631110 0.586750 0.543190 0.974395
Zn4   Zn    Zn3+2 0.456040 0.413240 0.369660 1.013125
O1    O     O_3   0.500000 0.500000 0.500000 -0.493493
O2    O     O_R   0.383400 0.268380 0.323710 -0.630019
O3    O     O_R   0.555060 0.731630 0.615290 -0.636518
O4    O     O_R   0.383950 0.439280 0.616600 -0.643912
O5    O     O_R   0.677590 0.560710 0.444390 -0.642804
O6    O     O_R   0.556370 0.439260 0.616600 -0.648800
O7    O     O_R   0.382640 0.439290 0.322940 -0.645623
O8    O     O_R   0.678360 0.560700 0.616060 -0.638717
O9    O     O_R   0.382640 0.560750 0.444390 -0.640416
O10   O     O_R   0.383400 0.560740 0.616060 -0.624418
O11   O     O_R   0.555060 0.439270 0.322940 -0.612436
O12   O     O_R   0.383950 0.268380 0.445700 -0.638708
O13   O     O_R   0.677590 0.731610 0.615290 -0.644739
C1    C     C_R   0.360164 0.220047 0.361047 0.807597
C2    C     C_R   0.640966 0.780982 0.640417 0.790430
C3    C     C_R   0.358203 0.499490 0.639656 0.830531
C4    C     C_R   0.640562 0.498420 0.359347 0.759242
C5    C     C_R   0.641913 0.499714 0.639624 0.799293
C6    C     C_R   0.358857 0.500996 0.359698 0.787617
C7    C     C_3   0.346629 0.522403 0.237968 -0.372008
H1    H     H_    0.366534 0.468639 0.201113 0.204571
H2    H     H_    0.409687 0.602154 0.277222 0.223072
C8    C     C_3   0.281989 0.508309 0.169562 -0.184129
H3    H     H_    0.256661 0.433496 0.105240 0.134432
H4    H     H_    0.220215 0.336953 0.197404 0.115770
C9    C     C_3   0.207069 0.393397 0.246353 -0.224178
C10   C     C_3   0.287065 0.588065 0.360679 -0.379006
C11   C     C_3   0.300397 0.500825 0.302785 0.009746
H5    H     H_    0.251751 0.574317 0.406249 0.205957
H6    H     H_    0.353467 0.663558 0.404528 0.223579
C12   C     C_3   0.199253 0.501151 0.200141 -0.156434
C13   C     C_3   0.143364 0.398298 0.194867 -0.229068
C14   C     C_3   0.232025 0.592593 0.301223 0.176497
H7    H     H_    0.170985 0.580183 0.320900 0.153068
H8    H     H_    0.092229 0.401180 0.227515 0.205496
C15   C     C_3   0.671315 0.939149 0.656884 -0.446744
H9    H     H_    0.599550 0.910313 0.647756 0.213322
H10   H     H_    0.676943 0.908150 0.588990 0.162676
C16   C     C_3   0.733231 0.059193 0.714189 0.192365
H11   H     H_    0.775204 0.082064 0.675469 0.119643
H12   H     H_    0.704207 0.089057 0.877050 0.217450
C17   C     C_3   0.689603 0.939608 0.794924 -0.156074
C18   C     C_3   0.799463 0.941502 0.711341 -0.403342
C19   C     C_3   0.698391 0.897502 0.699688 0.035084
H13   H     H_    0.821565 0.911177 0.739258 0.188349
H14   H     H_    0.809653 0.916248 0.645480 0.208276
C20   C     C_3   0.799143 0.102589 0.802167 0.030794
C21   C     C_3   0.746323 0.059825 0.853374 -0.423150
C22   C     C_3   0.858496 0.060875 0.774188 -0.438090
H15   H     H_    0.900708 0.092456 0.740016 0.217878
H16   H     H_    0.905115 0.086755 0.834163 0.213579
H17   H     H_    0.718148 0.916538 0.826337 0.170685
H18   H     H_    0.794688 0.090491 0.914747 0.185435
C23   C     C_3   0.641549 0.395691 0.203446 -0.129377
H19   H     H_    0.585765 0.394527 0.176709 0.242122
C24   C     C_3   0.701258 0.398915 0.143834 -0.392499
H20   H     H_    0.701386 0.328435 0.109306 0.174193
H21   H     H_    0.673061 0.399790 0.090894 0.214846
H22   H     H_    0.679241 0.588366 0.269650 0.218380
H23   H     H_    0.774726 0.597537 0.188109 0.204707
C25   C     C_3   0.735376 0.591317 0.298178 -0.377459
C26   C     C_3   0.778464 0.502291 0.338550 -0.411356
C27   C     C_3   0.697418 0.495920 0.301054 0.059754
H24   H     H_    0.821851 0.577263 0.404842 0.205904
H25   H     H_    0.755728 0.440073 0.348494 0.174737
C28   C     C_3   0.799063 0.496901 0.199697 0.123028
C29   C     C_3   0.798032 0.593969 0.241382 -0.361827
C30   C     C_3   0.834642 0.495656 0.275525 -0.390999
H26   H     H_    0.831142 0.423440 0.246671 0.175673
H27   H     H_    0.906291 0.561994 0.314739 0.206666
H28   H     H_    0.773469 0.664021 0.366723 0.188149
H29   H     H_    0.867273 0.665183 0.283902 0.195707
H30   H     H_    0.439953 0.230093 0.687532 0.143527
C31   C     C_R   0.456877 0.181452 0.559252 -0.091103
H31   H     H_    0.525961 0.209166 0.583056 0.142573
C32   C     C_R   0.416382 0.134406 0.469734 -0.133418
H32   H     H_    0.454825 0.125948 0.424801 0.142693
C33   C     C_R   0.327121 0.099363 0.438262 0.015436
C34   C     C_R   0.277512 0.110984 0.497981 0.345315
C35   C     C_R   0.319471 0.157705 0.587753 -0.160393
H33   H     H_    0.283667 0.168501 0.634998 0.177934
C36   C     C_R   0.408491 0.193110 0.618081 -0.171060
C37   C     C_R   0.231900 0.943821 0.287004 -0.164583
H34   H     H_    0.221152 0.900867 0.315166 0.200018
C38   C     C_R   0.191291 0.892290 0.196231 -0.063719
C39   C     C_R   0.205578 0.949159 0.160184 -0.011786
C40   C     C_R   0.262938 0.056084 0.215577 -0.212057
H35   H     H_    0.273570 0.099231 0.187639 0.185681
C41   C     C_R   0.303896 0.107604 0.306248 -0.028793
C42   C     C_R   0.287515 0.050739 0.342720 0.046196
C43   C     C_R   0.210714 0.901609 0.007917 -0.112745
H36   H     H_    0.282115 0.937180 0.031311 0.155049
C44   C     C_R   0.168268 0.854946 0.918842 -0.102384
H37   H     H_    0.206801 0.854742 0.873923 0.155611
C45   C     C_R   0.076097 0.808391 0.887693 -0.118993
H38   H     H_    0.043438 0.772173 0.818702 0.141507
C46   C     C_R   0.026207 0.808658 0.945611 -0.122557
H39   H     H_    0.954876 0.772761 0.921428 0.133975
C47   C     C_R   0.068325 0.854938 0.034688 -0.099802
H40   H     H_    0.029042 0.854340 0.078952 0.127388
C48   C     C_R   0.160798 0.901056 0.066180 0.131846
H41   H     H_    0.980475 0.745845 0.566410 0.165575
C49   C     C_R   0.906041 0.600167 0.550622 -0.127542
H42   H     H_    0.919145 0.561979 0.489956 0.180491
C50   C     C_R   0.854245 0.545402 0.584994 0.013165
C51   C     C_R   0.839622 0.598553 0.665111 0.055061
C52   C     C_R   0.876217 0.704057 0.708288 -0.113800
H43   H     H_    0.866145 0.745626 0.770058 0.128819
C53   C     C_R   0.926135 0.756581 0.672391 -0.125190
H44   H     H_    0.953711 0.837746 0.705889 0.140266
C54   C     C_R   0.941274 0.704817 0.593877 -0.142944
C55   C     C_R   0.840300 0.545503 0.763138 -0.271883
H45   H     H_    0.910980 0.579103 0.770612 0.179799
C56   C     C_R   0.799866 0.500480 0.807546 -0.038823
C57   C     C_R   0.707624 0.455698 0.796615 0.037186
C58   C     C_R   0.657922 0.455974 0.740262 -0.255474
H46   H     H_    0.587169 0.422242 0.732572 0.177810
C59   C     C_R   0.698368 0.501328 0.696171 -0.050027
C60   C     C_R   0.790986 0.547593 0.708220 -0.039016
C61   C     C_R   0.603103 0.303874 0.799015 -0.233850
H47   H     H_    0.601617 0.255054 0.732496 0.179638
C62   C     C_R   0.544847 0.259068 0.836388 -0.153005
C63   C     C_R   0.544434 0.323986 0.921880 0.260774
C64   C     C_R   0.603391 0.433473 0.968840 0.201914
C65   C     C_R   0.660624 0.475160 0.928684 -0.266612
H48   H     H_    0.704103 0.558133 0.961865 0.188870
C66   C     C_R   0.659817 0.411091 0.844045 0.097191
C67   C     C_R   0.339681 0.771415 0.687036 -0.197343
H49   H     H_    0.392370 0.853338 0.724053 0.195818
C68   C     C_R   0.335977 0.716813 0.721179 -0.165742
H50   H     H_    0.384984 0.757233 0.784143 0.193828
C69   C     C_R   0.268550 0.610715 0.674794 0.117565
C70   C     C_R   0.203589 0.560076 0.594968 -0.148079
H51   H     H_    0.150107 0.478492 0.559380 0.189031
C71   C     C_R   0.206171 0.614969 0.561646 -0.208132
H52   H     H_    0.154487 0.574430 0.500509 0.204665
C72   C     C_R   0.274656 0.721094 0.606941 0.341314
C73   C     C_R   0.209790 0.553673 0.769074 -0.231149
H53   H     H_    0.180516 0.596680 0.783414 0.174405
C74   C     C_R   0.194358 0.497325 0.804634 -0.019628
C75   C     C_R   0.230462 0.438598 0.782875 0.067157
C76   C     C_R   0.283648 0.441256 0.728948 -0.191744
H54   H     H_    0.312412 0.397690 0.714196 0.170522
C77   C     C_R   0.300189 0.498958 0.694451 -0.052608
C78   C     C_R   0.261159 0.554305 0.713444 0.013956
C79   C     C_R   0.282499 0.421180 0.893612 -0.195664
H55   H     H_    0.339980 0.500931 0.928117 0.180339
C80   C     C_R   0.275402 0.364739 0.926650 -0.079761
H56   H     H_    0.327057 0.400496 0.985746 0.203273
C81   C     C_R   0.202071 0.262165 0.883451 -0.163366
H57   H     H_    0.196489 0.218816 0.909642 0.169094
C82   C     C_R   0.136185 0.214965 0.806136 -0.199034
H58   H     H_    0.080065 0.135067 0.773940 0.170827
C83   C     C_R   0.142306 0.269771 0.770614 0.365147
C84   C     C_R   0.216646 0.375247 0.816157 -0.002479
Zn5   Zn    Zn3+2 0.041710 0.413240 0.959030 0.997698
Zn6   Zn    Zn3+2 0.866640 0.413270 0.959030 1.027542
Zn7   Zn    Zn3+2 0.040930 0.586780 0.958260 0.979348
Zn8   Zn    Zn3+2 0.041710 0.586770 0.132560 1.020815
O14   O     O_3   0.997750 0.500010 0.002220 -0.500087
O15   O     O_R   0.942690 0.560750 0.179280 -0.636157
O16   O     O_R   0.114340 0.439270 0.886160 -0.643472
O17   O     O_R   0.820160 0.268410 0.886930 -0.590256
O18   O     O_R   0.113800 0.731630 0.056520 -0.642342
O19   O     O_R   0.819390 0.439310 0.886160 -0.614093
O20   O     O_R   0.115110 0.560720 0.179280 -0.606991
O21   O     O_R   0.941380 0.560750 0.885620 -0.651444
O22   O     O_R   0.115110 0.439270 0.057830 -0.645892
O23   O     O_R   0.942690 0.268390 0.886930 -0.639124
O24   O     O_R   0.114340 0.731630 0.178520 -0.620656
O25   O     O_R   0.820160 0.439310 0.057830 -0.648095
O26   O     O_R   0.113800 0.560730 0.885620 -0.648005
C85   C     C_R   0.856985 0.498742 0.142658 0.756981
C86   C     C_R   0.138748 0.499641 0.861782 0.822320
C87   C     C_R   0.856882 0.219039 0.861332 0.802329
C88   C     C_R   0.136879 0.779911 0.141198 0.793190
C89   C     C_R   0.855935 0.500800 0.863072 0.813652
C90   C     C_R   0.140175 0.500398 0.142754 0.767496
C91   C     C_2   0.163702 0.352804 0.300046 0.415142
H59   H     H_    0.161885 0.288944 0.292428 0.076732
O27   O     O_2   0.132227 0.391642 0.353062 -0.583560
N1    N     N_R   0.679775 0.101730 0.729733 0.223038
O28   O     O_R   0.618302 0.079302 0.766436 -0.435497
O29   O     O_R   0.690381 0.158317 0.702075 -0.406191
C92   C     C_2   0.593668 0.895374 0.794240 0.437929
H60   H     H_    0.552762 0.909944 0.768429 0.114628
O30   O     O_2   0.561501 0.843180 0.823258 -0.589083
C93   C     C_2   0.600153 0.297253 0.198482 0.444467
H61   H     H_    0.642614 0.279697 0.217280 0.062102
O31   O     O_2   0.518590 0.235913 0.172069 -0.513473
C94   C     C_2   0.330834 0.588694 0.150339 0.511240
H62   H     H_    0.305018 0.631280 0.151171 0.076335
O32   O     O_2   0.398639 0.604089 0.130356 -0.547363
N2    N     N_R   0.186088 0.077566 0.469652 0.201929
O33   O     O_R   0.157093 0.076352 0.404201 -0.378259
O34   O     O_R   0.133546 0.057407 0.514842 -0.339196
C95   C     C_2   0.815998 0.433725 0.537146 0.361924
H63   H     H_    0.775309 0.390387 0.562469 0.087457
O35   O     O_2   0.829188 0.388342 0.468344 -0.554673
C96   C     C_2   0.482353 0.144244 0.780861 0.567343
H64   H     H_    0.486752 0.099268 0.716283 0.123238
O36   O     O_2   0.424880 0.098118 0.804772 -0.482254
N3    N     N_R   0.482252 0.279044 0.958862 0.263967
O37   O     O_R   0.495931 0.235829 0.990819 -0.337886
O38   O     O_R   0.408066 0.273486 0.953651 -0.352360
N4    N     N_R   0.604904 0.503398 0.055482 0.204560
O39   O     O_R   0.556679 0.469817 0.097747 -0.380698
O40   O     O_R   0.655741 0.602819 0.093570 -0.389015
C97   C     C_2   0.091679 0.300367 0.100848 0.432273
H65   H     H_    0.126891 0.277695 0.056231 0.063107
O41   O     O_2   0.009598 0.245363 0.074402 -0.576737
N5    N     N_R   0.277513 0.777529 0.572433 0.210982
O42   O     O_R   0.345585 0.872822 0.609082 -0.355753
O43   O     O_R   0.211729 0.734424 0.504452 -0.387534
N6    N     N_R   0.073627 0.216887 0.689191 0.208603
O44   O     O_R   0.062321 0.267537 0.665198 -0.377874
O45   O     O_R   0.018688 0.116380 0.639761 -0.371089
N7    N     N_R   0.282205 0.695701 0.318290 0.220766
O46   O     O_R   0.245965 0.746629 0.340511 -0.319096
O47   O     O_R   0.367283 0.744488 0.327161 -0.397691

loop_
_geom_bond_atom_site_label_1
_geom_bond_atom_site_label_2
_geom_bond_distance
_ccdc_geom_bond_type
C26   H24   1.111684 S    
C37   H34   1.084814 S    
H22   C25   1.112797 S    
C41   C42   1.417018 A    
C33   C42   1.482804 S    
C55   C60   1.379164 A    
C17   C21   1.554925 S    
O15   C85   1.282102 A    
C9    C91   1.515853 S    
O17   C87   1.285507 A    
C43   H36   1.083170 S    
C7    C8    1.552399 S    
C16   H11   1.115328 S    
C16   C20   1.567685 S    
C64   C65   1.407571 A    
Zn6   O14   1.950156 S    
C44   H37   1.082513 S    
C18   H13   1.113388 S    
C22   H15   1.112894 S    
O6    C5    1.280234 A    
C12   C90   1.497676 S    
C70   C71   1.397361 A    
O4    C3    1.285144 A    
Zn1   O1    1.943212 S    
Zn5   O14   1.943212 S    
C73   C78   1.385125 A    
C8    H3    1.109809 S    
C82   H58   1.082568 S    
C12   C14   1.580762 S    
C14   H7    1.115550 S    
C35   C36   1.395280 A    
C14   N7    1.473721 S    
C76   H54   1.084936 S    
C91   O27   1.220814 D    
C29   H29   1.113108 S    
Zn6   O25   1.942704 S    
C31   C32   1.395505 A    
H23   C29   1.112527 S    
C26   H25   1.111554 S    
Zn7   O26   1.937116 S    
O23   C87   1.281889 A    
C23   C24   1.543630 S    
C94   O32   1.221005 D    
C37   C42   1.383095 A    
O8    C5    1.271127 A    
C34   N2    1.442058 S    
C55   H45   1.084828 S    
O9    C6    1.277589 A    
C24   H21   1.112404 S    
Zn5   O23   1.933649 S    
C38   C88   1.452688 S    
O7    C6    1.278068 A    
C92   O30   1.220658 D    
Zn8   O20   1.947278 S    
C63   N3    1.431258 S    
C51   C52   1.404945 A    
Zn3   O8    1.952656 S    
C43   C48   1.404277 A    
C64   N4    1.447596 S    
C56   C57   1.411034 A    
C82   C83   1.409398 A    
C47   C48   1.405001 A    
C15   C16   1.552335 S    
C26   C30   1.543256 S    
Zn7   O21   1.949576 S    
C34   C35   1.407221 A    
C67   H49   1.082220 S    
C25   C27   1.551782 S    
C57   C66   1.478712 S    
C49   H42   1.082980 S    
C10   H5    1.107943 S    
C5    C59   1.442008 S    
N2    O33   1.301010 A    
O16   C86   1.273437 A    
Zn5   O16   1.943392 S    
Zn2   O12   1.933396 S    
C74   C86   1.457628 S    
C76   C77   1.399462 A    
C18   C22   1.544031 S    
Zn6   O19   1.952512 S    
C31   C36   1.394112 A    
O26   C86   1.286292 A    
C26   C27   1.553107 S    
C46   C47   1.398855 A    
C75   C84   1.482319 S    
O20   C90   1.276177 A    
C95   O35   1.221285 D    
C53   H44   1.082456 S    
C92   H60   1.083634 S    
C20   C87   1.505087 S    
C72   N5    1.439095 S    
C95   H63   1.084631 S    
C44   C45   1.397787 A    
C58   C59   1.396685 A    
C75   C76   1.385945 A    
C18   H14   1.113358 S    
Zn7   O14   1.956059 S    
C22   H16   1.113658 S    
O2    C1    1.290611 A    
C17   C19   1.567723 S    
C73   H53   1.085047 S    
C79   C84   1.404876 A    
N3    O37   1.300723 A    
C46   H39   1.082382 S    
O10   C3    1.274962 A    
C7    H1    1.113371 S    
C30   H27   1.112899 S    
C38   C39   1.416960 A    
N6    O44   1.300705 A    
C2    C19   1.506060 S    
C32   H32   1.083362 S    
C68   C69   1.400829 A    
C16   N1    1.468813 S    
C8    C12   1.572059 S    
C23   H19   1.113744 S    
O18   C88   1.279282 A    
C13   H8    1.114997 S    
C20   C21   1.551956 S    
C61   C66   1.395070 A    
C10   C14   1.543268 S    
C24   H20   1.114557 S    
C20   C22   1.559756 S    
C12   C13   1.576454 S    
C93   O31   1.220972 D    
C91   H59   1.085318 S    
C7    C11   1.556671 S    
H4    C9    1.115259 S    
Zn3   O5    1.942704 S    
C51   C60   1.481895 S    
C40   C41   1.398034 A    
C18   C19   1.557326 S    
C24   C28   1.552456 S    
C57   C58   1.380027 A    
N5    O42   1.301433 A    
O19   C89   1.271717 A    
C3    C77   1.457960 S    
Zn5   O22   1.954647 S    
C10   H6    1.112471 S    
C52   C53   1.395223 A    
C35   H33   1.082867 S    
Zn4   O7    1.947282 S    
N7    O47   1.301786 A    
C49   C54   1.396813 A    
C81   H57   1.082479 S    
Zn6   O17   1.930220 S    
C67   C68   1.398170 A    
Zn7   O18   1.933294 S    
Zn4   O2    1.932457 S    
C15   H9    1.111350 S    
C45   C46   1.398202 A    
C96   O36   1.220071 D    
H30   C36   1.080777 S    
N4    O39   1.300227 A    
O25   C85   1.281524 A    
N4    O40   1.301793 A    
C37   C38   1.398356 A    
C23   C93   1.514351 S    
C83   C84   1.424371 A    
C73   C74   1.397506 A    
Zn2   O1    1.955911 S    
Zn1   O9    1.954749 S    
C17   C92   1.510230 S    
N1    O29   1.301077 A    
C63   C64   1.423644 A    
Zn2   O6    1.949678 S    
O24   C88   1.289858 A    
C71   C72   1.406668 A    
C40   H35   1.084820 S    
C28   C29   1.548782 S    
C58   H46   1.085205 S    
C61   C62   1.401174 A    
C65   H48   1.083100 S    
C56   C89   1.440258 S    
C67   C72   1.406595 A    
C15   C19   1.554382 S    
C69   C78   1.477110 S    
C52   H43   1.083430 S    
Zn8   O15   1.938719 S    
Zn1   O3    1.933751 S    
C81   C82   1.395756 A    
O21   C89   1.278887 A    
C10   C11   1.553043 S    
Zn2   O4    1.937071 S    
C7    H2    1.113747 S    
C39   C48   1.481273 S    
C80   C81   1.392417 A    
C30   H26   1.112912 S    
Zn3   O1    1.950156 S    
C25   H28   1.113341 S    
C28   C30   1.554141 S    
C71   H52   1.082233 S    
C43   C44   1.398528 A    
C28   C85   1.486133 S    
C68   H50   1.082130 S    
Zn1   O10   1.943493 S    
C70   H51   1.083241 S    
O3    C2    1.283315 A    
H12   C21   1.110664 S    
C45   H38   1.081856 S    
C9    C13   1.561593 S    
H41   C54   1.082431 S    
C74   C75   1.417850 A    
C62   C96   1.487070 S    
C6    C11   1.491027 S    
Zn4   O11   1.938723 S    
C50   C95   1.484744 S    
N1    O28   1.300853 A    
C97   O41   1.221026 D    
C13   C97   1.516758 S    
C25   C29   1.544194 S    
C50   C51   1.416457 A    
C93   H61   1.084818 S    
C9    C11   1.565433 S    
C31   H31   1.082284 S    
O5    C4    1.284671 A    
C39   C40   1.384279 A    
C49   C50   1.407725 A    
O11   C4    1.279084 A    
C62   C63   1.420514 A    
C97   H65   1.084724 S    
C15   H10   1.113387 S    
O13   C2    1.283887 A    
C32   C33   1.405209 A    
C55   C56   1.398007 A    
Zn3   O13   1.930220 S    
C79   C80   1.394399 A    
C77   C78   1.416297 A    
N7    O46   1.301437 A    
Zn8   O14   1.957899 S    
C21   H18   1.113642 S    
C94   H62   1.084722 S    
O22   C90   1.281026 A    
C23   C27   1.569246 S    
Zn4   O1    1.957899 S    
C8    C94   1.513180 S    
C96   H64   1.085799 S    
O12   C1    1.278686 A    
C33   C34   1.421197 A    
C17   H17   1.115290 S    
C47   H40   1.083091 S    
N3    O38   1.300977 A    
C1    C41   1.453242 S    
C79   H55   1.083475 S    
C69   C70   1.400745 A    
N2    O34   1.301546 A    
C80   H56   1.081975 S    
C65   C66   1.396202 A    
C59   C60   1.412062 A    
Zn8   O24   1.932412 S    
C83   N6    1.445430 S    
N6    O45   1.301738 A    
C4    C27   1.488548 S    
N5    O43   1.301378 A    
C61   H47   1.083968 S    
C53   C54   1.394385 A    
