data_mof_unit_68058.cif
_audit_creation_date              2013-03-05T15:43:53-0500
_audit_creation_method            fapswitch 2.2
_symmetry_space_group_name_H-M    P1
_symmetry_Int_Tables_number       1
_space_group_crystal_system       triclinic
_cell_length_a                    7.479236
_cell_length_b                    13.846612
_cell_length_c                    16.730053
_cell_angle_alpha                 89.999178
_cell_angle_beta                  96.861859
_cell_angle_gamma                 90.00123
_cell_volume                      1720.18862719

loop_
_atom_site_label
_atom_site_type_symbol
_atom_site_description
_atom_site_fract_x
_atom_site_fract_y
_atom_site_fract_z
_atom_type_partial_charge
O1    O     O_R   0.525340 0.338340 0.164530 -0.594407
O2    O     O_R   0.474660 0.661660 0.835470 -0.580802
O3    O     O_R   0.974660 0.838340 0.835470 -0.594446
O4    O     O_R   0.025340 0.161660 0.164530 -0.580810
O5    O     O_R   0.253520 0.352000 0.336710 -0.519495
O6    O     O_R   0.746480 0.648000 0.663290 -0.545226
O7    O     O_R   0.246480 0.852000 0.663290 -0.519492
O8    O     O_R   0.753520 0.148000 0.336710 -0.545226
O9    O     O_R   0.083330 0.168380 0.337300 -0.552073
O10   O     O_R   0.916670 0.831620 0.662700 -0.556944
O11   O     O_R   0.416670 0.668380 0.662700 -0.552081
O12   O     O_R   0.583330 0.331620 0.337300 -0.556926
C1    C     C_R   0.432547 0.368862 0.363362 0.756505
C2    C     C_R   0.568655 0.630248 0.638173 0.741102
C3    C     C_R   0.067454 0.868861 0.636638 0.756528
C4    C     C_R   0.931343 0.130248 0.361827 0.741105
O13   O     O_R   0.195840 0.349670 0.165140 -0.476789
O14   O     O_R   0.804160 0.650330 0.834860 -0.474888
O15   O     O_R   0.304160 0.849670 0.834860 -0.476793
O16   O     O_R   0.695840 0.150330 0.165140 -0.474884
C5    C     C_R   0.357765 0.373578 0.139412 0.762941
C6    C     C_R   0.642087 0.626599 0.860991 0.771839
C7    C     C_R   0.142235 0.873583 0.860585 0.763009
C8    C     C_R   0.857906 0.126605 0.139004 0.771849
O17   O     O_3   0.387830 0.193120 0.250910 -0.264378
O18   O     O_3   0.612170 0.806880 0.749090 -0.267784
O19   O     O_3   0.112170 0.693120 0.749090 -0.264377
O20   O     O_3   0.887830 0.306880 0.250910 -0.267761
V1    V     V_3+5 0.113010 0.264540 0.250910 1.282155
V2    V     V_3+5 0.886990 0.735460 0.749090 1.261723
V3    V     V_3+5 0.386990 0.764540 0.749090 1.282144
V4    V     V_3+5 0.613010 0.235460 0.250910 1.261752
C9    C     C_R   0.949792 0.200770 0.530505 -0.144955
C10   C     C_R   0.031942 0.796277 0.464350 -0.135997
C11   C     C_R   0.550184 0.700779 0.469495 -0.144976
C12   C     C_R   0.468056 0.296279 0.535652 -0.135984
C13   C     C_R   0.940271 0.232096 0.610078 0.364772
C14   C     C_R   0.011099 0.764385 0.383224 0.353863
C15   C     C_R   0.559689 0.732112 0.389923 0.364737
C16   C     C_R   0.488882 0.264387 0.616780 0.353861
C17   C     C_R   0.931101 0.162598 0.670554 -0.036943
C18   C     C_R   0.995941 0.832706 0.320927 -0.033299
C19   C     C_R   0.568834 0.662619 0.329444 -0.036936
C20   C     C_R   0.504030 0.332707 0.679075 -0.033299
C21   C     C_R   0.943913 0.064166 0.653339 0.099732
C22   C     C_R   0.987998 0.930517 0.338609 0.063664
C23   C     C_R   0.556028 0.564184 0.346656 0.099742
C24   C     C_R   0.511982 0.430518 0.661392 0.063651
C25   C     C_R   0.974448 0.031387 0.576224 0.123541
C26   C     C_R   0.994870 0.964526 0.418368 0.094119
C27   C     C_R   0.525521 0.531397 0.423773 0.123528
C28   C     C_R   0.505123 0.464528 0.581632 0.094095
C29   C     C_R   0.962166 0.099497 0.511801 -0.010321
C30   C     C_R   0.022123 0.897378 0.483679 0.003620
C31   C     C_R   0.537811 0.599504 0.488198 -0.010317
C32   C     C_R   0.477877 0.397380 0.516321 0.003635
C33   C     C_R   0.025212 0.933398 0.564410 -0.078685
C34   C     C_R   0.966978 0.064344 0.432078 -0.097889
C35   C     C_R   0.474786 0.433401 0.435589 -0.078679
C36   C     C_R   0.533014 0.564347 0.567921 -0.097887
H1    H     H_    0.938766 0.013577 0.702317 0.065393
H2    H     H_    0.974901 0.979902 0.288015 0.041011
H3    H     H_    0.561154 0.513600 0.297674 0.065387
H4    H     H_    0.525070 0.479903 0.711985 0.040991
C37   C     C_2   0.146032 0.954876 0.921741 0.224856
C38   C     C_2   0.848188 0.052530 0.071346 0.227565
C39   C     C_2   0.353950 0.454861 0.078249 0.224878
C40   C     C_2   0.651776 0.552516 0.928640 0.227471
C41   C     C_2   0.994176 0.975187 0.956238 -0.129341
C42   C     C_2   0.997421 0.017764 0.040653 -0.082168
C43   C     C_2   0.505790 0.475195 0.043753 -0.129302
C44   C     C_2   0.502534 0.517763 0.959335 -0.082169
C45   C     C_1   0.999350 0.805883 0.237657 0.499383
N1    N     N_1   0.002349 0.784603 0.170943 -0.205672
C46   C     C_1   0.915277 0.189669 0.752443 0.513259
N2    N     N_1   0.901087 0.209772 0.818420 -0.195603
C47   C     C_1   0.500585 0.305885 0.762345 0.499427
N3    N     N_1   0.497553 0.284604 0.829057 -0.205525
C48   C     C_1   0.584622 0.689703 0.247555 0.513201
N4    N     N_1   0.598777 0.709819 0.181578 -0.195766
C49   C     C_1   0.957640 0.275748 0.470991 0.378496
N5    N     N_1   0.962492 0.336717 0.424063 -0.173325
C50   C     C_1   0.058092 0.722284 0.525473 0.330498
N6    N     N_1   0.078068 0.661925 0.573490 -0.214438
C51   C     C_1   0.542356 0.775753 0.529012 0.378503
N7    N     N_1   0.537518 0.836720 0.575942 -0.173330
C52   C     C_1   0.441912 0.222285 0.474531 0.330498
N8    N     N_1   0.421939 0.161926 0.426515 -0.214441
S1    S     S_3+6 0.958500 0.358133 0.634607 -0.129338
O21   O     O_2   0.874297 0.381582 0.708465 -0.313575
O22   O     O_2   0.152422 0.383656 0.650486 -0.335228
O23   O     O_3   0.867120 0.429691 0.560037 -0.554843
H5    H     H_    0.896975 0.496013 0.579140 0.386132
S2    S     S_3+6 0.019000 0.638900 0.359897 -0.106537
O24   O     O_2   0.933244 0.616245 0.276812 -0.263093
O25   O     O_2   0.211403 0.612551 0.363289 -0.336889
O26   O     O_3   0.924774 0.569631 0.425808 -0.552047
H6    H     H_    0.021048 0.524714 0.448039 0.386021
S3    S     S_3+6 0.541475 0.858151 0.365398 -0.129343
O27   O     O_2   0.625672 0.881606 0.291538 -0.313563
O28   O     O_2   0.347554 0.883677 0.349524 -0.335235
O29   O     O_3   0.632870 0.929703 0.439968 -0.554844
H7    H     H_    0.603012 0.996027 0.420871 0.386129
S4    S     S_3+6 0.480951 0.138902 0.640110 -0.106540
O30   O     O_2   0.566659 0.116242 0.723204 -0.263071
O31   O     O_2   0.288536 0.112562 0.636696 -0.336890
O32   O     O_3   0.575199 0.069631 0.574209 -0.552076
H8    H     H_    0.478929 0.024710 0.551976 0.386023
C53   C     C_1   0.145344 0.992580 0.100542 0.376562
N9    N     N_1   0.257491 0.971789 0.151291 -0.182190
C54   C     C_1   0.846841 0.998947 0.895881 0.485970
N10   N     N_1   0.736458 0.014548 0.843358 -0.124746
C55   C     C_1   0.354600 0.492583 0.899449 0.376673
N11   N     N_1   0.242442 0.471796 0.848703 -0.182147
C56   C     C_1   0.653085 0.499012 0.104103 0.485903
N12   N     N_1   0.763441 0.514675 0.156614 -0.124765
S5    S     S_3+6 0.652059 0.980511 0.062223 -0.050513
O33   O     O_2   0.492471 0.046463 0.058046 -0.241618
O34   O     O_2   0.633757 0.910907 0.992866 -0.287824
O35   O     O_3   0.659280 0.915322 0.145867 -0.493425
H9    H     H_    0.545135 0.878712 0.138477 0.398936
S6    S     S_3+6 0.255568 0.060299 0.891594 -0.020023
O36   O     O_2   0.454158 0.050507 0.907270 -0.180052
O37   O     O_2   0.210644 0.073464 0.802689 -0.305489
O38   O     O_3   0.190796 0.158271 0.940478 -0.515969
H10   H     H_    0.288818 0.206075 0.938771 0.371016
S7    S     S_3+6 0.847865 0.480475 0.937768 -0.050498
O39   O     O_2   0.007472 0.546412 0.941966 -0.241515
O40   O     O_2   0.866100 0.410863 0.007117 -0.287790
O41   O     O_3   0.840668 0.415297 0.854122 -0.493420
H11   H     H_    0.954798 0.378674 0.861523 0.398946
S8    S     S_3+6 0.244321 0.560250 0.108376 -0.020020
O42   O     O_2   0.045793 0.550348 0.092758 -0.179987
O43   O     O_2   0.289307 0.573494 0.197259 -0.305575
O44   O     O_3   0.308859 0.658199 0.059433 -0.515885
H12   H     H_    0.211010 0.706059 0.061343 0.371051

loop_
_geom_bond_atom_site_label_1
_geom_bond_atom_site_label_2
_geom_bond_distance
_ccdc_geom_bond_type
C52   N8    1.156494 T    
O1    C5    1.363698 A    
O13   V1    2.011131 S    
C45   N1    1.157172 T    
O3    C7    1.363701 A    
C54   N10   1.151971 T    
O15   V3    2.011169 S    
S4    O31   1.479083 D    
O26   H6    0.989774 S    
O44   H12   0.990645 S    
C27   C31   1.426828 A    
C47   N3    1.157178 T    
C26   C30   1.430625 A    
C22   H2    1.083442 S    
C50   N6    1.156495 T    
O20   V1    1.783309 S    
O9    C4    1.360435 A    
C14   C18   1.402069 A    
O10   C3    1.358422 A    
S5    O34   1.502024 D    
C23   H3    1.082190 S    
O4    C8    1.363222 A    
O11   C2    1.360442 A    
C25   C29   1.426818 A    
C24   H4    1.083441 S    
C17   C46   1.438815 S    
C19   C48   1.438790 S    
C56   N12   1.151876 T    
C25   C33   1.429034 A    
C18   C22   1.389067 A    
C28   C36   1.420525 A    
O16   C8    1.376603 A    
S8    O42   1.482935 D    
C38   S5    1.765210 S    
O2    C6    1.363201 A    
O32   H8    0.989778 S    
O14   V2    2.011130 S    
S1    O22   1.485607 D    
C16   C20   1.402065 A    
O5    C1    1.379683 A    
O4    V1    2.078771 S    
C8    C38   1.522801 S    
O17   V4    1.783285 S    
O7    C3    1.379682 A    
O11   V3    1.996946 S    
O18   V3    1.783285 S    
O8    C4    1.368325 A    
C10   C14   1.418057 A    
C31   C36   1.424301 A    
C5    C39   1.519084 S    
O19   V2    1.783309 S    
C3    C33   1.505762 S    
O29   H7    0.989091 S    
S4    O30   1.492983 D    
C49   N5    1.156373 T    
O5    V1    2.066642 S    
C12   C52   1.444240 S    
C9    C29   1.442162 A    
O7    V3    2.066644 S    
C11   C31   1.442170 A    
O8    V4    2.066643 S    
C12   C16   1.418067 A    
S5    O35   1.660680 S    
O15   C7    1.373364 A    
C15   C19   1.403905 A    
S2    O26   1.678741 S    
C51   N7    1.156370 T    
C44   C55   1.443835 S    
O1    V4    2.078762 S    
O13   C5    1.373350 A    
O2    V3    2.078760 S    
C26   C34   1.420526 A    
O3    V2    2.078769 S    
C11   C15   1.409994 A    
C46   N2    1.155485 T    
S7    O40   1.501991 D    
C12   C32   1.440622 A    
C42   C53   1.443828 S    
C16   S4    1.783369 S    
O10   V2    1.996912 S    
C15   S3    1.794253 S    
S3    O27   1.488247 D    
C21   C25   1.411749 A    
C40   C44   1.370456 D    
C14   S2    1.783366 S    
C43   C56   1.440840 S    
S2    O24   1.492948 D    
C4    C34   1.486692 S    
C37   S6    1.776251 S    
S1    O23   1.673770 S    
S2    O25   1.479068 D    
C40   S7    1.765164 S    
C6    C40   1.522770 S    
O6    V2    2.066641 S    
C10   C30   1.440616 A    
O38   H10   0.990673 S    
C27   C35   1.429045 A    
C10   C50   1.444240 S    
S6    O37   1.496327 D    
S7    O39   1.497809 D    
O35   H9    0.987850 S    
C55   N11   1.156340 T    
O16   V4    2.011171 S    
C20   C47   1.444954 S    
C18   C45   1.444944 S    
S3    O28   1.485608 D    
O14   C6    1.376617 A    
C23   C27   1.411753 A    
C29   C34   1.424300 A    
C1    C35   1.505785 S    
O9    V1    1.996911 S    
C2    C36   1.486698 S    
C22   C26   1.410178 A    
C32   C35   1.437389 A    
C13   S1    1.794238 S    
C7    C37   1.519137 S    
S6    O38   1.684807 S    
O41   H11   0.987876 S    
S1    O21   1.488238 D    
S7    O41   1.660648 S    
O6    C2    1.368330 A    
C53   N9    1.156337 T    
C11   C51   1.444503 S    
C38   C42   1.370477 D    
C19   C23   1.398713 A    
S8    O44   1.684426 S    
C37   C41   1.363375 D    
C21   H1    1.082190 S    
O23   H5    0.989082 S    
C39   S8    1.776145 S    
C39   C43   1.363325 D    
C13   C17   1.403918 A    
C41   C42   1.527897 S    
C41   C54   1.440941 S    
C9    C13   1.410004 A    
C48   N4    1.155468 T    
C28   C32   1.430627 A    
C24   C28   1.410182 A    
S3    O29   1.673770 S    
C43   C44   1.527870 S    
O12   C1    1.358440 A    
S8    O43   1.496162 D    
C17   C21   1.398704 A    
S6    O36   1.483314 D    
S5    O33   1.497876 D    
C9    C49   1.444506 S    
S4    O32   1.678746 S    
O12   V4    1.996945 S    
C20   C24   1.389067 A    
C30   C33   1.437377 A    
