data_mof_unit_22677.cif
_audit_creation_date              2012-12-11T14:45:34-0500
_audit_creation_method            fapswitch 2.2
_symmetry_space_group_name_H-M    P1
_symmetry_Int_Tables_number       1
_space_group_crystal_system       triclinic
_cell_length_a                    24.823989
_cell_length_b                    7.192458
_cell_length_c                    14.338803
_cell_angle_alpha                 90.001628
_cell_angle_beta                  102.853379
_cell_angle_gamma                 89.998203
_cell_volume                      2495.97837023

loop_
_atom_site_label
_atom_site_type_symbol
_atom_type_description
_atom_site_fract_x
_atom_site_fract_y
_atom_site_fract_z
_atom_type_partial_charge
O1    O     O_R   0.319150 0.364170 0.330530 -0.539634
O2    O     O_R   0.680850 0.635830 0.669470 -0.532338
O3    O     O_R   0.180850 0.864170 0.169470 -0.539627
O4    O     O_R   0.819150 0.135830 0.830530 -0.532339
O5    O     O_R   0.210330 0.696850 0.354180 -0.542279
O6    O     O_R   0.789670 0.303150 0.645820 -0.532198
O7    O     O_R   0.289670 0.196850 0.145820 -0.542306
O8    O     O_R   0.710330 0.803150 0.854180 -0.532195
C1    C     C_R   0.197627 0.525236 0.378751 0.673104
C2    C     C_R   0.802443 0.474503 0.621279 0.677979
C3    C     C_R   0.302373 0.025231 0.121248 0.673158
C4    C     C_R   0.697554 0.974509 0.878717 0.677971
O9    O     O_R   0.320550 0.694110 0.341970 -0.536398
O10   O     O_R   0.679450 0.305890 0.658030 -0.543133
O11   O     O_R   0.179450 0.194110 0.158030 -0.536426
O12   O     O_R   0.820550 0.805890 0.841970 -0.543126
O13   O     O_R   0.291860 0.861000 0.157170 -0.529533
O14   O     O_R   0.708140 0.139000 0.842830 -0.541684
O15   O     O_R   0.208140 0.361000 0.342830 -0.529559
O16   O     O_R   0.791860 0.639000 0.657170 -0.541689
C5    C     C_R   0.341914 0.525592 0.361775 0.718333
C6    C     C_R   0.658097 0.474279 0.638255 0.713962
C7    C     C_R   0.158085 0.025596 0.138226 0.718337
C8    C     C_R   0.841903 0.974277 0.861744 0.713958
O17   O     O_3   0.240460 0.529330 0.189380 -0.376042
O18   O     O_3   0.759540 0.470670 0.810620 -0.375746
O19   O     O_3   0.259540 0.029330 0.310620 -0.376027
O20   O     O_3   0.740460 0.970670 0.689380 -0.375753
V1    V     V_3+5 0.251770 0.805510 0.261240 1.424999
V2    V     V_3+5 0.748230 0.194490 0.738760 1.423164
V3    V     V_3+5 0.248230 0.305510 0.238760 1.424900
V4    V     V_3+5 0.751770 0.694490 0.761240 1.423167
C9    C     C_R   0.102934 0.016579 0.073602 -0.113036
C10   C     C_R   0.897014 0.982337 0.926440 -0.107617
C11   C     C_R   0.397065 0.516560 0.426401 -0.113098
C12   C     C_R   0.602986 0.482349 0.573560 -0.107610
C13   C     C_R   0.954764 0.987691 0.089260 0.491674
C14   C     C_R   0.044994 0.017564 0.911230 0.492109
C15   C     C_R   0.545239 0.487940 0.410741 0.491641
C16   C     C_R   0.455001 0.517338 0.588779 0.492132
C17   C     C_R   0.902071 0.982825 0.025451 -0.275230
C18   C     C_R   0.097483 0.030391 0.974744 -0.275573
C19   C     C_R   0.597931 0.483042 0.474550 -0.275291
C20   C     C_R   0.402511 0.530189 0.525264 -0.275526
C21   C     C_R   0.944326 0.992041 0.888938 -0.223126
C22   C     C_R   0.055778 0.997327 0.111074 -0.216808
C23   C     C_R   0.555672 0.491892 0.611063 -0.223108
C24   C     C_R   0.444225 0.497455 0.388925 -0.217022
C25   C     C_R   0.997349 0.001019 0.949758 -0.019592
C26   C     C_R   0.002548 0.994628 0.050446 -0.017552
C27   C     C_R   0.502649 0.500927 0.550245 -0.019582
C28   C     C_R   0.497453 0.494734 0.449554 -0.017291
H1    H     H_    0.060926 0.988879 0.188024 0.179396
H2    H     H_    0.939378 0.993708 0.811906 0.178378
H3    H     H_    0.439080 0.489138 0.311971 0.179402
H4    H     H_    0.560619 0.493403 0.688095 0.178345
H5    H     H_    0.134482 0.051855 0.948035 0.104981
H6    H     H_    0.864370 0.981977 0.051422 0.101466
H7    H     H_    0.365506 0.551537 0.551971 0.104933
H8    H     H_    0.635633 0.482315 0.448579 0.101482
C29   C     C_R   0.665716 0.978765 0.952970 -0.053800
C30   C     C_R   0.334391 0.014261 0.047509 -0.049514
C31   C     C_R   0.834273 0.478735 0.547015 -0.053811
C32   C     C_R   0.165600 0.514285 0.452478 -0.049481
C33   C     C_R   0.658403 0.910902 0.114251 -0.148807
C34   C     C_R   0.340284 0.950342 0.885193 -0.147208
C35   C     C_R   0.841584 0.410688 0.385750 -0.148806
C36   C     C_R   0.159706 0.450662 0.614819 -0.147205
C37   C     C_R   0.690385 0.926149 0.046317 -0.167242
C38   C     C_R   0.308586 0.972183 0.953257 -0.169509
C39   C     C_R   0.809604 0.426007 0.453685 -0.167232
C40   C     C_R   0.191409 0.472460 0.546760 -0.169505
C41   C     C_R   0.608877 0.011748 0.927412 -0.140901
C42   C     C_R   0.391804 0.030238 0.073822 -0.138274
C43   C     C_R   0.891110 0.511758 0.572557 -0.140891
C44   C     C_R   0.108183 0.530078 0.426131 -0.138382
C45   C     C_R   0.574521 0.973069 0.991487 0.097056
C46   C     C_R   0.425268 0.987012 0.009004 0.097319
C47   C     C_R   0.925465 0.473002 0.508488 0.097057
C48   C     C_R   0.074718 0.486965 0.490963 0.097326
C49   C     C_R   0.600827 0.934703 0.087626 0.062291
C50   C     C_R   0.398268 0.959112 0.912219 0.062457
C51   C     C_R   0.899158 0.434523 0.412363 0.062238
C52   C     C_R   0.101719 0.459269 0.587768 0.062507
C53   C     C_R   0.515423 0.969199 0.963447 -0.095700
C54   C     C_R   0.484148 0.970348 0.036820 -0.095694
C55   C     C_R   0.984563 0.469167 0.536525 -0.095670
C56   C     C_R   0.015838 0.470242 0.463150 -0.095735
C57   C     C_R   0.512473 0.940774 0.134294 0.439721
C58   C     C_R   0.486659 0.949439 0.865515 0.442534
C59   C     C_R   0.987507 0.440573 0.365684 0.439679
C60   C     C_R   0.013326 0.449520 0.634463 0.442533
C61   C     C_R   0.569783 0.915101 0.156361 -0.281071
C62   C     C_R   0.428917 0.936168 0.843087 -0.283754
C63   C     C_R   0.930201 0.414849 0.343631 -0.280975
C64   C     C_R   0.071070 0.436369 0.656903 -0.283795
H9    H     H_    0.590459 0.876191 0.228399 0.135149
H10   H     H_    0.407467 0.904571 0.770487 0.132931
H11   H     H_    0.909528 0.375859 0.271602 0.135210
H12   H     H_    0.092525 0.404887 0.729515 0.132906
H13   H     H_    0.408925 0.080722 0.144565 0.139054
H14   H     H_    0.592813 0.068332 0.857506 0.143034
H15   H     H_    0.091068 0.580365 0.355351 0.139013
H16   H     H_    0.907175 0.568419 0.642448 0.143022
H17   H     H_    0.264055 0.958488 0.932349 0.095938
H18   H     H_    0.734348 0.898367 0.066574 0.097561
H19   H     H_    0.235943 0.458919 0.567694 0.095919
H20   H     H_    0.765644 0.398187 0.433443 0.097568
H21   H     H_    0.678504 0.875673 0.187201 0.107709
H22   H     H_    0.319512 0.923516 0.811582 0.108244
H23   H     H_    0.821483 0.375373 0.312811 0.107711
H24   H     H_    0.180478 0.424017 0.688450 0.108244
O21   O     O_3   0.962215 0.000501 0.188691 -0.548742
C65   C     C_3   0.916884 0.935400 0.223837 -0.270521
H25   H     H_    0.901918 0.797978 0.192854 0.111046
H26   H     H_    0.883133 0.040072 0.211555 0.141859
H27   H     H_    0.930564 0.916221 0.302329 0.174734
O22   O     O_3   0.037727 0.037465 0.812370 -0.542766
C66   C     C_3   0.081223 0.958220 0.776868 -0.258505
H28   H     H_    0.095078 0.822232 0.811106 0.105643
H29   H     H_    0.116304 0.057124 0.784848 0.140789
H30   H     H_    0.066087 0.931900 0.699203 0.172755
O23   O     O_3   0.537790 0.500924 0.311317 -0.548732
C67   C     C_3   0.583117 0.435837 0.276147 -0.270551
H31   H     H_    0.598067 0.298358 0.307071 0.111057
H32   H     H_    0.616878 0.540464 0.288477 0.141833
H33   H     H_    0.569435 0.416787 0.197648 0.174785
O24   O     O_3   0.462273 0.537074 0.687652 -0.542818
C68   C     C_3   0.418739 0.458033 0.723121 -0.258610
H34   H     H_    0.404843 0.322091 0.688865 0.105714
H35   H     H_    0.383692 0.557091 0.715137 0.140794
H36   H     H_    0.433852 0.431666 0.800787 0.172746
O25   O     O_3   0.483848 0.898972 0.204661 -0.539466
C69   C     C_3   0.498208 0.026743 0.281511 0.071755
H37   H     H_    0.494307 0.172550 0.254885 0.142389
H38   H     H_    0.540891 0.002211 0.323653 0.129492
C70   C     C_3   0.459398 0.003176 0.349247 -0.675201
H39   H     H_    0.463633 0.861750 0.380103 0.237535
H40   H     H_    0.470262 0.104269 0.408892 0.175139
H41   H     H_    0.415849 0.026352 0.311149 0.210047
O26   O     O_3   0.514697 0.904494 0.794722 -0.536865
C71   C     C_3   0.501479 0.032680 0.717860 0.078759
H42   H     H_    0.505217 0.178808 0.744267 0.129179
H43   H     H_    0.459123 0.008339 0.674351 0.131117
C72   C     C_3   0.541203 0.007504 0.651803 -0.674565
H44   H     H_    0.539168 0.862954 0.624969 0.239907
H45   H     H_    0.529506 0.102027 0.589433 0.176114
H46   H     H_    0.584218 0.039036 0.690023 0.206987
O27   O     O_3   0.016120 0.398730 0.295306 -0.539460
C73   C     C_3   0.001797 0.526630 0.218510 0.071849
H47   H     H_    0.005841 0.672392 0.245195 0.142409
H48   H     H_    0.959070 0.502537 0.176459 0.129350
C74   C     C_3   0.040510 0.502693 0.150639 -0.675303
H49   H     H_    0.029824 0.604377 0.091241 0.175159
H50   H     H_    0.084116 0.524709 0.188732 0.210364
H51   H     H_    0.035963 0.361563 0.119435 0.237343
O28   O     O_3   0.985288 0.404557 0.705254 -0.536831
C75   C     C_3   0.998502 0.532708 0.782134 0.078838
H52   H     H_    0.994785 0.678837 0.755747 0.129045
H53   H     H_    0.040846 0.508299 0.825661 0.131197
C76   C     C_3   0.958771 0.507584 0.848161 -0.674657
H54   H     H_    0.960794 0.363077 0.875017 0.239869
H55   H     H_    0.970445 0.602106 0.910533 0.176133
H56   H     H_    0.915767 0.539130 0.809915 0.207015

loop_
_geom_bond_atom_site_label_1
_geom_bond_atom_site_label_2
_ccdc_geom_bond_type
O17   V3    S    
C24   H3    S    
C55   C56   A    
O1    C5    A    
O28   C75   S    
C50   C62   A    
O19   V1    S    
C1    C32   S    
O13   V1    S    
O3    C7    A    
C2    C31   S    
C60   C64   A    
C48   C52   A    
C3    C30   S    
O15   V3    S    
O24   C68   S    
C76   H56   S    
C69   C70   S    
C47   C55   A    
C72   H44   S    
O23   C67   S    
C14   C25   A    
C34   C38   A    
C53   C54   A    
O7    C3    A    
C70   H40   S    
O5    C1    A    
C9    C18   A    
O9    V1    S    
C17   H6    S    
C14   C18   A    
C36   H24   S    
O4    C8    A    
C63   H11   S    
C13   O21   S    
C62   H10   S    
C20   H7    S    
C16   O24   S    
O1    V3    S    
C15   O23   S    
C30   C38   A    
C12   C23   A    
O2    V4    S    
C52   C64   A    
O3    V1    S    
O22   C66   S    
C75   C76   S    
C72   H45   S    
C1    O15   A    
C2    O16   A    
C7    C9    S    
C73   C74   S    
O2    C6    A    
C56   C59   A    
O14   V2    S    
C45   C49   A    
C74   H50   S    
C16   C20   A    
C36   C40   A    
C68   H36   S    
C46   C54   A    
C44   H15   S    
O11   C7    A    
C15   C28   A    
C45   C53   A    
O12   C8    A    
C39   H20   S    
C75   H53   S    
C9    C22   A    
C71   C72   S    
C10   C17   A    
O10   V2    S    
C11   C24   A    
C18   H5    S    
C76   H55   S    
C58   C62   A    
O5    V1    S    
C66   H29   S    
C65   H27   S    
C70   H41   S    
C67   H31   S    
C57   O25   S    
C27   C28   A    
C36   C52   A    
O7    V3    S    
C59   O27   S    
O18   V4    S    
C23   C27   A    
C29   C41   A    
C54   C57   A    
C57   C61   A    
C8    C10   S    
C60   O28   S    
O8    V4    S    
C69   H38   S    
C73   H48   S    
C34   C50   A    
O25   C69   S    
C49   C61   A    
C46   C50   A    
C33   C49   A    
C40   H19   S    
C21   C25   A    
O8    C4    A    
C51   C63   A    
C32   C44   A    
O9    C5    A    
C10   C21   A    
C35   C51   A    
C34   H22   S    
C74   H51   S    
O11   V3    S    
C11   C20   A    
C33   H21   S    
C19   H8    S    
C67   H33   S    
C35   H23   S    
C41   H14   S    
O6    V2    S    
C31   C39   A    
C21   H2    S    
C25   C26   A    
C42   H13   S    
C43   H16   S    
C71   H43   S    
C61   H9    S    
C72   H46   S    
C55   C60   A    
C67   H32   S    
O21   C65   S    
O16   V4    S    
C66   H30   S    
C29   C37   A    
C65   H26   S    
C3    O13   A    
C37   H18   S    
C71   H42   S    
C44   C48   A    
C38   H17   S    
O6    C2    A    
C15   C19   A    
C53   C58   A    
C65   H25   S    
C69   H37   S    
C5    C11   S    
O12   V4    S    
C16   C27   A    
C6    C12   S    
C70   H39   S    
C22   C26   A    
O10   C6    A    
O20   V2    S    
C68   H34   S    
C48   C56   A    
C76   H54   S    
O27   C73   S    
C47   C51   A    
C4    C29   S    
C75   H52   S    
C31   C43   A    
C33   C37   A    
C64   H12   S    
C22   H1    S    
C13   C26   A    
C35   C39   A    
C32   C40   A    
C13   C17   A    
C58   O26   S    
C59   C63   A    
C14   O22   S    
C24   C28   A    
C66   H28   S    
C42   C46   A    
C4    O14   A    
C41   C45   A    
C73   H47   S    
C30   C42   A    
C12   C19   A    
C74   H49   S    
O26   C71   S    
C43   C47   A    
O4    V2    S    
C23   H4    S    
C68   H35   S    
