data_mof_unit_62298.cif
_audit_creation_date              2013-03-05T16:07:57-0500
_audit_creation_method            fapswitch 2.2
_symmetry_space_group_name_H-M    P1
_symmetry_Int_Tables_number       1
_space_group_crystal_system       triclinic
_cell_length_a                    30.325272
_cell_length_b                    30.198428
_cell_length_c                    24.713484
_cell_angle_alpha                 89.890689
_cell_angle_beta                  128.494651
_cell_angle_gamma                 89.964054
_cell_volume                      17713.2264732

loop_
_atom_site_label
_atom_site_type_symbol
_atom_site_description
_atom_site_fract_x
_atom_site_fract_y
_atom_site_fract_z
_atom_type_partial_charge
O1    O     O_R   0.822760 0.770240 0.499990 -0.544116
O2    O     O_R   0.177240 0.770240 0.500010 -0.543173
O3    O     O_R   0.322760 0.270240 0.499990 -0.544099
O4    O     O_R   0.677240 0.270240 0.500010 -0.543161
O5    O     O_R   0.770230 0.822760 0.499990 -0.626540
O6    O     O_R   0.229770 0.822760 0.500010 -0.625318
O7    O     O_R   0.270230 0.322760 0.499990 -0.626521
O8    O     O_R   0.729770 0.322760 0.500010 -0.625304
C1    C     C_R   0.810758 0.810730 0.500341 1.011778
C2    C     C_R   0.189013 0.810681 0.499204 1.015144
C3    C     C_R   0.310759 0.310731 0.500343 1.011739
C4    C     C_R   0.689012 0.310681 0.499201 1.015233
O9    O     O_R   0.725330 0.723740 0.398130 -0.608301
O10   O     O_R   0.274670 0.723740 0.601870 -0.601980
O11   O     O_R   0.225330 0.223740 0.398130 -0.608307
O12   O     O_R   0.774670 0.223740 0.601870 -0.601981
O13   O     O_R   0.672800 0.776260 0.398130 -0.619862
O14   O     O_R   0.327200 0.776260 0.601870 -0.615699
O15   O     O_R   0.172800 0.276260 0.398130 -0.619856
O16   O     O_R   0.827200 0.276260 0.601870 -0.615659
C5    C     C_R   0.682721 0.750433 0.365401 0.956015
C6    C     C_R   0.317245 0.750227 0.634531 0.965792
C7    C     C_R   0.182720 0.250433 0.365401 0.956047
C8    C     C_R   0.817245 0.250227 0.634531 0.965835
Zn1   Zn    Zn3+2 0.785070 0.714920 0.500000 1.153102
Zn2   Zn    Zn3+2 0.214930 0.714920 0.500000 1.143081
Zn3   Zn    Zn3+2 0.285070 0.214920 0.500000 1.153094
Zn4   Zn    Zn3+2 0.714930 0.214920 0.500000 1.142994
Zn5   Zn    Zn3+2 0.714920 0.785060 0.500000 1.061277
Zn6   Zn    Zn3+2 0.285080 0.785060 0.500000 1.041053
Zn7   Zn    Zn3+2 0.214920 0.285060 0.500000 1.061244
Zn8   Zn    Zn3+2 0.785080 0.285060 0.500000 1.041076
O17   O     O_R   0.729750 0.677220 0.500010 -0.580023
O18   O     O_R   0.270250 0.677220 0.499990 -0.591148
O19   O     O_R   0.229750 0.177220 0.500010 -0.579997
O20   O     O_R   0.770250 0.177220 0.499990 -0.591399
O21   O     O_R   0.677220 0.729740 0.500010 -0.595315
O22   O     O_R   0.322780 0.729740 0.499990 -0.598789
O23   O     O_R   0.177220 0.229740 0.500010 -0.595399
O24   O     O_R   0.822780 0.229740 0.499990 -0.598654
O25   O     O_R   0.827180 0.723730 0.601860 -0.577807
O26   O     O_R   0.172820 0.723730 0.398140 -0.586584
O27   O     O_R   0.327180 0.223730 0.601860 -0.577825
O28   O     O_R   0.672820 0.223730 0.398140 -0.586679
O29   O     O_R   0.774660 0.776250 0.601860 -0.619501
O30   O     O_R   0.225340 0.776250 0.398140 -0.627163
O31   O     O_R   0.274660 0.276250 0.601860 -0.619490
O32   O     O_R   0.725340 0.276250 0.398140 -0.627129
C9    C     C_R   0.689435 0.689235 0.500163 0.940097
C10   C     C_R   0.309885 0.689275 0.498617 0.904060
C11   C     C_R   0.189438 0.189235 0.500168 0.940120
C12   C     C_R   0.809879 0.189275 0.498605 0.903780
C13   C     C_R   0.818033 0.750482 0.634450 0.912935
C14   C     C_R   0.182158 0.750338 0.365463 0.883687
C15   C     C_R   0.318035 0.250483 0.634451 0.912954
C16   C     C_R   0.682160 0.250337 0.365464 0.883532
C17   C     C_R   0.618493 0.790040 0.252540 0.458199
C18   C     C_R   0.376050 0.789978 0.747446 0.455646
C19   C     C_R   0.118478 0.290036 0.252538 0.458225
C20   C     C_R   0.876054 0.289977 0.747447 0.455636
C21   C     C_R   0.581263 0.789154 0.179854 0.179230
C22   C     C_R   0.409290 0.788972 0.820032 0.183270
C23   C     C_R   0.081247 0.289149 0.179852 0.179236
C24   C     C_R   0.909293 0.288969 0.820033 0.183285
C25   C     C_R   0.565876 0.748125 0.144987 -0.232207
C26   C     C_R   0.424667 0.747692 0.854667 -0.233879
C27   C     C_R   0.065870 0.248119 0.144987 -0.232220
C28   C     C_R   0.924666 0.247689 0.854667 -0.233874
C29   C     C_R   0.589827 0.708264 0.182890 0.305636
C30   C     C_R   0.405141 0.707712 0.816849 0.306005
C31   C     C_R   0.089832 0.208261 0.182891 0.305626
C32   C     C_R   0.905137 0.207710 0.816847 0.306028
C33   C     C_R   0.629494 0.710120 0.254880 -0.295145
C34   C     C_R   0.370197 0.709586 0.744787 -0.294234
C35   C     C_R   0.129501 0.210119 0.254881 -0.295111
C36   C     C_R   0.870195 0.209585 0.744786 -0.294235
H1    H     H_    0.647915 0.679692 0.284221 0.224432
H2    H     H_    0.354103 0.679127 0.715329 0.220669
H3    H     H_    0.147929 0.179692 0.284223 0.224472
H4    H     H_    0.854098 0.179126 0.715327 0.220626
C37   C     C_R   0.643515 0.750406 0.289747 -0.215691
C38   C     C_R   0.355288 0.750137 0.710101 -0.222812
C39   C     C_R   0.143512 0.250405 0.289747 -0.215750
C40   C     C_R   0.855288 0.250136 0.710101 -0.222806
N1    N     N_R   0.546803 0.729359 0.035944 -0.092674
N2    N     N_R   0.513276 0.728988 0.967229 -0.099749
N3    N     N_R   0.046798 0.229351 0.035944 -0.092665
N4    N     N_R   0.013272 0.228981 0.967229 -0.099733
C41   C     C_R   0.460808 0.746662 0.930012 0.442443
C42   C     C_R   0.528800 0.747390 0.069370 0.424205
C43   C     C_R   0.960806 0.246659 0.930011 0.442433
C44   C     C_R   0.028795 0.247384 0.069370 0.424183
N5    N     N_R   0.442595 0.764284 0.963356 -0.072956
N6    N     N_R   0.476023 0.764432 0.032017 -0.069948
N7    N     N_R   0.942592 0.264283 0.963354 -0.072963
N8    N     N_R   0.976019 0.264430 0.032015 -0.069953
C45   C     C_3   0.863047 0.887854 0.541820 -0.217599
C46   C     C_3   0.143913 0.890519 0.466370 -0.253075
C47   C     C_3   0.363103 0.387833 0.541882 -0.217639
C48   C     C_3   0.643914 0.390519 0.466370 -0.252872
C49   C     C_3   0.846501 0.912173 0.476466 0.262893
C50   C     C_3   0.157063 0.910101 0.532626 0.298364
C51   C     C_3   0.346532 0.412184 0.476537 0.262959
C52   C     C_3   0.657063 0.410099 0.532627 0.298486
H5    H     H_    0.852267 0.898242 0.575396 0.227149
H6    H     H_    0.159914 0.903033 0.439234 0.219327
H7    H     H_    0.352364 0.398206 0.575504 0.227139
H8    H     H_    0.659916 0.403033 0.439236 0.219381
C53   C     C_3   0.905836 0.904616 0.499007 -0.294944
C54   C     C_3   0.095085 0.905176 0.501729 -0.287585
C55   C     C_3   0.405843 0.404612 0.499010 -0.294943
C56   C     C_3   0.595084 0.405177 0.501728 -0.287622
C57   C     C_3   0.923412 0.879817 0.565024 -0.259947
C58   C     C_3   0.080857 0.885038 0.434631 -0.278860
C59   C     C_3   0.423445 0.379781 0.565017 -0.259938
C60   C     C_3   0.580857 0.385041 0.434630 -0.278863
C61   C     C_3   0.903279 0.836452 0.522581 0.463945
C62   C     C_3   0.093909 0.838857 0.468891 0.460576
C63   C     C_3   0.403259 0.336437 0.522519 0.463978
C64   C     C_3   0.593905 0.338859 0.468885 0.460649
C65   C     C_3   0.886028 0.861020 0.457767 0.147610
C66   C     C_3   0.107965 0.858905 0.534777 0.142966
C67   C     C_3   0.385985 0.361036 0.457716 0.147590
C68   C     C_3   0.607961 0.358905 0.534772 0.142927
C69   C     C_3   0.827100 0.868949 0.435603 0.125379
C70   C     C_3   0.169486 0.864147 0.565169 0.143689
C71   C     C_3   0.327079 0.368981 0.435618 0.125377
C72   C     C_3   0.669483 0.364144 0.565166 0.143593
C73   C     C_3   0.844033 0.844367 0.500087 -0.242645
C74   C     C_3   0.155802 0.844216 0.499628 -0.237912
C75   C     C_3   0.344036 0.344367 0.500091 -0.242669
C76   C     C_3   0.655799 0.344215 0.499624 -0.238015
H9    H     H_    0.963499 0.884652 0.617974 0.223304
H10   H     H_    0.044014 0.893988 0.381019 0.221687
H11   H     H_    0.463553 0.384589 0.617956 0.223321
H12   H     H_    0.544015 0.393993 0.381018 0.221685
C77   C     C_R   0.837908 0.756793 0.746936 -0.200810
C78   C     C_R   0.165589 0.754841 0.254663 -0.233958
C79   C     C_R   0.337917 0.256815 0.746939 -0.200737
C80   C     C_R   0.665601 0.254791 0.254669 -0.234066
H13   H     H_    0.793017 0.758548 0.720413 0.190939
H14   H     H_    0.210412 0.759255 0.282743 0.168607
H15   H     H_    0.293027 0.258586 0.720418 0.191016
H16   H     H_    0.710430 0.259171 0.282751 0.168545
C81   C     C_R   0.874998 0.757989 0.818555 -0.156992
C82   C     C_R   0.130468 0.752849 0.183059 -0.161124
C83   C     C_R   0.375009 0.258010 0.818558 -0.156996
C84   C     C_R   0.630479 0.252798 0.183064 -0.161088
H17   H     H_    0.857855 0.760333 0.845983 0.191619
H18   H     H_    0.148613 0.756763 0.156964 0.187913
H19   H     H_    0.357867 0.260369 0.845987 0.191633
H20   H     H_    0.648629 0.256679 0.156970 0.187901
C85   C     C_R   0.933299 0.755115 0.854506 -0.075201
C86   C     C_R   0.072354 0.747275 0.145248 -0.076032
C87   C     C_R   0.433307 0.255113 0.854508 -0.075204
C88   C     C_R   0.572358 0.247266 0.145251 -0.076021
C89   C     C_R   0.954624 0.751925 0.817489 0.232555
C90   C     C_R   0.049140 0.742626 0.179856 0.233487
C91   C     C_R   0.454630 0.251903 0.817489 0.232567
C92   C     C_R   0.549139 0.242658 0.179859 0.233475
C93   C     C_R   0.916842 0.750148 0.744833 0.218776
C94   C     C_R   0.084821 0.744565 0.252532 0.211378
C95   C     C_R   0.416847 0.250130 0.744833 0.218759
C96   C     C_R   0.584821 0.244600 0.252534 0.211427
C97   C     C_R   0.858299 0.752279 0.709809 -0.177827
C98   C     C_R   0.143370 0.750527 0.289838 -0.177783
C99   C     C_R   0.358303 0.252282 0.709810 -0.177870
C100  C     C_R   0.643375 0.250522 0.289840 -0.177759
N9    N     N_R   0.019806 0.731183 0.966947 -0.088771
N10   N     N_R   0.987330 0.772310 0.033357 -0.092766
N11   N     N_R   0.519798 0.231156 0.966947 -0.088765
N12   N     N_R   0.487353 0.272326 0.033362 -0.092754
N13   N     N_R   0.052405 0.729082 0.035513 -0.134480
N14   N     N_R   0.954850 0.774496 0.964862 -0.135636
N15   N     N_R   0.552395 0.229053 0.035513 -0.134483
N16   N     N_R   0.454874 0.274513 0.964867 -0.135620
C101  C     C_R   0.036430 0.749317 0.069773 0.354692
C102  C     C_R   0.970546 0.754065 0.930399 0.356253
C103  C     C_R   0.536436 0.249309 0.069775 0.354680
C104  C     C_R   0.470555 0.254061 0.930401 0.356258
C105  C     C_3   0.597530 0.640746 0.434469 -0.383850
C106  C     C_3   0.395071 0.634452 0.564374 -0.396987
C107  C     C_3   0.097478 0.140813 0.434500 -0.383795
C108  C     C_3   0.894959 0.134375 0.564326 -0.396931
C109  C     C_3   0.577599 0.641361 0.478659 0.246691
C110  C     C_3   0.425528 0.639454 0.532861 0.319567
C111  C     C_3   0.077649 0.141375 0.478799 0.246609
C112  C     C_3   0.925560 0.139435 0.533006 0.319445
H21   H     H_    0.574829 0.654593 0.381629 0.209679
H22   H     H_    0.412411 0.642543 0.618128 0.217639
H23   H     H_    0.074734 0.154717 0.381686 0.209665
H24   H     H_    0.912207 0.142389 0.618070 0.217659
C113  C     C_3   0.596215 0.592980 0.500485 -0.295993
C114  C     C_3   0.404676 0.593878 0.498954 -0.289378
C115  C     C_3   0.096217 0.092973 0.500479 -0.296009
C116  C     C_3   0.904696 0.093901 0.498946 -0.289416
C117  C     C_3   0.617120 0.592363 0.457488 0.253807
C118  C     C_3   0.373218 0.589033 0.528686 0.300944
C119  C     C_3   0.117019 0.092406 0.457369 0.253773
C120  C     C_3   0.873093 0.089002 0.528478 0.300978
C121  C     C_3   0.675111 0.607286 0.521431 0.452684
C122  C     C_3   0.321075 0.610072 0.462991 0.485127
C123  C     C_3   0.175062 0.107261 0.521285 0.452683
C124  C     C_3   0.821039 0.110120 0.462774 0.485150
C125  C     C_3   0.655376 0.607972 0.566093 -0.455364
C126  C     C_3   0.352096 0.614796 0.431665 -0.453828
C127  C     C_3   0.155431 0.107895 0.566059 -0.455208
C128  C     C_3   0.852212 0.114899 0.431656 -0.453371
C129  C     C_3   0.635424 0.656375 0.542760 0.460874
C130  C     C_3   0.373695 0.660720 0.467130 0.502330
C131  C     C_3   0.135526 0.156322 0.542876 0.460851
C132  C     C_3   0.873816 0.160778 0.467276 0.502425
C133  C     C_3   0.655847 0.655436 0.499680 -0.176880
C134  C     C_3   0.342738 0.655573 0.497734 -0.302319
C135  C     C_3   0.155850 0.155435 0.499685 -0.176885
C136  C     C_3   0.842715 0.155575 0.497686 -0.302660
H25   H     H_    0.678141 0.593965 0.618837 0.209208
H26   H     H_    0.335524 0.606118 0.378403 0.209234
H27   H     H_    0.178238 0.093831 0.618777 0.209283
H28   H     H_    0.835745 0.106294 0.378410 0.209317
O33   O     O_R   0.424770 0.546480 0.442520 -0.608282
O34   O     O_R   0.575230 0.546480 0.557480 -0.619605
O35   O     O_R   0.924770 0.046480 0.442520 -0.608320
O36   O     O_R   0.075230 0.046480 0.557480 -0.619627
O37   O     O_R   0.482280 0.546460 0.557530 -0.582288
O38   O     O_R   0.517720 0.546460 0.442470 -0.578285
O39   O     O_R   0.982280 0.046460 0.557530 -0.582273
O40   O     O_R   0.017720 0.046460 0.442470 -0.578321
C137  C     C_R   0.439006 0.560662 0.499751 1.030936
C138  C     C_R   0.561831 0.559843 0.500171 1.027147
C139  C     C_R   0.939019 0.060674 0.499750 1.031080
C140  C     C_R   0.061835 0.059837 0.500170 1.027076
O41   O     O_R   0.924770 0.953450 0.442500 -0.570639
O42   O     O_R   0.075230 0.953450 0.557500 -0.561906
O43   O     O_R   0.424770 0.453450 0.442500 -0.570681
O44   O     O_R   0.575230 0.453450 0.557500 -0.561916
O45   O     O_R   0.982280 0.953430 0.557510 -0.604138
O46   O     O_R   0.017720 0.953430 0.442490 -0.611813
O47   O     O_R   0.482280 0.453430 0.557510 -0.604099
O48   O     O_R   0.517720 0.453430 0.442490 -0.611823
C141  C     C_R   0.939513 0.938652 0.499745 1.011132
C142  C     C_R   0.060852 0.938927 0.500443 1.019455
C143  C     C_R   0.439517 0.438649 0.499746 1.011001
C144  C     C_R   0.560853 0.438927 0.500443 1.019552
Zn9   Zn    Zn3+2 0.961630 0.999960 0.423200 1.147871
Zn10  Zn    Zn3+2 0.038370 0.999960 0.576800 1.151515
Zn11  Zn    Zn3+2 0.461630 0.499960 0.423200 1.147825
Zn12  Zn    Zn3+2 0.538370 0.499960 0.576800 1.151526
O49   O     O_3   0.634858 0.830022 0.287394 -0.533873
C145  C     C_3   0.591659 0.845576 0.288784 -0.102609
H29   H     H_    0.608466 0.873505 0.325778 0.201726
H30   H     H_    0.577160 0.819714 0.306720 0.129187
H31   H     H_    0.555351 0.858383 0.237405 0.194595
O50   O     O_3   0.360223 0.829963 0.712377 -0.535421
C146  C     C_3   0.405214 0.846015 0.714962 -0.111451
H32   H     H_    0.390280 0.875424 0.680687 0.204320
H33   H     H_    0.419850 0.821088 0.696072 0.132993
H34   H     H_    0.441127 0.856726 0.768009 0.183629
O51   O     O_3   0.134832 0.330018 0.287390 -0.533822
C147  C     C_3   0.091631 0.345561 0.288784 -0.102681
H35   H     H_    0.108433 0.373489 0.325779 0.201702
H36   H     H_    0.077141 0.319692 0.306723 0.129159
H37   H     H_    0.055319 0.358365 0.237406 0.194592
O52   O     O_3   0.860230 0.329962 0.712380 -0.535432
C148  C     C_3   0.905222 0.346011 0.714964 -0.111438
H38   H     H_    0.890291 0.375420 0.680692 0.204318
H39   H     H_    0.919856 0.321082 0.696073 0.133028
H40   H     H_    0.941137 0.356720 0.768012 0.183626
N17   N     N_R   0.774459 0.861505 0.366421 0.255310
O53   O     O_R   0.738136 0.893429 0.332706 -0.244197
O54   O     O_R   0.762847 0.822333 0.338929 -0.309932
N18   N     N_R   0.217562 0.851230 0.635203 0.253971
O55   O     O_R   0.252698 0.880832 0.679693 -0.228248
O56   O     O_R   0.224646 0.809938 0.654045 -0.317844
N19   N     N_R   0.274411 0.361574 0.366447 0.255333
O57   O     O_R   0.238101 0.393514 0.332801 -0.244355
O58   O     O_R   0.262760 0.322417 0.338900 -0.309894
N20   N     N_R   0.717557 0.351226 0.635200 0.253972
O59   O     O_R   0.752696 0.380826 0.679691 -0.228284
O60   O     O_R   0.724639 0.309933 0.654040 -0.317838
N21   N     N_R   0.014104 0.754118 0.852789 0.228086
O61   O     O_R   0.039435 0.722622 0.845737 -0.273983
O62   O     O_R   0.043107 0.787832 0.892004 -0.326447
N22   N     N_R   0.989692 0.735942 0.141614 0.236969
O63   O     O_R   0.961007 0.761379 0.152067 -0.281938
O64   O     O_R   0.964204 0.703963 0.096888 -0.326403
N23   N     N_R   0.514111 0.254072 0.852791 0.228093
O65   O     O_R   0.539426 0.222554 0.845752 -0.273968
O66   O     O_R   0.543133 0.287781 0.892005 -0.326447
N24   N     N_R   0.489684 0.236014 0.141617 0.236973
O67   O     O_R   0.461023 0.261486 0.152065 -0.281956
O68   O     O_R   0.464166 0.204035 0.096894 -0.326368
N25   N     N_R   0.938045 0.750345 0.706727 0.238177
O69   O     O_R   0.959891 0.714576 0.702927 -0.284388
O70   O     O_R   0.930003 0.784775 0.669813 -0.371914
N26   N     N_R   0.061419 0.741296 0.288050 0.240826
O71   O     O_R   0.030088 0.707690 0.277401 -0.291459
O72   O     O_R   0.069699 0.772843 0.329207 -0.344065
N27   N     N_R   0.438049 0.250305 0.706727 0.238179
O73   O     O_R   0.459895 0.214528 0.702948 -0.284365
O74   O     O_R   0.430007 0.284722 0.669791 -0.371933
N28   N     N_R   0.561416 0.241373 0.288053 0.240833
O75   O     O_R   0.530047 0.207796 0.277401 -0.291402
O76   O     O_R   0.569739 0.272929 0.329221 -0.344174
N29   N     N_R   0.524619 0.661268 0.455628 0.245228
O77   O     O_R   0.515960 0.703343 0.441345 -0.293015
O78   O     O_R   0.484944 0.637131 0.446337 -0.382986
N30   N     N_R   0.483252 0.655184 0.571941 0.226159
O79   O     O_R   0.493783 0.692475 0.555665 -0.295555
O80   O     O_R   0.523687 0.634315 0.627655 -0.391442
N31   N     N_R   0.024722 0.161302 0.455923 0.245068
O81   O     O_R   0.016102 0.203392 0.441761 -0.293091
O82   O     O_R   0.985050 0.137168 0.446645 -0.383393
N32   N     N_R   0.983313 0.155134 0.572257 0.226252
O83   O     O_R   0.993939 0.192442 0.556134 -0.295666
O84   O     O_R   0.023679 0.134196 0.627935 -0.390993
N33   N     N_R   0.608709 0.557347 0.411357 0.225642
O85   O     O_R   0.626797 0.562781 0.375951 -0.318811
O86   O     O_R   0.587178 0.519516 0.409093 -0.377927
N34   N     N_R   0.371726 0.550010 0.562305 0.266850
O87   O     O_R   0.341839 0.550670 0.583563 -0.275985
O88   O     O_R   0.402334 0.515426 0.574691 -0.362339
N35   N     N_R   0.108503 0.057443 0.411111 0.225689
O89   O     O_R   0.126501 0.062928 0.375614 -0.318755
O90   O     O_R   0.086994 0.019598 0.408839 -0.377862
N36   N     N_R   0.871477 0.049934 0.561921 0.266837
O91   O     O_R   0.841460 0.050548 0.582998 -0.275956
O92   O     O_R   0.902149 0.015375 0.574405 -0.362621
O93   O     O_3   0.727967 0.593964 0.541267 -0.597364
C149  C     C_3   0.739281 0.550219 0.565680 -0.035045
H41   H     H_    0.707084 0.527258 0.524724 0.208066
H42   H     H_    0.742684 0.547427 0.613006 0.186197
H43   H     H_    0.780522 0.540231 0.579927 0.197707
O94   O     O_3   0.266553 0.593231 0.430976 -0.522853
C150  C     C_3   0.228302 0.612205 0.364766 -0.126264
H44   H     H_    0.236627 0.600278 0.329345 0.157771
H45   H     H_    0.229028 0.649011 0.366710 0.094629
H46   H     H_    0.185121 0.601580 0.342927 0.211651
O95   O     O_3   0.227856 0.093909 0.540957 -0.597278
C151  C     C_3   0.239158 0.050153 0.565322 -0.035086
H47   H     H_    0.206872 0.027218 0.524404 0.207842
H48   H     H_    0.242713 0.047359 0.612752 0.186323
H49   H     H_    0.280325 0.040128 0.579381 0.197710
O96   O     O_3   0.766481 0.093261 0.430491 -0.522660
C152  C     C_3   0.728278 0.112597 0.364560 -0.126806
H50   H     H_    0.736849 0.101336 0.329117 0.156340
H51   H     H_    0.728760 0.149359 0.367130 0.095690
H52   H     H_    0.685118 0.101647 0.342305 0.211901
N37   N     N_R   0.562864 0.830173 0.142152 0.226450
O97   O     O_R   0.599971 0.859029 0.154549 -0.240550
O98   O     O_R   0.510199 0.841908 0.104907 -0.334064
N38   N     N_R   0.427089 0.829861 0.858014 0.223935
O99   O     O_R   0.479584 0.835807 0.911388 -0.342383
O100  O     O_R   0.391620 0.862458 0.836492 -0.236933
N39   N     N_R   0.062836 0.330167 0.142149 0.226458
O101  O     O_R   0.099935 0.359029 0.154536 -0.240603
O102  O     O_R   0.010170 0.341898 0.104919 -0.334100
N40   N     N_R   0.927095 0.329858 0.858016 0.223934
O103  O     O_R   0.979590 0.335802 0.911391 -0.342394
O104  O     O_R   0.891628 0.362458 0.836495 -0.236956
O105  O     O_3   0.645010 0.693226 0.583830 -0.585400
C153  C     C_3   0.637566 0.680598 0.632515 -0.104016
H53   H     H_    0.674046 0.660552 0.674515 0.144009
H54   H     H_    0.597660 0.662051 0.608270 0.213149
H55   H     H_    0.635557 0.710899 0.656205 0.207508
O106  O     O_3   0.377180 0.700221 0.439341 -0.512299
C154  C     C_3   0.326974 0.706422 0.371553 -0.158839
H56   H     H_    0.289176 0.705145 0.369204 0.092879
H57   H     H_    0.323514 0.681706 0.335831 0.162414
H58   H     H_    0.327982 0.739730 0.353368 0.198281
O107  O     O_3   0.145221 0.193119 0.584085 -0.585546
C155  C     C_3   0.137711 0.180452 0.632699 -0.103967
H59   H     H_    0.174101 0.160296 0.674608 0.144088
H60   H     H_    0.097723 0.162006 0.608357 0.213062
H61   H     H_    0.135828 0.210731 0.656532 0.207455
O108  O     O_3   0.877391 0.200322 0.439650 -0.512279
C156  C     C_3   0.827273 0.206558 0.371800 -0.158597
H62   H     H_    0.789376 0.205129 0.369236 0.092540
H63   H     H_    0.823996 0.181950 0.336082 0.162630
H64   H     H_    0.828270 0.239933 0.353784 0.198211
N41   N     N_R   0.573837 0.665733 0.149378 0.237995
O109  O     O_R   0.521840 0.657933 0.096022 -0.304674
O110  O     O_R   0.609563 0.632973 0.177174 -0.302669
N42   N     N_R   0.418718 0.665146 0.850308 0.238358
O111  O     O_R   0.421532 0.659861 0.904662 -0.300257
O112  O     O_R   0.421632 0.630328 0.821694 -0.312205
N43   N     N_R   0.073851 0.165729 0.149381 0.238012
O113  O     O_R   0.021855 0.157922 0.096029 -0.304661
O114  O     O_R   0.109585 0.132974 0.177176 -0.302639
N44   N     N_R   0.918711 0.165144 0.850305 0.238360
O115  O     O_R   0.921522 0.159859 0.904658 -0.300268
O116  O     O_R   0.921623 0.130325 0.821691 -0.312281
N45   N     N_R   0.815610 0.953885 0.450443 0.257962
O117  O     O_R   0.791246 0.969368 0.474976 -0.278333
O118  O     O_R   0.809141 0.974285 0.399527 -0.319978
N46   N     N_R   0.193104 0.948264 0.569192 0.226558
O119  O     O_R   0.244145 0.948197 0.589041 -0.368326
O120  O     O_R   0.176994 0.980036 0.588782 -0.409922
N47   N     N_R   0.315680 0.453916 0.450596 0.257815
O121  O     O_R   0.291436 0.469428 0.475268 -0.278517
O122  O     O_R   0.309166 0.474329 0.399660 -0.320477
N48   N     N_R   0.693105 0.448261 0.569196 0.226664
O123  O     O_R   0.744145 0.448195 0.589040 -0.368285
O124  O     O_R   0.677002 0.480024 0.588808 -0.409865
O125  O     O_3   0.928131 0.794042 0.544975 -0.559348
C157  C     C_3   0.984504 0.796297 0.571208 0.023385
H65   H     H_    0.009787 0.817109 0.618455 0.186589
H66   H     H_    0.987569 0.808487 0.531286 0.153879
H67   H     H_    0.002654 0.762432 0.586060 0.209793
O126  O     O_3   0.065030 0.798827 0.437469 -0.553145
C158  C     C_3   0.007769 0.804266 0.406617 0.015600
H68   H     H_    0.987398 0.829154 0.364200 0.172083
H69   H     H_    0.002275 0.813295 0.445587 0.152542
H70   H     H_    0.985988 0.772255 0.383535 0.214538
O127  O     O_3   0.428086 0.294016 0.544843 -0.559383
C159  C     C_3   0.484456 0.296261 0.571061 0.023255
H71   H     H_    0.509763 0.317026 0.618358 0.186682
H72   H     H_    0.487519 0.308501 0.531160 0.153795
H73   H     H_    0.502577 0.262385 0.585825 0.209756
O128  O     O_3   0.565020 0.298830 0.437464 -0.553085
C160  C     C_3   0.507753 0.304285 0.406578 0.015483
H74   H     H_    0.487398 0.329149 0.364129 0.172101
H75   H     H_    0.502238 0.313356 0.445516 0.152408
H76   H     H_    0.485971 0.272270 0.383530 0.214521
N49   N     N_R   0.896934 0.845516 0.411264 0.215320
O129  O     O_R   0.880653 0.806172 0.384473 -0.315984
O130  O     O_R   0.920351 0.871370 0.393630 -0.408323
N50   N     N_R   0.090684 0.841399 0.573905 0.205771
O131  O     O_R   0.102423 0.800572 0.595411 -0.328192
O132  O     O_R   0.069426 0.867523 0.594115 -0.418721
N51   N     N_R   0.396841 0.345546 0.411159 0.215392
O133  O     O_R   0.380520 0.306215 0.384327 -0.315862
O134  O     O_R   0.420278 0.371393 0.393546 -0.408257
N52   N     N_R   0.590676 0.341397 0.573896 0.205793
O135  O     O_R   0.602415 0.300570 0.595399 -0.328160
O136  O     O_R   0.569407 0.367517 0.594094 -0.418745

loop_
_geom_bond_atom_site_label_1
_geom_bond_atom_site_label_2
_geom_bond_distance
_ccdc_geom_bond_type
C47   C51   1.544648 S    
C146  H33   1.113742 S    
C158  H69   1.109205 S    
N49   O129  1.300212 A    
C110  C114  1.530392 S    
O9    Zn1   2.002532 S    
O38   Zn11  2.022129 S    
C109  N29   1.457991 S    
C50   N46   1.454419 S    
O108  C156  1.408164 S    
C6    C38   1.461716 S    
C123  C135  1.532815 S    
O128  C160  1.405223 S    
N46   O120  1.299728 A    
C56   C68   1.539460 S    
C18   C38   1.406277 A    
C85   C102  1.468687 S    
C46   C58   1.559752 S    
C145  H30   1.114224 S    
C9    C133  1.437238 S    
O48   C144  1.272295 A    
C155  H59   1.111259 S    
Zn6   O22   2.023815 S    
C156  H64   1.109062 S    
C82   H18   1.083584 S    
N9    N13   1.329201 A    
C124  C128  1.552627 S    
N18   O55   1.299949 A    
C30   C34   1.395683 A    
C67   N51   1.457563 S    
N23   O66   1.301196 A    
N36   O91   1.300205 A    
O4    C4    1.276189 A    
C83   C87   1.402390 A    
N48   O124  1.299725 A    
O41   Zn9   2.027997 S    
C45   H5    1.110101 S    
C145  H31   1.109647 S    
C90   N22   1.436703 S    
C57   H9    1.110005 S    
C113  C138  1.442204 S    
C33   C37   1.397102 A    
C26   C41   1.458948 S    
C107  C135  1.541843 S    
C149  H41   1.109892 S    
C31   N43   1.440689 S    
N35   O89   1.300179 A    
C96   C100  1.413525 A    
C151  H47   1.109907 S    
Zn1   O25   2.009864 S    
C150  H45   1.112252 S    
N44   O116  1.301532 A    
O33   Zn11  2.028786 S    
Zn3   O19   2.028146 S    
N32   O83   1.300200 A    
C46   C50   1.543063 S    
Zn4   O28   2.008380 S    
O13   C5    1.287659 A    
Zn5   O29   2.002320 S    
O47   Zn12  2.022616 S    
O15   C7    1.287657 A    
C96   N28   1.434967 S    
C22   N38   1.439331 S    
C95   N27   1.433208 S    
C54   C142  1.440471 S    
O11   Zn3   2.002532 S    
N39   O101  1.300991 A    
C82   C86   1.399382 A    
C128  C132  1.552915 S    
N38   O99   1.301382 A    
O10   Zn2   2.004110 S    
O9    C5    1.291800 A    
O2    Zn2   2.023649 S    
C122  C134  1.536312 S    
C152  H52   1.109048 S    
C79   C99   1.396239 A    
O43   C143  1.269251 A    
C149  H42   1.111336 S    
N12   C103  1.355476 A    
N26   O71   1.301097 A    
O6    Zn6   2.026709 S    
C111  C131  1.528284 S    
N17   O54   1.300285 A    
O19   C11   1.277310 A    
N41   O109  1.301475 A    
C157  H66   1.109208 S    
C17   O49   1.385126 S    
N43   O113  1.301474 A    
C67   C71   1.526849 S    
C87   C104  1.468692 S    
N10   N14   1.328083 A    
C70   N18   1.459013 S    
N47   O122  1.300361 A    
N22   O63   1.301203 A    
C55   C143  1.441496 S    
C4    C76   1.432449 S    
C151  H48   1.111317 S    
C92   N24   1.436702 S    
N1    C42   1.356371 A    
C48   C76   1.544932 S    
C17   C21   1.406300 A    
C63   C67   1.530243 S    
N45   O117  1.300160 A    
C19   C23   1.406297 A    
C46   H6    1.110112 S    
C155  H61   1.109104 S    
O26   C14   1.288598 A    
C20   C24   1.408416 A    
C159  H71   1.111360 S    
C130  C134  1.536573 S    
O125  C157  1.402873 S    
O39   Zn10  2.019382 S    
C112  C132  1.529035 S    
C53   C65   1.541679 S    
C26   C30   1.413518 A    
N11   N15   1.329207 A    
O46   Zn9   2.019870 S    
C27   C44   1.463367 S    
C18   O50   1.384540 S    
C154  H58   1.109074 S    
C71   C75   1.526666 S    
O3    C3    1.277131 A    
C150  H44   1.111736 S    
C69   C73   1.526652 S    
C56   C144  1.440467 S    
C86   C101  1.462758 S    
C86   C90   1.412794 A    
C33   H1    1.083863 S    
O47   C143  1.271768 A    
C106  H22   1.110311 S    
C49   C53   1.533375 S    
C93   C97   1.411342 A    
O39   C139  1.268563 A    
N37   O97   1.300990 A    
O44   Zn12  2.028288 S    
C32   N44   1.441186 S    
C151  H49   1.109059 S    
C48   C52   1.543057 S    
C105  C117  1.544780 S    
N51   O134  1.299375 A    
N1    N2    1.329796 A    
O5    C1    1.276208 A    
C125  H25   1.109905 S    
O49   C145  1.411841 S    
C24   C28   1.415067 A    
C153  H53   1.111272 S    
N47   O121  1.300170 A    
C44   N8    1.355178 A    
C62   C66   1.529561 S    
C30   N42   1.441183 S    
O31   C15   1.289114 A    
C79   H15   1.083791 S    
O52   C148  1.411742 S    
C108  C120  1.541575 S    
C118  C122  1.529333 S    
O48   Zn11  2.019870 S    
C63   C75   1.532886 S    
C125  C129  1.548069 S    
C61   C73   1.532880 S    
C54   C58   1.555381 S    
O20   C12   1.276569 A    
C120  C124  1.529401 S    
O51   C147  1.411842 S    
O29   C13   1.289104 A    
C127  C131  1.548056 S    
O34   Zn12  2.028498 S    
C72   N20   1.459016 S    
N30   O80   1.300185 A    
O42   Zn10  2.028288 S    
C115  C119  1.539507 S    
N28   O76   1.300490 A    
C48   H8    1.110111 S    
C113  C125  1.560500 S    
C22   C26   1.415065 A    
C87   C91   1.414627 A    
C159  H73   1.109027 S    
C88   C92   1.412802 A    
C52   C56   1.533593 S    
O94   C150  1.408538 S    
O38   C138  1.270594 A    
C60   C64   1.547913 S    
C51   N47   1.457161 S    
N35   O90   1.300130 A    
N34   O88   1.299942 A    
C116  C128  1.549363 S    
C65   N49   1.457547 S    
C65   C69   1.526839 S    
N25   O69   1.300534 A    
C21   C25   1.414094 A    
C126  C130  1.552931 S    
C119  N35   1.458015 S    
N51   O133  1.300216 A    
N4    C43   1.355616 A    
O8    C4    1.277097 A    
C58   H10   1.110063 S    
N40   O104  1.301281 A    
C148  H39   1.113746 S    
O25   C13   1.287864 A    
O126  C158  1.405212 S    
N49   O130  1.299375 A    
O42   C142  1.268064 A    
C57   C61   1.548223 S    
O36   Zn10  2.028498 S    
N39   O102  1.300594 A    
C160  H76   1.109053 S    
C59   C63   1.548223 S    
N31   O82   1.299774 A    
O33   C137  1.269906 A    
C131  O107  1.410823 S    
C56   C60   1.555374 S    
N50   O131  1.300253 A    
Zn2   O26   2.008380 S    
N48   O123  1.300453 A    
O16   Zn8   2.008509 S    
O27   C15   1.287865 A    
O14   C6    1.289145 A    
Zn6   O30   2.003897 S    
C36   H4    1.084006 S    
C147  H35   1.109224 S    
N43   O114  1.301516 A    
N21   O62   1.301195 A    
C124  C136  1.536322 S    
C68   N52   1.455483 S    
O45   C141  1.271780 A    
C78   C98   1.398366 A    
O10   C6    1.290229 A    
O3    Zn3   2.024830 S    
C114  C118  1.530960 S    
C35   H3    1.083861 S    
C78   C82   1.386962 A    
C83   H19   1.083313 S    
C155  H60   1.112070 S    
C115  C140  1.442177 S    
C21   N37   1.435756 S    
C41   N5    1.354708 A    
C17   C37   1.407077 A    
C156  H63   1.111177 S    
C43   N7    1.354710 A    
N16   C104  1.356082 A    
O96   C152  1.408409 S    
O34   C138  1.270845 A    
N18   O56   1.300314 A    
C117  N33   1.458018 S    
C121  C125  1.548952 S    
N20   O59   1.299949 A    
N36   O92   1.299938 A    
N17   O53   1.300006 A    
N12   N16   1.328081 A    
Zn1   O17   2.028146 S    
C18   C22   1.408416 A    
N3    N4    1.329793 A    
C80   C100  1.398359 A    
O13   Zn5   2.009994 S    
C20   O52   1.384542 S    
O23   C11   1.277140 A    
N19   O57   1.300010 A    
C48   C60   1.559754 S    
C15   C99   1.460121 S    
O15   Zn7   2.009994 S    
C36   C40   1.397017 A    
C77   C97   1.396231 A    
N52   O135  1.300253 A    
O35   Zn9   2.028786 S    
C160  H74   1.111587 S    
C7    C39   1.463557 S    
C92   C96   1.407566 A    
C77   C81   1.386062 A    
C19   C39   1.407082 A    
C66   N50   1.455479 S    
C47   C59   1.559134 S    
C108  C136  1.542321 S    
C70   C74   1.524897 S    
O17   C9    1.277308 A    
O107  C155  1.407332 S    
C12   C136  1.433442 S    
C51   C55   1.533369 S    
N24   O67   1.301201 A    
C106  C110  1.541929 S    
N32   O84   1.300179 A    
N33   O86   1.300129 A    
O106  C154  1.408143 S    
C112  N32   1.456336 S    
C94   C98   1.413542 A    
C105  H21   1.110181 S    
N7    N8    1.328762 A    
C149  H43   1.109073 S    
N38   O100  1.301280 A    
C108  H24   1.110299 S    
C29   C33   1.397029 A    
C152  H51   1.111670 S    
N14   C102  1.356085 A    
O12   Zn4   2.004110 S    
C116  C120  1.530885 S    
C68   C72   1.525207 S    
O37   Zn12  2.019382 S    
N26   O72   1.300492 A    
C146  H34   1.110889 S    
Zn7   O31   2.002319 S    
N3    C44   1.356380 A    
C158  H70   1.109051 S    
C119  C123  1.528727 S    
Zn8   O32   2.003896 S    
C114  C137  1.436472 S    
C19   O51   1.385127 S    
C14   C98   1.462829 S    
C147  H37   1.109646 S    
O35   C139  1.269886 A    
C42   N6    1.355172 A    
C25   C42   1.463363 S    
N10   C101  1.355474 A    
C55   C67   1.541677 S    
C84   H20   1.083584 S    
O1    C1    1.277127 A    
N46   O119  1.300448 A    
C63   O127  1.411142 S    
C78   H14   1.083191 S    
C109  C113  1.536578 S    
C61   O125  1.411140 S    
C50   C70   1.527253 S    
C145  H29   1.109225 S    
O37   C137  1.268557 A    
C107  H23   1.110174 S    
C159  H72   1.109209 S    
N27   O73   1.300533 A    
C2    C74   1.432450 S    
O50   C146  1.411740 S    
C62   C74   1.533625 S    
C107  C111  1.542744 S    
O21   C9    1.277130 A    
O28   C16   1.288592 A    
N52   O136  1.299659 A    
O95   C151  1.401982 S    
C53   C141  1.441512 S    
C123  O95   1.411254 S    
O30   C14   1.290924 A    
C49   N45   1.457149 S    
C118  N34   1.457449 S    
C154  H57   1.111202 S    
C111  N31   1.457983 S    
C121  C133  1.532811 S    
C13   C97   1.460102 S    
C1    C73   1.434999 S    
C110  C130  1.529067 S    
C50   C54   1.533597 S    
C89   C93   1.406799 A    
O40   C140  1.270567 A    
C11   C135  1.437259 S    
C77   H13   1.083795 S    
C93   N25   1.433196 S    
C80   H16   1.083195 S    
N2    C41   1.355610 A    
O6    C2    1.277089 A    
C150  H46   1.109189 S    
N44   O115  1.301389 A    
C60   H12   1.110063 S    
C47   H7    1.110103 S    
C132  O108  1.411788 S    
C54   C66   1.539469 S    
C35   C39   1.397104 A    
C153  H54   1.112052 S    
C25   C29   1.414766 A    
N22   O64   1.301260 A    
O45   Zn10  2.022616 S    
C27   C31   1.414766 A    
C29   N41   1.440688 S    
C85   C89   1.414630 A    
C129  C133  1.529330 S    
C120  N36   1.457428 S    
Zn3   O27   2.009864 S    
C115  C127  1.560470 S    
Zn4   O20   2.026965 S    
N29   O77   1.300157 A    
C34   H2    1.084005 S    
Zn5   O21   2.024996 S    
C158  H68   1.111587 S    
N41   O110  1.301514 A    
C157  H65   1.111360 S    
C84   C88   1.399392 A    
C81   H17   1.083312 S    
C153  H55   1.109115 S    
C128  H28   1.109892 S    
C131  C135  1.529360 S    
N31   O81   1.300156 A    
N5    N6    1.328761 A    
N20   O60   1.300312 A    
O93   C149  1.401977 S    
O12   C8    1.290225 A    
C154  H56   1.111731 S    
C106  C118  1.541566 S    
C32   C36   1.395683 A    
N42   O111  1.301388 A    
C80   C84   1.386968 A    
C126  H26   1.109901 S    
O7    C3    1.276215 A    
N45   O118  1.300359 A    
C79   C83   1.386063 A    
C59   H11   1.110007 S    
N19   O58   1.300284 A    
O36   C140  1.270863 A    
C88   C103  1.462776 S    
C10   C134  1.433439 S    
C28   C43   1.458947 S    
C122  O94   1.411551 S    
C61   C65   1.530246 S    
C105  C133  1.541836 S    
Zn2   O18   2.026965 S    
O16   C8    1.289148 A    
C157  H67   1.109023 S    
C52   C72   1.527247 S    
C117  C121  1.528759 S    
O14   Zn6   2.008509 S    
C148  H38   1.109230 S    
N24   O68   1.301260 A    
C28   C32   1.413516 A    
C109  C129  1.528280 S    
C81   C85   1.402394 A    
O11   C7    1.291805 A    
N37   O98   1.300586 A    
O1    Zn1   2.024830 S    
C46   C74   1.544928 S    
N33   O85   1.300189 A    
C94   N26   1.434970 S    
C130  O106  1.411805 S    
O43   Zn11  2.027997 S    
O4    Zn4   2.023649 S    
N50   O132  1.299660 A    
C62   O126  1.410538 S    
O5    Zn5   2.027898 S    
C114  C126  1.549419 S    
C23   C27   1.414093 A    
O18   C10   1.276557 A    
O7    Zn7   2.027898 S    
C64   O128  1.410542 S    
O8    Zn8   2.026709 S    
C132  C136  1.536598 S    
C147  H36   1.114227 S    
C107  C119  1.544771 S    
C105  C109  1.542751 S    
N15   C103  1.355399 A    
O40   Zn9   2.022129 S    
N29   O78   1.299777 A    
N21   O61   1.300555 A    
O24   C12   1.277315 A    
C123  C127  1.548961 S    
C91   N23   1.435405 S    
C108  C112  1.541936 S    
C69   N17   1.458166 S    
C66   C70   1.525206 S    
C95   C99   1.411354 A    
C124  O96   1.411545 S    
C49   C69   1.528432 S    
O127  C159  1.402873 S    
C116  C139  1.436449 S    
N13   C101  1.355397 A    
C16   C100  1.462797 S    
C24   N40   1.439335 S    
N27   O74   1.300730 A    
C156  H62   1.111785 S    
C58   C62   1.547911 S    
O41   C141  1.269245 A    
C5    C37   1.463552 S    
N23   O65   1.300551 A    
C91   C95   1.406805 A    
N11   C104  1.357002 A    
C45   C57   1.559137 S    
C146  H32   1.109230 S    
O2    C2    1.276196 A    
N9    C102  1.357002 A    
C51   C71   1.528449 S    
N30   O79   1.300208 A    
C89   N21   1.435406 S    
C34   C38   1.397016 A    
O32   C16   1.290916 A    
N28   O75   1.301097 A    
C72   C76   1.524899 S    
C23   N39   1.435755 S    
C111  C115  1.536569 S    
C64   C76   1.533631 S    
C71   N19   1.458164 S    
C3    C75   1.435014 S    
C110  N30   1.456319 S    
O22   C10   1.277330 A    
C53   C57   1.555334 S    
O105  C153  1.407302 S    
O46   C142  1.272298 A    
C127  H27   1.109899 S    
C47   C75   1.544866 S    
N34   O87   1.300220 A    
O44   C144  1.268064 A    
C8    C40   1.461715 S    
C45   C73   1.544854 S    
N25   O70   1.300727 A    
C31   C35   1.397030 A    
C20   C40   1.406278 A    
C121  O93   1.411261 S    
C113  C117  1.539518 S    
Zn7   O23   2.024996 S    
C129  O105  1.410838 S    
Zn8   O24   2.023815 S    
N40   O103  1.301382 A    
C148  H40   1.110890 S    
C90   C94   1.407566 A    
C52   N48   1.454409 S    
C112  C116  1.530390 S    
C160  H75   1.109209 S    
C122  C126  1.552722 S    
C106  C134  1.542299 S    
C55   C59   1.555331 S    
C152  H50   1.111253 S    
N42   O112  1.301529 A    
C45   C49   1.544644 S    
C64   C68   1.529558 S    
