data_mof_unit_6738.cif
_audit_creation_date              2012-12-10T19:12:31-0500
_audit_creation_method            fapswitch 2.2
_symmetry_space_group_name_H-M    P1
_symmetry_Int_Tables_number       1
_space_group_crystal_system       triclinic
_cell_length_a                    15.725365
_cell_length_b                    10.62837
_cell_length_c                    9.708888
_cell_angle_alpha                 89.89571
_cell_angle_beta                  89.936124
_cell_angle_gamma                 90.184969
_cell_volume                      1622.68280957

loop_
_atom_site_label
_atom_site_type_symbol
_atom_type_description
_atom_site_fract_x
_atom_site_fract_y
_atom_site_fract_z
_atom_type_partial_charge
C1    C     C_R   0.499026 0.257562 0.499851 0.849324
C2    C     C_3   0.083271 0.500939 0.501119 0.142962
C3    C     C_3   0.973760 0.616657 0.533794 0.057513
C4    C     C_3   0.917117 0.503425 0.501195 0.093010
C5    C     C_3   0.029493 0.586197 0.407497 -0.213353
C6    C     C_3   0.971807 0.471117 0.374326 -0.214242
C7    C     C_1   0.173987 0.499629 0.500440 -0.074525
C8    C     C_1   0.826224 0.503345 0.500517 -0.058673
C9    C     C_3   0.580536 0.071808 0.564509 -0.411473
C10   C     C_3   0.580507 0.927678 0.562130 -0.437521
C11   C     C_3   0.419761 0.073540 0.582586 -0.406092
C12   C     C_R   0.337900 0.499141 0.500013 0.907020
C13   C     C_3   0.490069 0.071616 0.349067 -0.402538
C14   C     C_3   0.497449 0.121275 0.499135 0.154400
C15   C     C_3   0.496028 0.878681 0.499125 0.147769
C16   C     C_3   0.419750 0.928113 0.588059 -0.051416
C17   C     C_3   0.489290 0.928825 0.348943 -0.401483
C18   C     C_3   0.469730 0.376197 0.083531 -0.263920
C19   C     C_3   0.470921 0.373356 0.920756 -0.022543
C20   C     C_3   0.440566 0.596593 0.080025 -0.245949
C21   C     C_3   0.584358 0.524453 0.080911 -0.233218
C22   C     C_3   0.442249 0.596721 0.917725 -0.242708
C23   C     C_R   0.498963 0.742356 0.499664 0.828521
C24   C     C_3   0.584836 0.522520 0.918569 -0.268238
C25   C     C_R   0.662151 0.500528 0.499998 0.917246
C26   C     C_3   0.971843 0.419663 0.593705 0.017695
C27   C     C_3   0.027066 0.386916 0.468306 0.121523
C28   C     C_1   0.249172 0.499072 0.500109 -0.197745
C29   C     C_1   0.750983 0.502173 0.500077 -0.200629
C30   C     C_3   0.029137 0.533613 0.628243 -0.265784
H1    H     H_    0.588718 0.891607 0.669047 0.171364
H2    H     H_    0.421814 0.110434 0.689710 0.165401
H3    H     H_    0.431858 0.899513 0.696828 0.145027
H4    H     H_    0.430659 0.106727 0.300026 0.166704
H5    H     H_    0.544791 0.105379 0.285898 0.173641
H6    H     H_    0.544006 0.895003 0.286222 0.175852
H7    H     H_    0.430353 0.893992 0.298308 0.161700
H8    H     H_    0.360735 0.110446 0.534140 0.162136
H9    H     H_    0.405467 0.353650 0.125361 0.152102
H10   H     H_    0.512332 0.300818 0.122440 0.137315
H11   H     H_    0.516320 0.299144 0.887671 0.100935
H12   H     H_    0.374453 0.579870 0.116715 0.154892
H13   H     H_    0.376572 0.584909 0.877578 0.161558
H14   H     H_    0.608050 0.617099 0.118101 0.149893
H15   H     H_    0.629694 0.452639 0.119894 0.155426
H16   H     H_    0.630321 0.449830 0.882136 0.155771
H17   H     H_    0.608942 0.614148 0.878630 0.157492
H18   H     H_    0.459224 0.691225 0.118431 0.144794
H19   H     H_    0.946693 0.445755 0.271193 0.143947
H20   H     H_    0.463887 0.690586 0.880588 0.142674
H21   H     H_    0.055182 0.655429 0.332306 0.142104
H22   H     H_    0.054272 0.559508 0.731246 0.148784
H23   H     H_    0.586261 0.104959 0.672859 0.173607
H24   H     H_    0.636699 0.108118 0.506681 0.167046
H25   H     H_    0.635668 0.893861 0.500546 0.174326
N1    N     N_3   0.498170 0.499750 0.138610 -0.036928
N2    N     N_3   0.498850 0.496730 0.861320 -0.050809
O1    O     O_R   0.499980 0.314910 0.616040 -0.631501
O2    O     O_R   0.500040 0.314680 0.383960 -0.637540
O3    O     O_R   0.376750 0.500100 0.616020 -0.606415
O4    O     O_R   0.376810 0.499870 0.383940 -0.624908
O5    O     O_R   0.499960 0.685320 0.616040 -0.641116
O6    O     O_R   0.500020 0.685090 0.383960 -0.633024
O7    O     O_R   0.623190 0.500130 0.616060 -0.621368
O8    O     O_R   0.623250 0.499900 0.383980 -0.623625
Zn1   Zn    Zn3+2 0.499960 0.500150 0.654960 0.916815
Zn2   Zn    Zn3+2 0.500040 0.499850 0.345040 0.900351
C31   C     C_3   0.061453 0.256775 0.431443 -0.432547
C32   C     C_3   0.989841 0.166911 0.388641 -0.328912
C33   C     C_3   0.024413 0.036106 0.357421 -0.862072
H26   H     H_    0.072171 0.040778 0.273161 0.254470
H27   H     H_    0.054343 0.995634 0.450922 0.269496
H28   H     H_    0.971551 0.973382 0.324885 0.254577
H29   H     H_    0.942013 0.158997 0.472528 0.236353
H30   H     H_    0.957645 0.203900 0.295180 0.218541
H31   H     H_    0.107496 0.267062 0.345197 0.204140
H32   H     H_    0.095648 0.218176 0.522230 0.209200
C34   C     C_3   0.331929 0.872160 0.547087 -0.423572
C35   C     C_3   0.262059 0.905147 0.651904 -0.352728
C36   C     C_3   0.180681 0.830667 0.624458 -0.871635
H33   H     H_    0.161042 0.840406 0.515161 0.259724
H34   H     H_    0.190950 0.729738 0.648229 0.266101
H35   H     H_    0.128737 0.865963 0.691457 0.255269
H36   H     H_    0.284004 0.883484 0.758118 0.215085
H37   H     H_    0.247292 0.007144 0.646086 0.227828
H38   H     H_    0.312720 0.906705 0.443652 0.202901
H39   H     H_    0.336481 0.768156 0.541726 0.204001
C37   C     C_1   0.938962 0.330116 0.696159 0.137118
N3    N     N_1   0.913028 0.259486 0.776841 -0.215744
C38   C     C_1   0.387164 0.334481 0.866955 0.169519
N4    N     N_1   0.321388 0.303675 0.825318 -0.237663
C39   C     C_1   0.943030 0.742591 0.569685 0.138410
N5    N     N_1   0.918733 0.841849 0.598152 -0.217216

loop_
_geom_bond_atom_site_label_1
_geom_bond_atom_site_label_2
_ccdc_geom_bond_type
C34   H39   S    
C11   H8    S    
C2    C7    S    
N2    Zn1   S    
C4    C8    S    
C22   N2    S    
C19   N2    S    
C26   C27   S    
C12   C28   S    
C8    C29   T    
C13   H5    S    
C10   C15   S    
C1    O2    A    
C5    C6    S    
C11   C14   S    
C15   C16   S    
C18   C19   S    
C18   H10   S    
C27   C31   S    
O2    Zn2   S    
C10   H1    S    
O1    Zn1   S    
C23   O5    A    
C6    C27   S    
C31   C32   S    
O8    Zn2   S    
C33   H26   S    
C17   H6    S    
C9    C10   S    
C18   N1    S    
C22   H20   S    
C34   H38   S    
C15   C23   S    
O3    Zn1   S    
C13   C14   S    
C36   H35   S    
C21   H15   S    
C25   C29   S    
O6    Zn2   S    
O5    Zn1   S    
C25   O8    A    
C4    C6    S    
C9    C14   S    
C34   C35   S    
C24   N2    S    
C7    C28   T    
C3    C39   S    
C25   O7    A    
O7    Zn1   S    
C3    C30   S    
C18   H9    S    
C16   H3    S    
C21   H14   S    
C11   C16   S    
O4    Zn2   S    
C4    C26   S    
C22   H13   S    
C33   H28   S    
C32   H29   S    
C17   H7    S    
C10   H25   S    
C2    C27   S    
C36   H34   S    
C20   C22   S    
C11   H2    S    
C26   C30   S    
C2    C5    S    
C9    H23   S    
C3    C4    S    
C35   H37   S    
C31   H32   S    
C15   C17   S    
C30   H22   S    
C20   H18   S    
C24   H17   S    
C36   H33   S    
C3    C5    S    
C21   N1    S    
C20   H12   S    
C1    C14   S    
C31   H31   S    
N1    Zn2   S    
C13   C17   S    
C2    C30   S    
C24   H16   S    
C13   H4    S    
C19   C38   S    
C1    O1    A    
C12   O4    A    
C38   N4    T    
C35   H36   S    
C23   O6    A    
C39   N5    T    
C32   H30   S    
C16   C34   S    
C20   N1    S    
C6    H19   S    
C32   C33   S    
C35   C36   S    
C12   O3    A    
C37   N3    T    
C26   C37   S    
C21   C24   S    
C5    H21   S    
C33   H27   S    
C9    H24   S    
C19   H11   S    
