data_mof_unit_7805.cif
_audit_creation_date              2012-12-11T15:17:50-0500
_audit_creation_method            fapswitch 2.2
_symmetry_space_group_name_H-M    P1
_symmetry_Int_Tables_number       1
_space_group_crystal_system       triclinic
_cell_length_a                    15.755713
_cell_length_b                    15.746823
_cell_length_c                    34.522627
_cell_angle_alpha                 89.903059
_cell_angle_beta                  90.080168
_cell_angle_gamma                 120.010035
_cell_volume                      7416.87295884

loop_
_atom_site_label
_atom_site_type_symbol
_atom_type_description
_atom_site_fract_x
_atom_site_fract_y
_atom_site_fract_z
_atom_type_partial_charge
C1    C     C_R   0.578679 0.441209 0.555074 0.556614
C2    C     C_R   0.558652 0.137011 0.554924 0.556694
C3    C     C_R   0.863030 0.421618 0.554893 0.555267
C4    C     C_R   0.441275 0.578283 0.054934 0.544790
C5    C     C_R   0.136954 0.558531 0.054886 0.553845
C6    C     C_R   0.421765 0.863064 0.054850 0.553789
C7    C     C_R   0.007742 0.510656 0.709198 0.342708
C8    C     C_R   0.512114 0.484675 0.713740 0.340394
C9    C     C_R   0.504224 0.996403 0.709902 0.337363
C10   C     C_R   0.523907 0.025543 0.206383 0.342618
C11   C     C_R   0.497151 0.481587 0.208259 0.338350
C12   C     C_R   0.990537 0.501625 0.208960 0.337643
C13   C     C_R   0.031003 0.438045 0.850406 0.271468
C14   C     C_R   0.577472 0.578941 0.855573 0.266883
C15   C     C_R   0.410793 0.975911 0.851346 0.265998
C16   C     C_R   0.452298 0.058863 0.346425 0.270602
C17   C     C_R   0.596412 0.556379 0.348714 0.265430
C18   C     C_R   0.970907 0.408807 0.350548 0.264699
C19   C     C_R   0.052734 0.448876 0.890055 -0.109801
C20   C     C_R   0.556919 0.599321 0.892528 -0.122218
C21   C     C_R   0.395760 0.947591 0.890114 -0.127127
C22   C     C_R   0.457462 0.072103 0.386510 -0.125865
C23   C     C_R   0.610194 0.546486 0.387910 -0.125676
C24   C     C_R   0.944890 0.394884 0.389560 -0.125066
C25   C     C_R   0.061602 0.607464 0.890367 -0.012519
C26   C     C_R   0.396717 0.451727 0.891068 -0.008685
C27   C     C_R   0.547449 0.942455 0.891191 -0.010000
C28   C     C_R   0.607594 0.064430 0.389411 -0.009670
C29   C     C_R   0.452342 0.396247 0.391172 -0.015573
C30   C     C_R   0.938549 0.546020 0.390366 -0.010417
C31   C     C_R   0.039795 0.596560 0.850738 -0.195879
C32   C     C_R   0.417275 0.432396 0.853765 -0.189328
C33   C     C_R   0.559304 0.965595 0.851636 -0.185082
C34   C     C_R   0.601399 0.049392 0.349235 -0.191624
C35   C     C_R   0.441321 0.403636 0.351168 -0.211187
C36   C     C_R   0.959596 0.556847 0.350642 -0.183669
C37   C     C_R   0.028673 0.514705 0.830222 0.033773
C38   C     C_R   0.503815 0.499264 0.834638 0.017755
C39   C     C_R   0.488841 0.977052 0.830980 0.024221
C40   C     C_R   0.526470 0.049964 0.327301 0.030580
C41   C     C_R   0.515221 0.480294 0.329333 0.024287
C42   C     C_R   0.970693 0.486193 0.330049 0.024536
C43   C     C_R   0.076987 0.536453 0.909494 -0.006246
C44   C     C_R   0.465032 0.539906 0.909955 -0.027340
C45   C     C_R   0.459584 0.924234 0.909802 -0.009741
C46   C     C_R   0.538575 0.083675 0.407850 -0.004272
C47   C     C_R   0.542455 0.463749 0.409000 -0.004257
C48   C     C_R   0.922226 0.459002 0.409313 -0.008586
C49   C     C_R   0.577405 0.442797 0.445695 0.577998
C50   C     C_R   0.557475 0.135161 0.445507 0.577844
C51   C     C_R   0.865236 0.422717 0.445677 0.573128
C52   C     C_R   0.442033 0.577897 0.945326 0.558573
C53   C     C_R   0.134430 0.557314 0.945775 0.582650
C54   C     C_R   0.422726 0.865516 0.945774 0.573717
C55   C     C_R   0.920208 0.457587 0.590801 0.024966
C56   C     C_R   0.546507 0.460200 0.592391 0.025053
C57   C     C_R   0.537666 0.080423 0.591021 0.025042
C58   C     C_R   0.459813 0.922797 0.090049 0.024699
C59   C     C_R   0.462325 0.541131 0.090627 0.022298
C60   C     C_R   0.079432 0.536944 0.090711 0.025214
C61   C     C_R   0.957761 0.403438 0.608841 -0.126073
C62   C     C_R   0.604078 0.550117 0.611257 -0.125736
C63   C     C_R   0.446217 0.043607 0.609100 -0.126287
C64   C     C_R   0.408118 0.963643 0.107473 -0.128899
C65   C     C_R   0.554115 0.594035 0.108630 -0.128249
C66   C     C_R   0.042400 0.445288 0.108764 -0.127075
C67   C     C_R   0.992865 0.425173 0.646677 -0.113572
C68   C     C_R   0.589134 0.559900 0.650353 -0.114643
C69   C     C_R   0.433198 0.009729 0.647126 -0.114722
C70   C     C_R   0.433672 0.003895 0.144462 -0.114290
C71   C     C_R   0.567594 0.570052 0.146129 -0.114766
C72   C     C_R   0.006842 0.431575 0.146521 -0.115152
C73   C     C_R   0.990315 0.500993 0.667113 0.035925
C74   C     C_R   0.516470 0.479845 0.671226 0.035736
C75   C     C_R   0.511630 0.012661 0.667722 0.035821
C76   C     C_R   0.510734 0.003016 0.164704 0.036017
C77   C     C_R   0.489187 0.493323 0.166306 0.036245
C78   C     C_R   0.008298 0.509517 0.166879 0.035818
C79   C     C_R   0.960777 0.560476 0.647832 -0.114742
C80   C     C_R   0.453146 0.392881 0.651444 -0.115532
C81   C     C_R   0.600319 0.041265 0.648431 -0.113840
C82   C     C_R   0.567341 0.969448 0.145953 -0.115908
C83   C     C_R   0.399915 0.435397 0.147047 -0.116445
C84   C     C_R   0.037230 0.598395 0.147553 -0.114569
C85   C     C_R   0.926232 0.539096 0.609917 -0.123977
C86   C     C_R   0.467910 0.383208 0.612289 -0.124562
C87   C     C_R   0.613167 0.074688 0.610326 -0.124044
C88   C     C_R   0.542290 0.929963 0.108852 -0.123893
C89   C     C_R   0.386697 0.458899 0.109449 -0.129207
C90   C     C_R   0.072341 0.611935 0.109719 -0.125139
C91   C     C_R   0.019783 0.512502 0.787613 0.375294
C92   C     C_R   0.511177 0.491449 0.792282 0.355431
C93   C     C_R   0.495122 0.985741 0.788360 0.358834
C94   C     C_R   0.527268 0.042904 0.284624 0.373286
C95   C     C_R   0.508356 0.479595 0.286654 0.354577
C96   C     C_R   0.978681 0.492201 0.287399 0.359996
Cr1   Cr    Cr6+3 0.522350 0.263930 0.500020 1.072939
Cr2   Cr    Cr6+3 0.736070 0.258420 0.500020 1.072570
Cr3   Cr    Cr6+3 0.741580 0.477650 0.500020 1.075253
Cr4   Cr    Cr6+3 0.263930 0.522350 0.000020 1.065562
Cr5   Cr    Cr6+3 0.258420 0.736070 0.000020 1.074129
Cr6   Cr    Cr6+3 0.477650 0.741580 0.000020 1.075148
H1    H     H_    0.954886 0.340848 0.594565 0.137282
H2    H     H_    0.664667 0.610950 0.596503 0.137652
H3    H     H_    0.386460 0.046248 0.594694 0.137733
H4    H     H_    0.344891 0.959975 0.093392 0.134229
H5    H     H_    0.613901 0.657152 0.094590 0.135823
H6    H     H_    0.046029 0.385893 0.094571 0.135491
H7    H     H_    0.898523 0.582678 0.596526 0.137061
H8    H     H_    0.421960 0.313165 0.598378 0.136876
H9    H     H_    0.684259 0.101861 0.596919 0.137064
H10   H     H_    0.584092 0.899829 0.095891 0.137071
H11   H     H_    0.315308 0.416196 0.096083 0.132103
H12   H     H_    0.099578 0.683145 0.096310 0.136454
H13   H     H_    0.055740 0.390309 0.905272 0.172162
H14   H     H_    0.612420 0.665087 0.906787 0.158208
H15   H     H_    0.330106 0.938484 0.904035 0.152498
H16   H     H_    0.400250 0.079821 0.400532 0.150700
H17   H     H_    0.677917 0.601754 0.401100 0.154490
H18   H     H_    0.936888 0.329734 0.403658 0.154882
H19   H     H_    0.016401 0.378734 0.660586 0.143443
H20   H     H_    0.638070 0.628546 0.664615 0.144619
H21   H     H_    0.363426 0.986772 0.661014 0.144121
H22   H     H_    0.389163 0.030119 0.158014 0.142706
H23   H     H_    0.637703 0.615517 0.160052 0.143756
H24   H     H_    0.983732 0.361684 0.160436 0.143340
H25   H     H_    0.959418 0.620359 0.662634 0.142620
H26   H     H_    0.395393 0.330453 0.666588 0.141522
H27   H     H_    0.661615 0.042891 0.663351 0.143805
H28   H     H_    0.627960 0.969103 0.160630 0.140569
H29   H     H_    0.338632 0.374969 0.161655 0.139340
H30   H     H_    0.037782 0.659332 0.162279 0.143466
H31   H     H_    0.033588 0.653645 0.835642 0.135837
H32   H     H_    0.361785 0.368248 0.838599 0.130842
H33   H     H_    0.622951 0.972430 0.836736 0.144496
H34   H     H_    0.656562 0.038738 0.334918 0.136502
H35   H     H_    0.375399 0.348238 0.336931 0.116700
H36   H     H_    0.965233 0.619933 0.335583 0.146723
N1    N     N_R   0.042348 0.454331 0.766213 -0.160669
N2    N     N_R   0.575402 0.570736 0.771348 -0.142878
N3    N     N_R   0.414905 0.966050 0.767069 -0.145782
N4    N     N_R   0.473793 0.070176 0.262441 -0.162689
N5    N     N_R   0.589614 0.534318 0.264944 -0.143544
N6    N     N_R   0.959409 0.412042 0.266201 -0.145953
N7    N     N_R   0.035887 0.452924 0.727832 -0.227865
N8    N     N_R   0.576330 0.567276 0.732915 -0.224476
N9    N     N_R   0.419452 0.971826 0.728667 -0.226872
N10   N     N_R   0.471646 0.061215 0.224163 -0.227037
N11   N     N_R   0.584119 0.535811 0.226586 -0.225651
N12   N     N_R   0.965755 0.416744 0.227810 -0.227224
N13   N     N_R   0.986810 0.570283 0.730512 -0.223137
N14   N     N_R   0.447793 0.405146 0.734604 -0.229787
N15   N     N_R   0.584240 0.014642 0.731117 -0.220814
N16   N     N_R   0.579606 0.000575 0.228414 -0.224902
N17   N     N_R   0.416046 0.424718 0.229857 -0.230420
N18   N     N_R   0.008107 0.581499 0.230075 -0.220219
N19   N     N_R   0.993220 0.571590 0.768964 -0.235636
N20   N     N_R   0.446918 0.408669 0.773101 -0.250299
N21   N     N_R   0.579642 0.008886 0.769587 -0.227700
N22   N     N_R   0.581596 0.009476 0.266786 -0.233948
N23   N     N_R   0.421597 0.423354 0.268316 -0.250089
N24   N     N_R   0.001789 0.576748 0.268530 -0.226533
O1    O     O_R   0.498680 0.159540 0.541860 -0.518802
O2    O     O_R   0.840460 0.339140 0.541860 -0.519797
O3    O     O_R   0.660860 0.501320 0.541860 -0.519027
O4    O     O_R   0.159540 0.498680 0.041860 -0.523757
O5    O     O_R   0.339140 0.840460 0.041860 -0.521343
O6    O     O_R   0.501320 0.660860 0.041860 -0.518781
O7    O     O_R   0.532760 0.358060 0.540030 -0.496843
O8    O     O_R   0.641940 0.174700 0.540030 -0.497962
O9    O     O_R   0.825300 0.467240 0.540030 -0.498306
O10   O     O_R   0.358060 0.532760 0.040030 -0.512682
O11   O     O_R   0.174700 0.641940 0.040030 -0.498981
O12   O     O_R   0.467240 0.825300 0.040030 -0.498089
O13   O     O_R   0.498590 0.161190 0.456930 -0.530419
O14   O     O_R   0.838810 0.337400 0.456930 -0.528465
O15   O     O_R   0.662600 0.501410 0.456930 -0.528028
O16   O     O_R   0.161190 0.498590 0.956930 -0.482965
O17   O     O_R   0.337400 0.838810 0.956930 -0.528242
O18   O     O_R   0.501410 0.662600 0.956930 -0.524188
O19   O     O_R   0.532680 0.359580 0.461300 -0.451225
O20   O     O_R   0.640420 0.173100 0.461300 -0.450294
O21   O     O_R   0.826900 0.467320 0.461300 -0.450387
O22   O     O_R   0.359580 0.532680 0.961300 -0.449554
O23   O     O_R   0.173100 0.640420 0.961300 -0.452742
O24   O     O_R   0.467320 0.826900 0.961300 -0.447766
O25   O     O_3   0.666667 0.333333 0.499990 -0.274780
O26   O     O_3   0.333333 0.666667 0.999990 -0.269079
O27   O     O_3   0.006595 0.351050 0.831477 -0.544324
C97   C     C_3   0.084627 0.331337 0.833796 -0.077282
H37   H     H_    0.082042 0.294771 0.861642 0.146357
H38   H     H_    0.157699 0.398377 0.829726 0.141554
H39   H     H_    0.075661 0.279623 0.810256 0.155881
O28   O     O_3   0.666789 0.643272 0.838993 -0.541964
C98   C     C_3   0.731156 0.606940 0.845613 -0.093947
H40   H     H_    0.703875 0.533997 0.831757 0.127001
H41   H     H_    0.743383 0.602661 0.877168 0.116279
H42   H     H_    0.803117 0.658281 0.832392 0.162612
O29   O     O_3   0.343042 0.993145 0.832840 -0.543560
C99   C     C_3   0.373281 0.093397 0.836909 -0.099637
H43   H     H_    0.446308 0.140694 0.823361 0.131607
H44   H     H_    0.374568 0.113485 0.867900 0.103005
H45   H     H_    0.319809 0.108036 0.821718 0.157631
O30   O     O_3   0.372273 0.049962 0.326167 -0.534156
C100  C     C_3   0.376315 0.141607 0.325438 -0.089078
H46   H     H_    0.449434 0.201980 0.315962 0.130717
H47   H     H_    0.356876 0.158907 0.354083 0.089618
H48   H     H_    0.321510 0.137698 0.304238 0.165116
O31   O     O_3   0.667910 0.636786 0.328977 -0.545539
C101  C     C_3   0.646080 0.713135 0.331758 -0.093868
H49   H     H_    0.648564 0.736383 0.362376 0.116889
H50   H     H_    0.573487 0.691625 0.318603 0.130811
H51   H     H_    0.702338 0.777416 0.315419 0.160769
O32   O     O_3   0.987290 0.340650 0.331994 -0.545167
C102  C     C_3   0.087125 0.369576 0.336291 -0.095973
H52   H     H_    0.106605 0.369539 0.367302 0.116365
H53   H     H_    0.135273 0.442946 0.323086 0.131348
H54   H     H_    0.101127 0.316012 0.320893 0.157560
C103  C     C_2   0.067106 0.693728 0.909955 0.248745
H55   H     H_    0.088964 0.760570 0.893661 0.107011
O33   O     O_2   0.041375 0.689249 0.943593 -0.489589
C104  C     C_2   0.301569 0.379194 0.907802 0.219083
H56   H     H_    0.286738 0.305303 0.913675 0.088883
O34   O     O_2   0.236752 0.399040 0.912419 -0.505119
C105  C     C_2   0.628244 0.937623 0.911142 0.258981
H57   H     H_    0.674815 0.917814 0.894953 0.108941
O35   O     O_2   0.647715 0.961696 0.945026 -0.484416
C106  C     C_2   0.686496 0.058361 0.410405 0.251391
H58   H     H_    0.752971 0.073666 0.395212 0.104851
O36   O     O_2   0.676040 0.030748 0.444023 -0.484202
C107  C     C_2   0.367819 0.318129 0.412648 0.242549
H59   H     H_    0.312843 0.253774 0.397388 0.085806
O37   O     O_2   0.355010 0.327379 0.446892 -0.481959
C108  C     C_2   0.933720 0.626934 0.410130 0.259349
H60   H     H_    0.912189 0.672348 0.393962 0.108843
O38   O     O_2   0.959598 0.647783 0.443789 -0.480258

loop_
_geom_bond_atom_site_label_1
_geom_bond_atom_site_label_2
_ccdc_geom_bond_type
C25   C31   A    
C71   H23   S    
C5    O11   A    
C26   C32   A    
C97   H37   S    
Cr1   O13   S    
C7    N7    A    
Cr4   O10   S    
Cr6   O18   S    
C6    C58   S    
C36   C42   A    
C79   C85   A    
C31   H31   S    
Cr4   O16   S    
C53   O16   A    
C25   C43   A    
Cr3   O25   S    
C2    C57   S    
C26   C44   A    
Cr6   O24   S    
C7    C73   S    
C50   O20   A    
C100  H46   S    
C27   C33   A    
C95   N5    A    
C28   C46   A    
C16   C22   A    
C33   C39   A    
C108  O38   D    
C29   C47   A    
C18   C24   A    
N13   N19   A    
C30   C48   A    
C9    N15   A    
C61   H1    S    
C1    C56   S    
C105  H57   S    
Cr3   O15   S    
C17   O31   S    
C18   C42   A    
C23   H17   S    
C55   C85   A    
C87   H9    S    
C27   C45   A    
C77   C83   A    
C68   C74   A    
C38   C92   S    
Cr2   O8    S    
C13   O27   S    
C54   O17   A    
Cr4   O4    S    
C59   C89   A    
C93   N21   A    
C49   O15   A    
C53   O23   A    
C39   C93   S    
C92   N20   A    
C72   C78   A    
C11   C77   S    
C97   H39   S    
C19   H13   S    
C10   C76   S    
C43   C53   S    
C48   C51   S    
C66   C72   A    
C63   C69   A    
C19   C43   A    
C99   H43   S    
Cr1   O1    S    
C12   C78   S    
C26   C104  S    
N5    N11   A    
Cr6   O6    S    
C67   C73   A    
C64   C70   A    
C33   H33   S    
C63   H3    S    
Cr5   O26   S    
C13   C37   A    
C11   N17   A    
C98   H42   S    
C66   H6    S    
C84   H30   S    
C44   C52   S    
C90   H12   S    
O28   C98   S    
C14   O28   S    
C60   C66   A    
O29   C99   S    
C94   N22   A    
C74   C80   A    
Cr4   O26   S    
C28   C106  S    
C18   O32   S    
C84   C90   A    
C12   N18   A    
Cr5   O23   S    
C67   H19   S    
C106  O36   D    
C106  H58   S    
C20   C44   A    
C11   N11   A    
C46   C50   S    
C57   C63   A    
C85   H7    S    
C21   C45   A    
C100  H47   S    
C58   C64   A    
C83   C89   A    
C89   H11   S    
C24   H18   S    
C17   C41   A    
C23   C47   A    
Cr5   O11   S    
C37   C91   S    
C94   N4    A    
C14   C20   A    
C60   C90   A    
C29   C107  S    
C47   C49   S    
C102  H54   S    
C68   H20   S    
C103  H55   S    
C20   H14   S    
C13   C19   A    
O32   C102  S    
C27   C105  S    
C6    O12   A    
C65   C71   A    
N6    N12   A    
C9    N9    A    
C62   H2    S    
N17   N23   A    
C31   C37   A    
C72   H24   S    
C50   O13   A    
C3    C55   S    
C24   C48   A    
N15   N21   A    
C102  H52   S    
C52   O18   A    
N16   N22   A    
Cr2   O25   S    
Cr5   O17   S    
C21   H15   S    
C12   N12   A    
C96   N6    A    
Cr2   O14   S    
C61   C67   A    
C56   C86   A    
C34   H34   S    
C8    C74   S    
O31   C101  S    
C73   C79   A    
C107  O37   D    
C17   C23   A    
C5    O4    A    
C30   C108  S    
C104  O34   D    
N4    N10   A    
C15   C39   A    
C81   C87   A    
C35   C41   A    
C3    O2    A    
C2    O8    A    
N14   N20   A    
C91   N1    A    
C101  H50   S    
C22   C46   A    
C16   C40   A    
C45   C54   S    
C32   C38   A    
C70   H22   S    
C70   C76   A    
C81   H27   S    
C49   O19   A    
C25   C103  S    
C82   H28   S    
C108  H60   S    
C76   C82   A    
C14   C38   A    
C92   N2    A    
C71   C77   A    
C93   N3    A    
C64   H4    S    
C100  H48   S    
O27   C97   S    
C22   H16   S    
C79   H25   S    
C6    O5    A    
N1    N7    A    
C97   H38   S    
C4    O10   A    
C5    C60   S    
C86   H8    S    
C1    O3    A    
C4    O6    A    
Cr3   O21   S    
C8    N8    A    
N2    N8    A    
C52   O22   A    
C40   C94   S    
C8    N14   A    
C58   C88   A    
C2    O1    A    
Cr2   O2    S    
Cr1   O19   S    
C75   C81   A    
Cr2   O20   S    
Cr6   O12   S    
C101  H51   S    
Cr5   O5    S    
C29   C35   A    
C51   O21   A    
C62   C68   A    
C42   C96   S    
C95   N23   A    
C83   H29   S    
Cr1   O7    S    
C80   H26   S    
C30   C36   A    
C59   C65   A    
C32   H32   S    
C10   N16   A    
C3    O9    A    
C41   C95   S    
C99   H45   S    
C82   C88   A    
C55   C61   A    
C4    C59   S    
C1    O7    A    
C105  O35   D    
C96   N24   A    
C15   O29   S    
C69   C75   A    
C56   C62   A    
C103  O33   D    
C28   C34   A    
C51   O14   A    
Cr4   O22   S    
Cr6   O26   S    
C78   C84   A    
C91   N19   A    
C102  H53   S    
N3    N9    A    
N18   N24   A    
C98   H40   S    
C88   H10   S    
C57   C87   A    
C80   C86   A    
C15   C21   A    
C7    N13   A    
O30   C100  S    
C99   H44   S    
C101  H49   S    
C54   O24   A    
C107  H59   S    
C69   H21   S    
C34   C40   A    
C9    C75   S    
C98   H41   S    
Cr1   O25   S    
C16   O30   S    
C36   H36   S    
C104  H56   S    
C65   H5    S    
C35   H35   S    
Cr3   O9    S    
C10   N10   A    
Cr3   O3    S    
