data_mof_unit_26364.cif
_audit_creation_date              2012-12-10T17:59:43-0500
_audit_creation_method            fapswitch 2.2
_symmetry_space_group_name_H-M    P1
_symmetry_Int_Tables_number       1
_space_group_crystal_system       triclinic
_cell_length_a                    18.353406
_cell_length_b                    18.353346
_cell_length_c                    34.373178
_cell_angle_alpha                 90.027991
_cell_angle_beta                  89.972005
_cell_angle_gamma                 89.737061
_cell_volume                      11578.3569306

loop_
_atom_site_label
_atom_site_type_symbol
_atom_type_description
_atom_site_fract_x
_atom_site_fract_y
_atom_site_fract_z
_atom_type_partial_charge
C1    C     C_R   0.934110 0.492427 0.418731 -0.134932
C2    C     C_R   0.433961 0.995465 0.081253 -0.140004
C3    C     C_R   0.505795 0.066557 0.540804 0.008981
C4    C     C_R   0.933708 0.491889 0.459252 0.008170
C5    C     C_R   0.066494 0.505400 0.540716 0.005104
C6    C     C_R   0.505447 0.066591 0.459300 0.006277
C7    C     C_R   0.495326 0.933482 0.540760 0.007998
C8    C     C_R   0.433485 0.995289 0.959239 0.008000
C9    C     C_R   0.566588 0.005480 0.040700 0.006278
C10   C     C_R   0.991879 0.433740 0.959242 0.005660
C11   C     C_R   0.005350 0.566495 0.040780 0.008079
C12   C     C_R   0.566555 0.005828 0.959196 0.008985
C13   C     C_R   0.005924 0.565973 0.918773 -0.146319
C14   C     C_R   0.433498 0.995408 0.040734 0.006187
C15   C     C_R   0.005400 0.566493 0.959284 0.005100
C16   C     C_R   0.991896 0.433708 0.040748 0.008169
C17   C     C_R   0.196461 0.696462 0.250000 -0.060111
C18   C     C_R   0.803809 0.303810 0.750000 -0.067595
C19   C     C_R   0.304197 0.195843 0.250001 -0.060071
C20   C     C_R   0.695984 0.803004 0.749995 -0.050399
C21   C     C_R   0.803536 0.303535 0.250000 -0.060166
C22   C     C_R   0.196023 0.696022 0.750000 -0.057391
C23   C     C_R   0.695843 0.804197 0.249999 -0.060071
C24   C     C_R   0.992434 0.434110 0.081268 -0.134935
C25   C     C_R   0.303007 0.195986 0.750006 -0.050385
C26   C     C_R   0.196622 0.304824 0.750227 -0.054659
C27   C     C_R   0.803393 0.696564 0.249997 -0.060877
C28   C     C_R   0.303514 0.803513 0.750000 -0.061622
C29   C     C_R   0.696043 0.196042 0.250000 -0.053786
C30   C     C_R   0.804822 0.696619 0.749775 -0.054689
C31   C     C_R   0.196564 0.303393 0.250003 -0.060878
C32   C     C_R   0.696335 0.196336 0.750000 -0.064758
C33   C     C_R   0.303962 0.803962 0.250000 -0.053678
C34   C     C_R   0.000118 0.498502 0.479601 0.059985
C35   C     C_R   0.433939 0.995200 0.918727 -0.134657
C36   C     C_R   0.000128 0.498495 0.520372 0.059919
C37   C     C_R   0.500501 0.000038 0.479647 0.060542
C38   C     C_R   0.500559 0.000026 0.520417 0.060260
C39   C     C_R   0.500026 0.000557 0.979582 0.060258
C40   C     C_R   0.500038 0.000499 0.020353 0.060539
C41   C     C_R   0.998499 0.500127 0.979628 0.059923
C42   C     C_R   0.998506 0.500117 0.020399 0.059989
C43   C     C_3   0.180961 0.927449 0.248508 0.035008
C44   C     C_3   0.162929 0.003075 0.232574 -0.254540
C45   C     C_3   0.122567 0.049463 0.262543 -0.499760
C46   C     C_R   0.566138 0.005113 0.081226 -0.140052
C47   C     C_3   0.726975 0.151433 0.836848 0.041545
C48   C     C_3   0.779512 0.185407 0.866271 -0.261840
C49   C     C_3   0.745180 0.189965 0.906654 -0.501741
C50   C     C_3   0.108192 0.226816 0.181011 0.059702
C51   C     C_3   0.124313 0.156903 0.158156 -0.264483
C52   C     C_3   0.054963 0.113334 0.151022 -0.510388
C53   C     C_3   0.789990 0.666840 0.839307 0.035945
C54   C     C_3   0.832299 0.650960 0.876648 -0.250775
C55   C     C_3   0.799624 0.587299 0.899092 -0.488780
C56   C     C_3   0.819004 0.072548 0.248445 0.035012
C57   C     C_R   0.992397 0.434175 0.918720 -0.139777
C58   C     C_3   0.837069 0.996909 0.232490 -0.254530
C59   C     C_3   0.877340 0.950537 0.262456 -0.499705
C60   C     C_3   0.247089 0.872341 0.829357 0.050059
C61   C     C_3   0.184600 0.849315 0.856169 -0.261064
C62   C     C_3   0.205810 0.856885 0.898915 -0.507376
C63   C     C_3   0.891881 0.773011 0.180970 0.059673
C64   C     C_3   0.875776 0.842859 0.158100 -0.264554
C65   C     C_3   0.945130 0.886407 0.150928 -0.510532
C66   C     C_3   0.207032 0.345449 0.836607 0.036331
C67   C     C_3   0.274712 0.326112 0.860657 -0.258787
C68   C     C_R   0.005665 0.565990 0.081296 -0.134734
C69   C     C_3   0.302798 0.392312 0.882827 -0.499802
C70   C     C_3   0.224291 0.106454 0.818075 0.059499
C71   C     C_3   0.155186 0.122367 0.841700 -0.259555
C72   C     C_3   0.115478 0.052219 0.852267 -0.508095
C73   C     C_3   0.650994 0.787624 0.164342 0.034831
C74   C     C_3   0.671465 0.722058 0.138915 -0.255492
C75   C     C_3   0.605451 0.693274 0.116856 -0.499878
C76   C     C_3   0.070721 0.815281 0.753642 0.035314
C77   C     C_3   0.996162 0.833814 0.770995 -0.248263
C78   C     C_3   0.945140 0.866375 0.740498 -0.496401
C79   C     C_R   0.000015 0.499378 0.398406 0.012358
C80   C     C_3   0.873892 0.244545 0.171445 0.049940
C81   C     C_3   0.850311 0.181214 0.145329 -0.260982
C82   C     C_3   0.858528 0.200492 0.102356 -0.508592
C83   C     C_3   0.781763 0.883141 0.822430 0.049017
C84   C     C_3   0.764303 0.929600 0.858136 -0.248835
C85   C     C_3   0.825590 0.983059 0.866856 -0.506464
C86   C     C_3   0.349176 0.212196 0.164344 0.034838
C87   C     C_3   0.328786 0.277741 0.138928 -0.255435
C88   C     C_3   0.394865 0.306485 0.116890 -0.499847
C89   C     C_3   0.928553 0.190307 0.769193 0.051813
C90   C     C_R   0.000058 0.499428 0.601576 0.003331
C91   C     C_3   0.941037 0.112666 0.784045 -0.261399
C92   C     C_3   0.001619 0.074379 0.761373 -0.506337
C93   C     C_3   0.126193 0.755420 0.171479 0.049986
C94   C     C_3   0.149757 0.818759 0.145385 -0.261116
C95   C     C_3   0.141633 0.799451 0.102405 -0.508272
C96   C     C_3   0.690309 0.428557 0.730810 0.051802
C97   C     C_3   0.612669 0.441043 0.715960 -0.261409
C98   C     C_3   0.574386 0.501627 0.738633 -0.506341
C99   C     C_3   0.255418 0.626193 0.328521 0.049985
C100  C     C_3   0.318758 0.649756 0.354615 -0.261115
C101  C     C_R   0.500187 0.000049 0.398434 0.002490
C102  C     C_3   0.299449 0.641633 0.397595 -0.508270
C103  C     C_3   0.606457 0.724292 0.681924 0.059494
C104  C     C_3   0.622373 0.655185 0.658300 -0.259556
C105  C     C_3   0.552227 0.615476 0.647732 -0.508097
C106  C     C_3   0.287623 0.150990 0.335657 0.034827
C107  C     C_3   0.222051 0.171457 0.361081 -0.255497
C108  C     C_3   0.193268 0.105441 0.383139 -0.499882
C109  C     C_3   0.315283 0.570721 0.746361 0.035304
C110  C     C_3   0.333809 0.496158 0.729012 -0.248276
C111  C     C_3   0.366374 0.445140 0.759510 -0.496427
C112  C     C_R   0.065975 0.505923 0.581227 -0.146343
C113  C     C_R   0.500345 0.000006 0.601605 0.012570
C114  C     C_3   0.744548 0.373889 0.328556 0.049937
C115  C     C_3   0.681218 0.350305 0.354672 -0.260980
C116  C     C_3   0.700495 0.358523 0.397645 -0.508591
C117  C     C_3   0.383151 0.281778 0.677576 0.049005
C118  C     C_3   0.429606 0.264328 0.641868 -0.248840
C119  C     C_3   0.483064 0.325619 0.633151 -0.506460
C120  C     C_3   0.712191 0.849175 0.335657 0.034837
C121  C     C_3   0.777737 0.828786 0.361072 -0.255438
C122  C     C_3   0.806478 0.894866 0.383111 -0.499848
C123  C     C_3   0.726814 0.608191 0.318988 0.059699
C124  C     C_R   0.500006 0.000344 0.898395 0.012579
C125  C     C_3   0.656906 0.624309 0.341846 -0.264497
C126  C     C_3   0.613335 0.554959 0.348978 -0.510399
C127  C     C_3   0.166908 0.289954 0.660676 0.035925
C128  C     C_3   0.150970 0.332307 0.623355 -0.250755
C129  C     C_3   0.087423 0.299506 0.600862 -0.488757
C130  C     C_3   0.572550 0.319008 0.251558 0.035009
C131  C     C_3   0.496910 0.337066 0.267512 -0.254531
C132  C     C_3   0.450539 0.377342 0.237548 -0.499704
C133  C     C_3   0.372343 0.747085 0.670644 0.050060
C134  C     C_3   0.349321 0.684593 0.643833 -0.261066
C135  C     C_R   0.500049 0.000186 0.101566 0.002491
C136  C     C_3   0.356892 0.705801 0.601087 -0.507371
C137  C     C_3   0.273010 0.391879 0.319031 0.059673
C138  C     C_3   0.342857 0.375774 0.341901 -0.264556
C139  C     C_3   0.386405 0.445128 0.349073 -0.510533
C140  C     C_3   0.845453 0.707040 0.663396 0.036332
C141  C     C_3   0.826120 0.774731 0.639352 -0.258788
C142  C     C_3   0.892320 0.802822 0.617185 -0.499801
C143  C     C_3   0.427447 0.680960 0.251492 0.035009
C144  C     C_3   0.503072 0.662925 0.267426 -0.254538
C145  C     C_3   0.549460 0.622563 0.237456 -0.499759
C146  C     C_R   0.999430 0.500058 0.898424 0.003337
C147  C     C_3   0.651430 0.226981 0.663153 0.041547
C148  C     C_3   0.685405 0.279519 0.633732 -0.261840
C149  C     C_3   0.689959 0.245191 0.593347 -0.501740
C150  C     C_R   0.999379 0.500015 0.101594 0.012355
C151  C     C_R   0.132190 0.511942 0.479672 -0.135893
C152  C     C_R   0.868076 0.484981 0.520302 -0.136226
C153  C     C_R   0.490338 0.867662 0.479721 -0.135558
C154  C     C_R   0.510937 0.132391 0.520360 -0.136782
C155  C     C_R   0.868057 0.484980 0.479742 -0.135910
C156  C     C_R   0.505080 0.066140 0.418774 -0.140055
C157  C     C_R   0.132187 0.511939 0.520228 -0.137516
C158  C     C_R   0.510685 0.132410 0.479800 -0.135430
C159  C     C_R   0.490198 0.867659 0.520275 -0.135539
C160  C     C_R   0.367663 0.990125 0.979725 -0.135537
C161  C     C_R   0.632406 0.010754 0.020200 -0.135426
C162  C     C_R   0.984994 0.368077 0.979698 -0.136227
C163  C     C_R   0.011936 0.632189 0.020328 -0.135895
C164  C     C_R   0.632386 0.011005 0.979640 -0.136775
C165  C     C_R   0.367667 0.990265 0.020279 -0.135555
C166  C     C_R   0.011935 0.632185 0.979771 -0.137522
C167  C     C_R   0.495236 0.933937 0.581273 -0.134663
C168  C     C_R   0.984993 0.368058 0.020258 -0.135913
C169  C     C_R   0.500029 0.000018 0.355959 0.491080
C170  C     C_R   0.500082 0.999996 0.644054 0.507470
C171  C     C_R   0.999992 0.499898 0.355950 0.509038
C172  C     C_R   0.000018 0.499907 0.644043 0.492784
C173  C     C_R   0.999907 0.500018 0.855957 0.492792
C174  C     C_R   0.999898 0.499991 0.144050 0.509039
C175  C     C_R   0.499996 0.000082 0.855946 0.507471
C176  C     C_R   0.500018 0.000029 0.144041 0.491078
C177  C     C_R   0.360123 0.139897 0.250002 0.514387
C178  C     C_R   0.065991 0.505668 0.418704 -0.134732
C179  C     C_R   0.640026 0.859729 0.749996 0.554062
C180  C     C_R   0.859811 0.359811 0.250000 0.535170
C181  C     C_R   0.140025 0.640025 0.750000 0.523016
C182  C     C_R   0.639897 0.860122 0.249998 0.514387
C183  C     C_R   0.359730 0.140027 0.750005 0.554060
C184  C     C_R   0.140181 0.640181 0.250000 0.535059
C185  C     C_R   0.859914 0.359914 0.750000 0.518609
C186  C     C_R   0.359804 0.859803 0.750000 0.534536
C187  C     C_R   0.640033 0.140033 0.250000 0.527047
C188  C     C_R   0.860177 0.640016 0.749992 0.516584
C189  C     C_R   0.934175 0.492391 0.581279 -0.139761
C190  C     C_R   0.140174 0.359804 0.250000 0.550794
C191  C     C_R   0.640133 0.140133 0.750000 0.523776
C192  C     C_R   0.359976 0.859976 0.250000 0.526869
C193  C     C_R   0.140016 0.360176 0.750008 0.516635
C194  C     C_R   0.859804 0.640174 0.250000 0.550794
C195  C     C_R   0.234901 0.819077 0.234062 0.196506
C196  C     C_R   0.756518 0.190647 0.775503 0.212152
C197  C     C_R   0.208932 0.261178 0.216141 0.203515
C198  C     C_R   0.789703 0.735391 0.784170 0.184885
C199  C     C_R   0.765111 0.180915 0.234032 0.196491
C200  C     C_R   0.495501 0.933959 0.418747 -0.140009
C201  C     C_R   0.237125 0.815323 0.770119 0.203771
C202  C     C_R   0.791107 0.738732 0.216134 0.203530
C203  C     C_R   0.211813 0.266356 0.784716 0.212103
C204  C     C_R   0.259957 0.207574 0.783624 0.202650
C205  C     C_R   0.732271 0.786824 0.215184 0.209812
C206  C     C_R   0.181362 0.764646 0.766724 0.197618
C207  C     C_R   0.815836 0.236655 0.230464 0.201006
C208  C     C_R   0.739021 0.792198 0.783519 0.190371
C209  C     C_R   0.267805 0.213127 0.215187 0.209851
C210  C     C_R   0.813472 0.239797 0.772220 0.208109
C211  C     C_R   0.505729 0.066080 0.581317 -0.136340
C212  C     C_R   0.184178 0.763332 0.230491 0.201004
C213  C     C_R   0.739796 0.313474 0.727782 0.208110
C214  C     C_R   0.263332 0.684178 0.269509 0.201004
C215  C     C_R   0.707574 0.759956 0.716376 0.202646
C216  C     C_R   0.286822 0.232270 0.284816 0.209812
C217  C     C_R   0.264647 0.681361 0.733277 0.197619
C218  C     C_R   0.736656 0.315836 0.269536 0.201005
C219  C     C_R   0.292205 0.239029 0.716484 0.190322
C220  C     C_R   0.713127 0.767804 0.284813 0.209851
C221  C     C_R   0.761178 0.708932 0.283859 0.203518
C222  C     C_R   0.566078 0.005761 0.918683 -0.136337
C223  C     C_R   0.235399 0.289711 0.715832 0.184875
C224  C     C_R   0.680916 0.265111 0.265969 0.196491
C225  C     C_R   0.315324 0.737124 0.729882 0.203770
C226  C     C_R   0.238730 0.291106 0.283866 0.203531
C227  C     C_R   0.766357 0.711814 0.715285 0.212112
C228  C     C_R   0.319076 0.734901 0.265939 0.196506
C229  C     C_R   0.690645 0.256520 0.724498 0.212152
C230  C     C_R   0.066496 0.505352 0.459219 0.008079
C231  C     C_R   0.933740 0.491871 0.540758 0.005660
C232  C     C_R   0.495445 0.933496 0.459266 0.006186
H1    H     H_    0.183473 0.517238 0.464303 0.102642
H2    H     H_    0.683818 0.014688 0.035534 0.106476
H3    H     H_    0.916311 0.212646 0.095380 0.135036
H4    H     H_    0.785948 0.919738 0.796643 0.136420
H5    H     H_    0.835263 0.855775 0.827159 0.166082
H6    H     H_    0.712961 0.960413 0.852966 0.190643
H7    H     H_    0.756305 0.893653 0.883793 0.168791
H8    H     H_    0.834969 0.019266 0.841509 0.177665
H9    H     H_    0.876789 0.953138 0.873601 0.141341
H10   H     H_    0.810536 0.017025 0.892385 0.138253
H11   H     H_    0.376322 0.170544 0.145793 0.158026
H12   H     H_    0.389981 0.228442 0.186718 0.096637
H13   H     H_    0.979760 0.316795 0.964332 0.107212
H14   H     H_    0.286218 0.261471 0.117674 0.190720
H15   H     H_    0.306544 0.322118 0.157515 0.180996
H16   H     H_    0.438021 0.323524 0.137578 0.138278
H17   H     H_    0.378524 0.354362 0.099136 0.151834
H18   H     H_    0.417011 0.263802 0.097181 0.150465
H19   H     H_    0.980738 0.220522 0.771373 0.172380
H20   H     H_    0.914059 0.188649 0.737598 0.089571
H21   H     H_    0.955942 0.114306 0.815377 0.168154
H22   H     H_    0.890135 0.080780 0.780860 0.196224
H23   H     H_    0.986808 0.070207 0.730126 0.142599
H24   H     H_    0.017229 0.683471 0.035697 0.102645
H25   H     H_    0.009669 0.018579 0.773084 0.147424
H26   H     H_    0.053580 0.104719 0.764180 0.144673
H27   H     H_    0.071472 0.736987 0.161954 0.151094
H28   H     H_    0.163641 0.707891 0.167261 0.112865
H29   H     H_    0.116144 0.867765 0.151960 0.185568
H30   H     H_    0.207793 0.831821 0.151038 0.197919
H31   H     H_    0.175931 0.751308 0.095126 0.148650
H32   H     H_    0.159426 0.846171 0.084280 0.149870
H33   H     H_    0.083881 0.787202 0.095428 0.134969
H34   H     H_    0.720525 0.480740 0.728629 0.172380
H35   H     H_    0.683776 0.015123 0.964261 0.099711
H36   H     H_    0.688654 0.414062 0.762405 0.089572
H37   H     H_    0.614306 0.455948 0.684628 0.168159
H38   H     H_    0.580782 0.390143 0.719147 0.196221
H39   H     H_    0.570216 0.486818 0.769880 0.142600
H40   H     H_    0.518585 0.509679 0.726923 0.147425
H41   H     H_    0.604726 0.553587 0.735825 0.144673
H42   H     H_    0.236986 0.571472 0.338046 0.151094
H43   H     H_    0.207891 0.663642 0.332740 0.112865
H44   H     H_    0.367763 0.616142 0.348040 0.185567
H45   H     H_    0.331821 0.707792 0.348962 0.197921
H46   H     H_    0.316264 0.986270 0.035643 0.106713
H47   H     H_    0.251307 0.675932 0.404875 0.148650
H48   H     H_    0.346169 0.659425 0.415720 0.149873
H49   H     H_    0.287199 0.583881 0.404572 0.134967
H50   H     H_    0.561577 0.754741 0.667472 0.165775
H51   H     H_    0.585921 0.709297 0.711454 0.125788
H52   H     H_    0.651752 0.669633 0.631107 0.193293
H53   H     H_    0.657193 0.617772 0.675653 0.193959
H54   H     H_    0.519079 0.649260 0.627567 0.144438
H55   H     H_    0.519793 0.603825 0.674265 0.160201
H56   H     H_    0.565652 0.563160 0.633100 0.145281
H57   H     H_    0.017195 0.683466 0.964431 0.105382
H58   H     H_    0.329232 0.123851 0.354201 0.157991
H59   H     H_    0.271387 0.110159 0.313281 0.096669
H60   H     H_    0.238302 0.214077 0.382324 0.190558
H61   H     H_    0.177700 0.193658 0.342498 0.181010
H62   H     H_    0.176253 0.062230 0.362465 0.138337
H63   H     H_    0.145368 0.121836 0.400895 0.151688
H64   H     H_    0.235919 0.083344 0.402849 0.150506
H65   H     H_    0.278162 0.562845 0.771689 0.114185
H66   H     H_    0.366731 0.596658 0.756469 0.146856
H67   H     H_    0.283627 0.471089 0.716997 0.221564
H68   H     H_    0.979734 0.316767 0.035597 0.102754
H69   H     H_    0.373448 0.503050 0.704836 0.152513
H70   H     H_    0.416971 0.468676 0.771835 0.143917
H71   H     H_    0.379699 0.391851 0.745949 0.135751
H72   H     H_    0.326783 0.435896 0.783370 0.137367
H73   H     H_    0.762942 0.428631 0.338087 0.151059
H74   H     H_    0.792099 0.336476 0.332742 0.112790
H75   H     H_    0.632183 0.383859 0.348117 0.185645
H76   H     H_    0.668216 0.292247 0.349018 0.197762
H77   H     H_    0.748692 0.324316 0.404903 0.148297
H78   H     H_    0.653798 0.340680 0.415787 0.149713
H79   H     H_    0.215874 0.933686 0.274839 0.109918
H80   H     H_    0.712644 0.416307 0.404621 0.135035
H81   H     H_    0.419750 0.285956 0.703362 0.136439
H82   H     H_    0.355783 0.335279 0.672852 0.166077
H83   H     H_    0.460419 0.212985 0.647033 0.190627
H84   H     H_    0.393657 0.256337 0.616211 0.168775
H85   H     H_    0.519273 0.334990 0.658497 0.177669
H86   H     H_    0.453141 0.376819 0.626412 0.141339
H87   H     H_    0.517026 0.310573 0.607620 0.138253
H88   H     H_    0.670538 0.876318 0.354208 0.158022
H89   H     H_    0.728436 0.889981 0.313283 0.096638
H90   H     H_    0.129100 0.900075 0.256748 0.154180
H91   H     H_    0.761468 0.786217 0.382327 0.190718
H92   H     H_    0.822114 0.806546 0.342486 0.180994
H93   H     H_    0.823516 0.938023 0.362424 0.138279
H94   H     H_    0.854355 0.878526 0.400866 0.151834
H95   H     H_    0.763795 0.917011 0.402820 0.150465
H96   H     H_    0.757111 0.564225 0.334297 0.162755
H97   H     H_    0.713071 0.586212 0.289607 0.128042
H98   H     H_    0.670834 0.649587 0.370261 0.186866
H99   H     H_    0.622230 0.662763 0.325196 0.197479
H100  H     H_    0.600064 0.527917 0.320946 0.159607
H101  H     H_    0.214206 0.031000 0.224255 0.206204
H102  H     H_    0.561636 0.568750 0.364135 0.145491
H103  H     H_    0.644999 0.516807 0.367522 0.146368
H104  H     H_    0.115695 0.285939 0.677985 0.112335
H105  H     H_    0.185998 0.234145 0.652737 0.150774
H106  H     H_    0.137515 0.389636 0.630833 0.199497
H107  H     H_    0.200332 0.332253 0.604599 0.162172
H108  H     H_    0.099718 0.242120 0.592843 0.144298
H109  H     H_    0.078032 0.331320 0.573832 0.160537
H110  H     H_    0.036955 0.301424 0.618699 0.145064
H111  H     H_    0.566336 0.284046 0.225229 0.109921
H112  H     H_    0.816794 0.479744 0.535667 0.107209
H113  H     H_    0.128438 0.997476 0.206174 0.164356
H114  H     H_    0.599927 0.370856 0.243308 0.154104
H115  H     H_    0.468988 0.285806 0.275851 0.206247
H116  H     H_    0.502483 0.371628 0.293903 0.164325
H117  H     H_    0.475986 0.430241 0.229930 0.144271
H118  H     H_    0.395546 0.388004 0.249753 0.142406
H119  H     H_    0.444515 0.343943 0.210838 0.136815
H120  H     H_    0.426790 0.766509 0.661216 0.152417
H121  H     H_    0.334335 0.794349 0.667080 0.112004
H122  H     H_    0.383590 0.635749 0.649693 0.184865
H123  H     H_    0.291501 0.670589 0.649489 0.197974
H124  H     H_    0.069641 0.024025 0.270130 0.144286
H125  H     H_    0.322033 0.753873 0.594502 0.149099
H126  H     H_    0.339452 0.659673 0.582423 0.149393
H127  H     H_    0.414459 0.718950 0.594122 0.135139
H128  H     H_    0.242675 0.435861 0.334346 0.162615
H129  H     H_    0.286832 0.413833 0.289659 0.128149
H130  H     H_    0.328854 0.350504 0.370302 0.186686
H131  H     H_    0.377585 0.337321 0.325243 0.197551
H132  H     H_    0.354693 0.483281 0.367630 0.146234
H133  H     H_    0.399743 0.472165 0.321055 0.159604
H134  H     H_    0.438070 0.431343 0.364233 0.145491
H135  H     H_    0.111951 0.104453 0.250357 0.142386
H136  H     H_    0.869025 0.665200 0.643624 0.158907
H137  H     H_    0.888824 0.720087 0.684918 0.097659
H138  H     H_    0.782313 0.761060 0.618292 0.189465
H139  H     H_    0.805987 0.818664 0.658890 0.179186
H140  H     H_    0.936441 0.817681 0.637794 0.139276
H141  H     H_    0.876776 0.851997 0.600256 0.151501
H142  H     H_    0.912800 0.760592 0.596704 0.150782
H143  H     H_    0.433685 0.715872 0.225161 0.109918
H144  H     H_    0.400072 0.629098 0.243252 0.154179
H145  H     H_    0.530999 0.714200 0.275746 0.206203
H146  H     H_    0.155883 0.055491 0.289268 0.136824
H147  H     H_    0.497472 0.628433 0.293825 0.164355
H148  H     H_    0.524023 0.569636 0.229870 0.144284
H149  H     H_    0.604451 0.611951 0.249640 0.142386
H150  H     H_    0.555484 0.655878 0.210731 0.136822
H151  H     H_    0.599746 0.205768 0.650848 0.160102
H152  H     H_    0.687695 0.178562 0.667346 0.106542
H153  H     H_    0.652180 0.330188 0.632065 0.184416
H154  H     H_    0.741238 0.294140 0.643322 0.190039
H155  H     H_    0.723615 0.194761 0.594263 0.149274
H156  H     H_    0.715476 0.284178 0.572810 0.150021
H157  H     H_    0.705760 0.099749 0.849153 0.160099
H158  H     H_    0.634600 0.231706 0.582518 0.139633
H159  H     H_    0.883097 0.487274 0.403071 0.122510
H160  H     H_    0.116920 0.511699 0.596858 0.129562
H161  H     H_    0.508829 0.117269 0.403119 0.137858
H162  H     H_    0.490987 0.882823 0.596921 0.123215
H163  H     H_    0.116976 0.511138 0.403026 0.122691
H164  H     H_    0.883183 0.487223 0.596965 0.138852
H165  H     H_    0.491641 0.882829 0.403076 0.137996
H166  H     H_    0.510001 0.117176 0.596987 0.114249
H167  H     H_    0.617172 0.010061 0.903013 0.114236
H168  H     H_    0.678558 0.187700 0.832654 0.106541
H169  H     H_    0.382833 0.991577 0.096924 0.137992
H170  H     H_    0.011698 0.616918 0.903141 0.129549
H171  H     H_    0.987285 0.383098 0.096928 0.122512
H172  H     H_    0.382827 0.990923 0.903079 0.123204
H173  H     H_    0.617265 0.008891 0.096881 0.137854
H174  H     H_    0.987232 0.383185 0.903035 0.138853
H175  H     H_    0.011131 0.616975 0.096974 0.122694
H176  H     H_    0.830179 0.152179 0.867940 0.184411
H177  H     H_    0.794137 0.241239 0.856680 0.190042
H178  H     H_    0.694753 0.223624 0.905736 0.149275
H179  H     H_    0.784166 0.215481 0.927191 0.150022
H180  H     H_    0.486371 0.816257 0.464357 0.106716
H181  H     H_    0.731691 0.134607 0.917483 0.139621
H182  H     H_    0.064229 0.257113 0.165698 0.162746
H183  H     H_    0.086208 0.213079 0.210392 0.128048
H184  H     H_    0.149598 0.170825 0.129741 0.186870
H185  H     H_    0.162764 0.122228 0.174810 0.197466
H186  H     H_    0.016816 0.144996 0.132473 0.146363
H187  H     H_    0.027914 0.100070 0.179055 0.159606
H188  H     H_    0.068757 0.061628 0.135869 0.145490
H189  H     H_    0.786082 0.615630 0.821993 0.112426
H190  H     H_    0.734141 0.685838 0.847221 0.150629
H191  H     H_    0.515028 0.183783 0.535739 0.099716
H192  H     H_    0.889674 0.637673 0.869203 0.199503
H193  H     H_    0.832071 0.700288 0.895421 0.162146
H194  H     H_    0.742174 0.599394 0.907044 0.144272
H195  H     H_    0.831354 0.577995 0.926158 0.160533
H196  H     H_    0.801784 0.536858 0.881251 0.145131
H197  H     H_    0.784037 0.066331 0.274772 0.109924
H198  H     H_    0.870850 0.099927 0.256698 0.154096
H199  H     H_    0.785811 0.968986 0.224148 0.206245
H200  H     H_    0.871635 0.002485 0.206102 0.164325
H201  H     H_    0.930236 0.975987 0.270077 0.144272
H202  H     H_    0.816765 0.479718 0.464402 0.102752
H203  H     H_    0.888008 0.895546 0.250250 0.142406
H204  H     H_    0.843936 0.944510 0.289164 0.136816
H205  H     H_    0.266513 0.926788 0.838786 0.152415
H206  H     H_    0.294355 0.834334 0.832920 0.112004
H207  H     H_    0.135755 0.883582 0.850310 0.184867
H208  H     H_    0.170599 0.791495 0.850513 0.197969
H209  H     H_    0.253884 0.822029 0.905498 0.149096
H210  H     H_    0.159684 0.839443 0.917579 0.149394
H211  H     H_    0.218956 0.914454 0.905880 0.135135
H212  H     H_    0.935863 0.742677 0.165655 0.162615
H213  H     H_    0.183469 0.517202 0.535569 0.105379
H214  H     H_    0.913834 0.786833 0.210341 0.128149
H215  H     H_    0.850506 0.828857 0.129699 0.186687
H216  H     H_    0.837324 0.877588 0.174758 0.197550
H217  H     H_    0.983282 0.854695 0.132370 0.146234
H218  H     H_    0.972168 0.899744 0.178946 0.159604
H219  H     H_    0.931345 0.938073 0.135769 0.145492
H220  H     H_    0.165185 0.369024 0.856373 0.158911
H221  H     H_    0.220089 0.388819 0.815086 0.097654
H222  H     H_    0.261030 0.282308 0.881716 0.189458
H223  H     H_    0.318650 0.305977 0.841125 0.179198
H224  H     H_    0.514592 0.183825 0.464466 0.106478
H225  H     H_    0.317668 0.436431 0.862219 0.139278
H226  H     H_    0.351964 0.376766 0.899761 0.151502
H227  H     H_    0.260561 0.412796 0.903303 0.150784
H228  H     H_    0.254740 0.061572 0.832524 0.165785
H229  H     H_    0.209294 0.085922 0.788544 0.125780
H230  H     H_    0.169634 0.151744 0.868893 0.193291
H231  H     H_    0.117770 0.157188 0.824348 0.193959
H232  H     H_    0.103828 0.019786 0.825734 0.160202
H233  H     H_    0.063162 0.065642 0.866899 0.145280
H234  H     H_    0.149263 0.019071 0.872431 0.144441
H235  H     H_    0.486094 0.816258 0.535616 0.102587
H236  H     H_    0.623853 0.829236 0.145800 0.157996
H237  H     H_    0.610164 0.771383 0.186718 0.096665
H238  H     H_    0.714083 0.738316 0.117672 0.190553
H239  H     H_    0.693669 0.677705 0.157496 0.181018
H240  H     H_    0.562242 0.676251 0.137530 0.138336
H241  H     H_    0.621849 0.645379 0.099097 0.151689
H242  H     H_    0.583349 0.735928 0.097149 0.150506
H243  H     H_    0.062839 0.778156 0.728316 0.114189
H244  H     H_    0.096659 0.866727 0.743531 0.146843
H245  H     H_    0.971092 0.783633 0.783014 0.221550
H246  H     H_    0.316264 0.985993 0.964384 0.102586
H247  H     H_    0.003060 0.873457 0.795169 0.152505
H248  H     H_    0.968681 0.916968 0.728165 0.143909
H249  H     H_    0.891855 0.879713 0.754063 0.135748
H250  H     H_    0.935883 0.826776 0.716641 0.137365
H251  H     H_    0.928633 0.262942 0.161915 0.151060
H252  H     H_    0.836476 0.292095 0.167258 0.112788
H253  H     H_    0.883868 0.132181 0.151884 0.185640
H254  H     H_    0.792254 0.168208 0.150982 0.197765
H255  H     H_    0.824316 0.248685 0.095098 0.148297
H256  H     H_    0.840689 0.153793 0.084213 0.149709
O1    O     O_3   0.500000 0.000000 0.250000 -0.459380
O2    O     O_R   0.500000 0.939270 0.662450 -0.556683
O3    O     O_R   0.939270 0.500000 0.337550 -0.556787
O4    O     O_R   0.060730 0.500000 0.662450 -0.554863
O5    O     O_R   1.000000 0.439270 0.837550 -0.544847
O6    O     O_R   0.000000 0.560730 0.162450 -0.556834
O7    O     O_R   0.560730 0.000000 0.837550 -0.560950
O8    O     O_R   0.439270 0.000000 0.162450 -0.547906
O9    O     O_R   0.000000 0.560730 0.837550 -0.554829
O10   O     O_R   0.000000 0.439270 0.162450 -0.556788
O11   O     O_R   0.439270 0.000000 0.837550 -0.556679
O12   O     O_3   0.500000 0.000000 0.750000 -0.450446
O13   O     O_R   0.560730 0.000000 0.162450 -0.548000
O14   O     O_R   0.414490 0.146150 0.273020 -0.523564
O15   O     O_R   0.585510 0.853850 0.726980 -0.528656
O16   O     O_R   0.853850 0.414490 0.273020 -0.527022
O17   O     O_R   0.146150 0.585510 0.726980 -0.508700
O18   O     O_R   0.585510 0.853850 0.273020 -0.523455
O19   O     O_R   0.414490 0.146150 0.726980 -0.514432
O20   O     O_R   0.146150 0.585510 0.273020 -0.526958
O21   O     O_R   0.853850 0.414490 0.726980 -0.514595
O22   O     O_R   0.414490 0.853850 0.726980 -0.526764
O23   O     O_3   0.000000 0.500000 0.250000 -0.448113
O24   O     O_R   0.585510 0.146150 0.273020 -0.507293
O25   O     O_R   0.853850 0.585510 0.726980 -0.524723
O26   O     O_R   0.146150 0.414490 0.273020 -0.527396
O27   O     O_R   0.585510 0.146150 0.726980 -0.521096
O28   O     O_R   0.414490 0.853850 0.273020 -0.507253
O29   O     O_R   0.146150 0.414490 0.726980 -0.517904
O30   O     O_R   0.853850 0.585510 0.273020 -0.527450
O31   O     O_R   0.914490 0.646150 0.773020 -0.517925
O32   O     O_R   0.085510 0.353850 0.226980 -0.527453
O33   O     O_R   0.353850 0.914490 0.773020 -0.526764
O34   O     O_3   0.000000 0.500000 0.750000 -0.457293
O35   O     O_R   0.646150 0.085510 0.226980 -0.507295
O36   O     O_R   0.085510 0.353850 0.773020 -0.524725
O37   O     O_R   0.914490 0.646150 0.226980 -0.527397
O38   O     O_R   0.646150 0.085510 0.773020 -0.521095
O39   O     O_R   0.353850 0.914490 0.226980 -0.507255
O40   O     O_R   0.914490 0.353850 0.226980 -0.527023
O41   O     O_R   0.085510 0.646150 0.773020 -0.508705
O42   O     O_R   0.353850 0.085510 0.226980 -0.523455
O43   O     O_R   0.646150 0.914490 0.773020 -0.514445
O44   O     O_R   0.085510 0.646150 0.226980 -0.526959
O45   O     O_R   0.500000 0.939270 0.337550 -0.547908
O46   O     O_R   0.914490 0.353850 0.773020 -0.514596
O47   O     O_R   0.646150 0.914490 0.226980 -0.523560
O48   O     O_R   0.353850 0.085510 0.773020 -0.528660
O49   O     O_3   0.217998 0.887349 0.219479 -0.533618
O50   O     O_3   0.763618 0.133794 0.801729 -0.544383
O51   O     O_3   0.169914 0.273075 0.182185 -0.542712
O52   O     O_3   0.827364 0.721005 0.818198 -0.547594
O53   O     O_3   0.782028 0.112630 0.219427 -0.533615
O54   O     O_3   0.223022 0.879279 0.790292 -0.540246
O55   O     O_3   0.830167 0.726744 0.182173 -0.542836
O56   O     O_R   0.500000 0.060730 0.662450 -0.560945
O57   O     O_3   0.176521 0.282462 0.819379 -0.542145
O58   O     O_3   0.271124 0.167740 0.817360 -0.544337
O59   O     O_3   0.714082 0.820171 0.180315 -0.544354
O60   O     O_3   0.113791 0.781132 0.782439 -0.533631
O61   O     O_3   0.880256 0.222119 0.210810 -0.542103
O62   O     O_3   0.725665 0.831471 0.817230 -0.536291
O63   O     O_3   0.286043 0.179710 0.180317 -0.544231
O64   O     O_3   0.876729 0.226503 0.793082 -0.530806
O65   O     O_3   0.119778 0.777853 0.210856 -0.542089
O66   O     O_3   0.726502 0.376732 0.706920 -0.530805
O67   O     O_R   0.060730 0.500000 0.337550 -0.556834
O68   O     O_3   0.277852 0.619778 0.289144 -0.542088
O69   O     O_3   0.667742 0.771125 0.682640 -0.544337
O70   O     O_3   0.320168 0.214079 0.319685 -0.544356
O71   O     O_3   0.281133 0.613788 0.717563 -0.533629
O72   O     O_3   0.722121 0.380256 0.289191 -0.542106
O73   O     O_3   0.331483 0.225677 0.682774 -0.536344
O74   O     O_3   0.679708 0.786041 0.319683 -0.544233
O75   O     O_3   0.773073 0.669912 0.317815 -0.542709
O76   O     O_3   0.221012 0.327375 0.681807 -0.547599
O77   O     O_3   0.612631 0.282028 0.280574 -0.533616
O78   O     O_R   0.939270 0.500000 0.662450 -0.544830
O79   O     O_3   0.379281 0.723020 0.709710 -0.540248
O80   O     O_3   0.226742 0.330165 0.317827 -0.542834
O81   O     O_3   0.782466 0.676526 0.680620 -0.542141
O82   O     O_3   0.387348 0.717997 0.280521 -0.533617
O83   O     O_3   0.633792 0.263621 0.698272 -0.544382
O84   O     O_R   0.500000 0.060730 0.337550 -0.548000
Zn1   Zn    Zn3+2 0.413190 0.000000 0.217350 0.930078
Zn2   Zn    Zn3+2 0.086810 0.500000 0.282650 0.927373
Zn3   Zn    Zn3+2 0.500000 0.913190 0.717350 0.926516
Zn4   Zn    Zn3+2 0.500000 0.086810 0.282650 0.930076
Zn5   Zn    Zn3+2 0.086810 0.500000 0.717350 0.926794
Zn6   Zn    Zn3+2 0.913190 0.500000 0.282650 0.927405
Zn7   Zn    Zn3+2 0.500000 0.086810 0.717350 0.929744
Zn8   Zn    Zn3+2 0.500000 0.913190 0.282650 0.930079
Zn9   Zn    Zn3+2 0.586810 0.000000 0.782650 0.929739
Zn10  Zn    Zn3+2 0.000000 0.413190 0.217350 0.927403
Zn11  Zn    Zn3+2 1.000000 0.586810 0.782650 0.926782
Zn12  Zn    Zn3+2 0.586810 0.000000 0.217350 0.930077
Zn13  Zn    Zn3+2 0.413190 0.000000 0.782650 0.926515
Zn14  Zn    Zn3+2 0.000000 0.586810 0.217350 0.927373
Zn15  Zn    Zn3+2 0.000000 0.413190 0.782650 0.927723
Zn16  Zn    Zn3+2 0.913190 0.500000 0.717350 0.927727

loop_
_geom_bond_atom_site_label_1
_geom_bond_atom_site_label_2
_ccdc_geom_bond_type
C37   C232  A    
C118  H83   S    
C83   H5    S    
C27   C202  A    
C72   H233  S    
C32   C196  A    
C25   C204  A    
C134  H123  S    
C114  O72   S    
C114  C115  S    
C209  O63   S    
C101  C200  A    
C213  C229  A    
C124  C175  S    
C210  O64   S    
C145  H149  S    
C202  O55   S    
C52   H188  S    
C142  H140  S    
C13   C146  A    
C53   H189  S    
C35   C124  A    
C18   C210  A    
C154  C158  A    
C22   C181  S    
C97   H38   S    
C151  C230  A    
C7    C159  A    
C106  C107  S    
C217  O71   S    
C143  C144  S    
C5    C36   A    
C218  O72   S    
C53   O52   S    
C73   C74   S    
O17   Zn5   S    
C82   H256  S    
C178  H163  S    
C32   C229  A    
C136  H126  S    
C99   H42   S    
O1    Zn12  S    
C115  H76   S    
C54   H192  S    
C29   C199  A    
C45   H124  S    
C201  C206  A    
C153  C232  A    
C45   H146  S    
C63   H214  S    
C89   H19   S    
C195  O49   S    
C152  C231  A    
C196  C210  A    
O34   Zn11  S    
C59   H203  S    
C106  O70   S    
C9    C46   A    
C10   C162  A    
C137  O80   S    
C43   O49   S    
C82   H3    S    
C10   C41   A    
O12   Zn9   S    
O1    Zn4   S    
C76   H244  S    
C175  O7    A    
C30   C227  A    
C104  C105  S    
C191  O38   A    
C51   H185  S    
C96   H34   S    
C164  H35   S    
C183  O19   A    
C167  H162  S    
C105  H56   S    
C27   C221  A    
C51   C52   S    
C20   C215  A    
O5    Zn15  S    
C46   H173  S    
C140  C141  S    
C23   C182  S    
C102  H48   S    
C120  O74   S    
C187  O24   A    
C133  O79   S    
C216  C226  A    
C119  H85   S    
C169  O84   A    
C148  H154  S    
C114  H74   S    
C8    C35   A    
C43   C44   S    
C109  O71   S    
C69   H225  S    
C37   C38   A    
C173  O9    A    
C74   H239  S    
C121  H92   S    
C204  O58   S    
O39   Zn1   S    
C183  O48   A    
C105  H55   S    
C76   C77   S    
C139  H134  S    
C218  C224  A    
O29   Zn5   S    
C94   H30   S    
C124  C222  A    
C174  O6    A    
C185  O21   A    
C1    C79   A    
C83   O62   S    
C180  O16   A    
C75   H240  S    
C227  O81   S    
C216  O70   S    
C190  O32   A    
C117  O73   S    
C144  C145  S    
C119  H86   S    
C87   H15   S    
C113  C170  S    
C98   H39   S    
C126  H103  S    
O84   Zn4   S    
C26   C203  A    
C130  H111  S    
C229  O83   S    
C122  H94   S    
C17   C184  S    
C73   H237  S    
C222  H167  S    
C55   H195  S    
C85   H10   S    
C133  H121  S    
C177  O42   A    
C130  C131  S    
C65   H217  S    
O3    Zn6   S    
C60   H206  S    
C2    C14   A    
C61   H207  S    
C95   H33   S    
C85   H9    S    
C92   H23   S    
C49   H178  S    
C140  H136  S    
C4    C155  A    
O23   Zn6   S    
C171  O67   A    
C125  H99   S    
C200  C232  A    
C75   H242  S    
C67   C69   S    
C47   H168  S    
C127  H105  S    
O16   Zn6   S    
O67   Zn2   S    
O24   Zn4   S    
C96   H36   S    
C29   C224  A    
C153  C159  A    
C89   H20   S    
C100  H45   S    
C147  C148  S    
C179  O43   A    
C165  H46   S    
C17   C212  A    
C128  C129  S    
C97   C98   S    
C117  H81   S    
C53   C54   S    
C80   H252  S    
C31   C190  S    
C220  O74   S    
C126  H102  S    
C198  O52   S    
C28   C201  A    
C186  O33   A    
C77   H245  S    
C176  O8    A    
C178  C230  A    
C81   H254  S    
C48   H176  S    
O31   Zn11  S    
C115  C116  S    
C123  H96   S    
C64   H215  S    
C22   C206  A    
C139  H132  S    
C70   H229  S    
O8    Zn1   S    
C110  C111  S    
C58   H200  S    
C141  H138  S    
C6    C37   A    
C107  C108  S    
C149  H156  S    
C176  O13   A    
C89   C91   S    
C19   C177  S    
C50   O51   S    
C203  O57   S    
C116  H77   S    
C66   C67   S    
C181  O17   A    
O7    Zn9   S    
C129  H108  S    
C102  H49   S    
O33   Zn13  S    
C192  O28   A    
C100  C102  S    
C220  C221  A    
C6    C158  A    
C108  H63   S    
C95   H32   S    
C20   C179  S    
C3    C211  A    
C157  H213  S    
C76   O60   S    
C138  H130  S    
C137  H129  S    
O1    Zn1   S    
C147  H152  S    
C131  H115  S    
C91   C92   S    
O28   Zn8   S    
C91   H21   S    
O4    Zn5   S    
C201  O54   S    
C3    C154  A    
C62   H211  S    
C65   H219  S    
C78   H250  S    
C9    C161  A    
C28   C186  S    
C88   H16   S    
O34   Zn15  S    
C179  O15   A    
C83   C84   S    
C59   H201  S    
C185  O46   A    
C11   C163  A    
O12   Zn13  S    
C221  O75   S    
C15   C166  A    
C27   C194  S    
C83   H4    S    
C175  O11   A    
C170  O2    A    
C12   C222  A    
C182  O47   A    
O13   Zn12  S    
C24   C150  A    
C162  C168  A    
C184  O20   A    
C44   H101  S    
C30   C198  A    
C22   C217  A    
O41   Zn11  S    
C50   H183  S    
O43   Zn9   S    
C84   H7    S    
C17   C214  A    
C26   C223  A    
C11   C68   A    
C118  H84   S    
C54   C55   S    
C99   O68   S    
C126  H100  S    
O25   Zn16  S    
C77   H247  S    
C71   H230  S    
C115  H75   S    
O6    Zn14  S    
C28   C225  A    
C158  H224  S    
O42   Zn1   S    
C56   O53   S    
C5    C112  A    
C191  O27   A    
C132  H119  S    
C18   C185  S    
O32   Zn10  S    
C2    C135  A    
C99   C100  S    
C142  H141  S    
C135  C176  S    
C162  H13   S    
C71   C72   S    
C117  C118  S    
O19   Zn7   S    
C13   H170  S    
C219  O73   S    
C95   H31   S    
C56   C58   S    
C215  C227  A    
C172  O4    A    
C128  H107  S    
C70   H228  S    
C61   C62   S    
C199  O53   S    
O23   Zn2   S    
C68   C150  A    
C63   C64   S    
C39   C40   A    
C133  H120  S    
C109  H66   S    
C110  H69   S    
C129  H110  S    
C6    C156  A    
C86   O63   S    
O26   Zn2   S    
C217  C225  A    
C88   H17   S    
C87   C88   S    
O21   Zn16  S    
C205  O59   S    
C41   C42   A    
C187  O35   A    
C57   H174  S    
C133  C134  S    
C77   C78   S    
C120  C121  S    
C180  O40   A    
C100  H44   S    
C62   H209  S    
C151  C157  A    
C88   H18   S    
O12   Zn3   S    
C143  H143  S    
C106  H58   S    
O48   Zn13  S    
C123  C125  S    
C169  O45   A    
C140  O81   S    
C111  H72   S    
C151  H1    S    
O23   Zn10  S    
O11   Zn13  S    
C168  H68   S    
O9    Zn11  S    
C11   C42   A    
C79   C171  S    
C7    C167  A    
C147  O83   S    
C46   C135  A    
C121  H91   S    
C166  H57   S    
C86   H11   S    
C202  C205  A    
C66   H220  S    
C45   H135  S    
C89   O64   S    
C101  C169  S    
C70   C71   S    
C139  H133  S    
C102  H47   S    
C103  H50   S    
C68   H175  S    
C57   C146  A    
O2    Zn3   S    
C43   H90   S    
C127  O76   S    
C134  H122  S    
C92   H25   S    
C143  O82   S    
C72   H234  S    
C145  H150  S    
C66   H221  S    
C52   H187  S    
C80   O61   S    
C163  C166  A    
C84   C85   S    
C113  C211  A    
C63   H212  S    
C108  H62   S    
O35   Zn12  S    
C131  H116  S    
C101  C156  A    
C98   H40   S    
C58   C59   S    
C9    C40   A    
C207  O61   S    
C156  H161  S    
C29   C187  S    
C78   H248  S    
C60   C61   S    
C30   C188  S    
C188  O25   A    
C211  H166  S    
C160  H246  S    
C82   H255  S    
C122  H95   S    
C12   C164  A    
C136  H125  S    
C53   H190  S    
C73   H236  S    
C120  H89   S    
C152  C155  A    
C224  O77   S    
C67   H222  S    
C110  H67   S    
C181  O41   A    
C50   C51   S    
C47   H157  S    
O44   Zn14  S    
C160  C165  A    
C143  H144  S    
C15   C41   A    
C121  C122  S    
C70   O58   S    
C59   H204  S    
C192  O39   A    
O15   Zn3   S    
C186  O22   A    
C5    C157  A    
C137  H128  S    
C125  C126  S    
O38   Zn9   S    
C173  O5    A    
C125  H98   S    
C25   C219  A    
C75   H241  S    
C76   H243  S    
C131  C132  S    
C8    C160  A    
C172  O78   A    
C31   C197  A    
C161  C164  A    
C159  H235  S    
C44   C45   S    
C147  H151  S    
C23   C220  A    
C99   H43   S    
C145  H148  S    
C19   C209  A    
O47   Zn12  S    
C84   H6    S    
C66   O57   S    
O18   Zn8   S    
C113  C167  A    
C92   H26   S    
C144  H145  S    
C107  H61   S    
C69   H227  S    
C111  H70   S    
C213  O66   S    
C155  H202  S    
C63   O55   S    
C148  H153  S    
C114  H73   S    
C64   C65   S    
C85   H8    S    
C12   C39   A    
C71   H231  S    
C69   H226  S    
C81   H253  S    
C109  C110  S    
C74   H238  S    
C152  H112  S    
C54   H193  S    
C36   C231  A    
C132  H118  S    
C64   H216  S    
C94   C95   S    
C138  C139  S    
C219  C223  A    
C195  C212  A    
C94   H29   S    
O37   Zn14  S    
C32   C191  S    
C212  O65   S    
O10   Zn10  S    
O36   Zn15  S    
C90   C172  S    
C103  C104  S    
C149  H155  S    
C128  H106  S    
C106  H59   S    
C26   C193  S    
C132  H117  S    
C56   H198  S    
C116  H78   S    
O1    Zn8   S    
C228  O82   S    
C203  C204  A    
C206  O60   S    
C93   C94   S    
C47   O50   S    
C177  O14   A    
C90   C112  A    
C48   H177  S    
C33   C228  A    
C93   O65   S    
C81   C82   S    
C108  H64   S    
C73   O59   S    
C194  O37   A    
C96   O66   S    
C153  H180  S    
C197  O51   S    
C140  H137  S    
C33   C192  S    
C214  O68   S    
C43   H79   S    
C189  C231  A    
C16   C168  A    
C19   C216  A    
C122  H93   S    
C200  H165  S    
C136  H127  S    
C107  H60   S    
C154  H191  S    
C123  H97   S    
C146  C173  S    
C55   H196  S    
O20   Zn2   S    
C65   H218  S    
C208  O62   S    
C60   H205  S    
C190  O26   A    
C118  C119  S    
C61   H208  S    
C14   C165  A    
C194  O30   A    
C193  O36   A    
O34   Zn16  S    
C49   H179  S    
C21   C180  S    
C170  O56   A    
C161  H2    S    
C3    C38   A    
C24   H171  S    
C127  H104  S    
C8    C39   A    
C214  C228  A    
C34   C36   A    
C104  H53   S    
C182  O18   A    
C16   C24   A    
C93   H27   S    
O22   Zn3   S    
O14   Zn4   S    
O46   Zn15  S    
C103  H51   S    
C144  H147  S    
C60   O54   S    
C104  H52   S    
C117  H82   S    
C80   H251  S    
O23   Zn14  S    
C4    C34   A    
C74   C75   S    
C174  O10   A    
C198  C208  A    
C47   C48   S    
C149  H158  S    
C103  O69   S    
C10   C57   A    
O40   Zn10  S    
C148  C149  S    
C130  H114  S    
C134  C136  S    
C1    H159  S    
C50   H182  S    
C44   H113  S    
C52   H186  S    
C142  H142  S    
C130  O77   S    
C184  O44   A    
C189  H164  S    
C98   H41   S    
C93   H28   S    
C58   H199  S    
C33   C195  A    
C96   C97   S    
C199  C207  A    
C138  H131  S    
C79   C178  A    
C72   H232  S    
C171  O3    A    
C2    H169  S    
C188  O31   A    
O56   Zn7   S    
O78   Zn16  S    
C116  H80   S    
C150  C174  S    
C109  H65   S    
C67   H223  S    
C21   C218  A    
C13   C15   A    
O45   Zn8   S    
C129  H109  S    
C31   C226  A    
C18   C213  A    
C20   C208  A    
C16   C42   A    
C51   H184  S    
C86   C87   S    
C87   H14   S    
C123  O75   S    
O34   Zn5   S    
C48   C49   S    
O12   Zn7   S    
O27   Zn7   S    
C80   C81   S    
C91   H22   S    
C137  C138  S    
C56   H197  S    
C55   H194  S    
C196  O50   S    
C105  H54   S    
C62   H210  S    
C1    C4    A    
C21   C207  A    
C78   H249  S    
C141  C142  S    
C49   H181  S    
C141  H139  S    
C112  H160  S    
C111  H71   S    
C34   C230  A    
C7    C38   A    
C119  H87   S    
C225  O79   S    
C120  H88   S    
C226  O80   S    
C163  H24   S    
C215  O69   S    
C193  O29   A    
C197  C209  A    
C14   C40   A    
C25   C183  S    
C223  O76   S    
O30   Zn6   S    
C86   H12   S    
C97   H37   S    
C35   H172  S    
C23   C205  A    
C127  C128  S    
C90   C189  A    
