data_mof_unit_17846.cif
_audit_creation_date              2013-03-05T15:49:32-0500
_audit_creation_method            fapswitch 2.2
_symmetry_space_group_name_H-M    P1
_symmetry_Int_Tables_number       1
_space_group_crystal_system       triclinic
_cell_length_a                    10.585926
_cell_length_b                    11.945439
_cell_length_c                    12.867424
_cell_angle_alpha                 93.568174
_cell_angle_beta                  89.576634
_cell_angle_gamma                 84.185115
_cell_volume                      1615.46698748

loop_
_atom_site_label
_atom_site_type_symbol
_atom_site_description
_atom_site_fract_x
_atom_site_fract_y
_atom_site_fract_z
_atom_type_partial_charge
O1    O     O_R   0.506170 0.421700 0.658830 -0.595838
O2    O     O_R   0.493830 0.578300 0.341170 -0.595864
O3    O     O_R   0.491330 0.609310 0.646410 -0.606719
O4    O     O_R   0.508670 0.390690 0.353590 -0.606712
C1    C     C_R   0.495616 0.522826 0.700581 0.977255
C2    C     C_R   0.504355 0.477172 0.299418 0.977698
O5    O     O_R   0.690650 0.406190 0.506220 -0.640190
O6    O     O_R   0.309350 0.593810 0.493780 -0.640135
O7    O     O_R   0.675800 0.593810 0.493800 -0.612410
O8    O     O_R   0.324200 0.406190 0.506200 -0.612384
C3    C     C_R   0.740892 0.495572 0.485446 0.922401
C4    C     C_R   0.259112 0.504429 0.514580 0.921949
Zn1   Zn    Zn3+2 0.509910 0.374730 0.508290 1.029440
Zn2   Zn    Zn3+2 0.490090 0.625270 0.491710 1.029400
C5    C     C_R   0.915569 0.285204 0.506772 -0.219277
C6    C     C_R   0.084418 0.714766 0.493177 -0.219258
C7    C     C_R   0.971226 0.204427 0.570852 0.256784
C8    C     C_R   0.028779 0.795520 0.429064 0.256784
C9    C     C_R   0.074726 0.230365 0.633073 0.088322
C10   C     C_R   0.925304 0.769555 0.366815 0.088125
C11   C     C_R   0.123345 0.336062 0.626199 0.209569
C12   C     C_R   0.876691 0.663849 0.373695 0.209439
C13   C     C_R   0.067024 0.415167 0.556955 -0.072169
C14   C     C_R   0.932985 0.584791 0.443004 -0.072060
C15   C     C_R   0.953186 0.395057 0.509099 -0.032349
C16   C     C_R   0.046811 0.604913 0.490873 -0.032303
C17   C     C_R   0.121707 0.513539 0.532658 -0.044330
C18   C     C_R   0.878290 0.486444 0.467345 -0.043929
H1    H     H_    0.840554 0.261580 0.455927 0.248094
H2    H     H_    0.159410 0.738406 0.544037 0.248118
C19   C     C_R   0.512184 0.462003 0.187962 -0.203953
C20   C     C_R   0.487734 0.537980 0.812034 -0.204018
C21   C     C_R   0.414501 0.640582 0.972441 0.256360
C22   C     C_R   0.585341 0.359374 0.027547 0.256288
C23   C     C_R   0.422396 0.634375 0.863829 0.237657
C24   C     C_R   0.577444 0.365573 0.136158 0.237739
C25   C     C_R   0.544845 0.450155 0.866594 -0.164742
C26   C     C_R   0.455080 0.549836 0.133406 -0.164893
C27   C     C_R   0.532432 0.451774 0.973290 -0.021295
C28   C     C_R   0.467449 0.548200 0.026705 -0.021284
H3    H     H_    0.400866 0.620308 0.175543 0.201708
H4    H     H_    0.599097 0.379700 0.824464 0.201711
N1    N     N_R   0.523130 0.207800 0.519340 -0.121924
N2    N     N_R   0.476870 0.792200 0.480660 -0.121960
C29   C     C_R   0.411470 0.953938 0.384405 -0.141850
C30   C     C_R   0.588528 0.046062 0.615595 -0.141868
C31   C     C_R   0.416107 0.837931 0.397860 0.133373
C32   C     C_R   0.583895 0.162068 0.602138 0.133552
C33   C     C_R   0.533855 0.858661 0.552702 0.038154
C34   C     C_R   0.466142 0.141339 0.447299 0.038203
C35   C     C_R   0.530943 0.975966 0.542752 0.039917
C36   C     C_R   0.469053 0.024034 0.457249 0.039922
H5    H     H_    0.417515 0.179942 0.382808 0.152010
H6    H     H_    0.582480 0.820059 0.617193 0.151987
H7    H     H_    0.628320 0.215833 0.658591 0.154259
H8    H     H_    0.371684 0.784166 0.341407 0.154239
H9    H     H_    0.363407 0.988381 0.317687 0.205399
H10   H     H_    0.636588 0.011619 0.682314 0.205397
I1    I     I_    0.841628 0.890509 0.264497 0.101335
I2    I     I_    0.158428 0.109405 0.735366 0.101402
N3    N     N_R   0.915323 0.099994 0.576185 0.233412
O9    O     O_R   0.893631 0.060758 0.665943 -0.350500
O10   O     O_R   0.861143 0.057518 0.494492 -0.376573
N4    N     N_R   0.084666 0.899968 0.423755 0.233413
O11   O     O_R   0.106258 0.939296 0.334021 -0.350360
O12   O     O_R   0.138873 0.942414 0.505448 -0.376666
N5    N     N_R   0.217471 0.369249 0.698662 0.214937
O13   O     O_R   0.200252 0.466661 0.750678 -0.368627
O14   O     O_R   0.319077 0.302225 0.714748 -0.351789
N6    N     N_R   0.782594 0.630610 0.301207 0.215138
O15   O     O_R   0.681101 0.697683 0.284913 -0.351704
O16   O     O_R   0.799263 0.532781 0.249936 -0.369268
N7    N     N_R   0.636575 0.274916 0.192732 0.240658
O17   O     O_R   0.604705 0.173131 0.175278 -0.306110
O18   O     O_R   0.729829 0.292106 0.255086 -0.328298
N8    N     N_R   0.363155 0.724969 0.807239 0.240669
O19   O     O_R   0.394866 0.826807 0.824692 -0.305963
O20   O     O_R   0.269977 0.707653 0.744842 -0.328710
N9    N     N_R   0.350452 0.739224 0.026723 0.220074
O21   O     O_R   0.232642 0.771619 0.006438 -0.271629
O22   O     O_R   0.412949 0.801964 0.089932 -0.330434
N10   N     N_R   0.649331 0.260707 0.973258 0.220079
O23   O     O_R   0.767108 0.228220 0.993575 -0.271594
O24   O     O_R   0.586804 0.198037 0.910009 -0.330431

loop_
_geom_bond_atom_site_label_1
_geom_bond_atom_site_label_2
_geom_bond_distance
_ccdc_geom_bond_type
N2    C33   1.366461 A    
C32   H7    1.081426 S    
N7    O17   1.301102 A    
C15   C18   1.418762 A    
O5    C3    1.281724 A    
C29   H9    1.083121 S    
C16   C17   1.418832 A    
O1    C1    1.285038 A    
C9    C11   1.418364 A    
N8    O20   1.301038 A    
C5    C15   1.408064 A    
C6    H2    1.080906 S    
C33   H6    1.082621 S    
O4    Zn1   2.011489 S    
C25   H4    1.082904 S    
N3    O10   1.301107 A    
C7    C9    1.410070 A    
C33   C35   1.412273 A    
C34   C36   1.412274 A    
N6    O15   1.300019 A    
C13   C17   1.412293 A    
N1    C32   1.363322 A    
C22   C24   1.396328 A    
N2    C31   1.363323 A    
C1    C20   1.435018 S    
C7    N3    1.439032 S    
C2    C19   1.435037 S    
C11   N5    1.437755 S    
N7    O18   1.301037 A    
O2    C2    1.285073 A    
N5    O13   1.301346 A    
C5    H1    1.080910 S    
C29   C31   1.403181 A    
C6    C16   1.408018 A    
C30   C32   1.403179 A    
C23   N8    1.435959 S    
C21   C28   1.412749 A    
C4    C17   1.463372 S    
C22   C27   1.412736 A    
C34   H5    1.082622 S    
C20   C23   1.408812 A    
N8    O19   1.301098 A    
C26   H3    1.082902 S    
O4    C2    1.278960 A    
C27   C28   1.416440 A    
N9    O22   1.301329 A    
C21   N9    1.436904 S    
C29   C36   1.401931 A    
C30   C35   1.401928 A    
C35   C36   1.407994 A    
N5    O14   1.300070 A    
N4    O12   1.301104 A    
O7    Zn2   1.964459 S    
O6    C4    1.281778 A    
C20   C25   1.388685 A    
C10   I1    2.144816 S    
O7    C3    1.297229 A    
O3    Zn2   2.011490 S    
O8    C4    1.297232 A    
C10   C12   1.418454 A    
N10   O24   1.301330 A    
C11   C13   1.428554 A    
C12   C14   1.428638 A    
O1    Zn1   1.981835 S    
Zn1   N1    1.998770 S    
Zn2   N2    1.998771 S    
C5    C7    1.396101 A    
O6    Zn2   1.987170 S    
C14   C18   1.412238 A    
C14   C16   1.392947 A    
O3    C1    1.278987 A    
O8    Zn1   1.964458 S    
N1    C34   1.366464 A    
C9    I2    2.144758 S    
C19   C26   1.388700 A    
N4    O11   1.300588 A    
C25   C27   1.376956 A    
C26   C28   1.376972 A    
C8    N4    1.439075 S    
C3    C18   1.463345 S    
C21   C23   1.396344 A    
C8    C10   1.410149 A    
C13   C15   1.392951 A    
N3    O9    1.300609 A    
O2    Zn2   1.981835 S    
C24   N7    1.435973 S    
N9    O21   1.301069 A    
O5    Zn1   1.987171 S    
C6    C8    1.396115 A    
N10   O23   1.301070 A    
C19   C24   1.408840 A    
N6    O16   1.300977 A    
C22   N10   1.436916 S    
C12   N6    1.437931 S    
C30   H10   1.083121 S    
C31   H8    1.081424 S    
