data_mof_unit_7960.cif
_audit_creation_date              2012-12-10T17:50:11-0500
_audit_creation_method            fapswitch 2.2
_symmetry_space_group_name_H-M    P1
_symmetry_Int_Tables_number       1
_space_group_crystal_system       triclinic
_cell_length_a                    10.610071
_cell_length_b                    14.860466
_cell_length_c                    14.906962
_cell_angle_alpha                 64.514362
_cell_angle_beta                  105.778751
_cell_angle_gamma                 102.426741
_cell_volume                      2028.64915947

loop_
_atom_site_label
_atom_site_type_symbol
_atom_type_description
_atom_site_fract_x
_atom_site_fract_y
_atom_site_fract_z
_atom_type_partial_charge
C1    C     C_R   0.479352 0.119482 0.312678 0.829901
C2    C     C_R   0.520368 0.880616 0.687220 0.854953
C3    C     C_R   0.522987 0.285868 0.171600 -0.060104
C4    C     C_R   0.472108 0.715427 0.828132 -0.054308
C5    C     C_R   0.469422 0.360948 0.077230 0.046758
C6    C     C_R   0.526214 0.638630 0.920951 -0.019753
C7    C     C_R   0.338733 0.339058 0.028143 0.121039
C8    C     C_R   0.657820 0.659345 0.969842 0.125361
C9    C     C_R   0.534923 0.459782 0.034278 0.106997
C10   C     C_R   0.460462 0.539389 0.962755 0.056379
C11   C     C_R   0.322684 0.517338 0.939059 -0.244459
C12   C     C_R   0.672673 0.480908 0.057639 -0.164374
C13   C     C_R   0.264758 0.419035 0.963538 -0.161345
C14   C     C_R   0.731422 0.578862 0.033255 -0.138939
C15   C     C_R   0.718162 0.282781 0.672652 -0.175393
C16   C     C_R   0.283390 0.717285 0.327052 -0.178653
C17   C     C_R   0.694720 0.207365 0.635674 0.154258
C18   C     C_R   0.306044 0.792728 0.363829 0.169201
C19   C     C_R   0.509264 0.283519 0.513847 0.174026
C20   C     C_R   0.491176 0.716931 0.486440 0.117034
C21   C     C_R   0.545697 0.369685 0.539018 -0.096930
C22   C     C_R   0.455641 0.630502 0.461494 -0.025388
C23   C     C_R   0.260059 0.999758 0.500454 0.876736
C24   C     C_R   0.739963 0.000203 0.499639 0.800303
C25   C     C_R   0.638074 0.360214 0.629826 0.073815
C26   C     C_R   0.363638 0.639904 0.370420 0.067726
C27   C     C_R   0.490399 0.463097 0.479940 0.063084
C28   C     C_R   0.510627 0.536890 0.520999 0.119695
C29   C     C_R   0.577819 0.512113 0.622457 -0.236879
C30   C     C_R   0.423677 0.487807 0.378490 -0.269307
C31   C     C_R   0.646980 0.428214 0.675380 0.026284
C32   C     C_R   0.354992 0.571804 0.325115 -0.002439
C33   C     C_3   0.009683 0.924677 0.475560 -0.131120
C34   C     C_3   0.990368 0.075313 0.524654 -0.220684
C35   C     C_3   0.929253 0.013848 0.407729 0.022006
C36   C     C_3   0.070834 0.986174 0.592490 0.017247
C37   C     C_3   0.876625 0.000795 0.498935 0.000963
C38   C     C_3   0.123450 0.999192 0.501279 -0.015771
C39   C     C_3   0.955904 0.911580 0.568005 -0.203839
C40   C     C_3   0.044184 0.088417 0.432241 -0.282463
C41   C     C_R   0.453599 0.188437 0.204967 -0.063634
C42   C     C_R   0.544324 0.811852 0.794846 -0.018884
C43   C     C_R   0.280919 0.238287 0.053849 -0.019264
C44   C     C_R   0.716969 0.759678 0.945337 -0.016167
C45   C     C_R   0.340884 0.163885 0.141571 -0.264903
C46   C     C_R   0.658102 0.834985 0.858170 -0.310360
Cu1   Cu    Cu3+1 0.465750 0.918270 0.475680 0.973996
Cu2   Cu    Cu3+1 0.534250 0.081730 0.524320 0.995152
H1    H     H_    0.018978 0.863212 0.455055 0.193421
H2    H     H_    0.981073 0.136785 0.545147 0.182112
H3    H     H_    0.159350 0.406762 0.937935 0.192437
H4    H     H_    0.836946 0.590528 0.058736 0.183334
H5    H     H_    0.708791 0.910414 0.834408 0.143487
H6    H     H_    0.291764 0.087971 0.165591 0.141460
H7    H     H_    0.257417 0.575224 0.901455 0.179001
H8    H     H_    0.736699 0.422094 0.096574 0.141874
N1    N     N_R   0.585750 0.204560 0.560800 -0.235270
N2    N     N_R   0.414250 0.795440 0.439200 -0.251671
O1    O     O_R   0.454850 0.022100 0.338110 -0.589837
O2    O     O_R   0.545150 0.977900 0.661890 -0.592244
O3    O     O_R   0.512700 0.160150 0.379180 -0.529790
O4    O     O_R   0.487300 0.839850 0.620820 -0.615312
O5    O     O_R   0.287930 0.931000 0.479440 -0.613751
O6    O     O_R   0.712070 0.069000 0.520560 -0.633952
O7    O     O_R   0.345780 0.069050 0.520520 -0.547830
O8    O     O_R   0.654220 0.930950 0.479480 -0.553250
C47   C     C_2   0.853613 0.030319 0.302272 0.384256
H9    H     H_    0.904493 0.035898 0.245750 0.086855
O9    O     O_2   0.735757 0.037861 0.279177 -0.531049
C48   C     C_2   0.146410 0.970073 0.697889 0.417881
H10   H     H_    0.095091 0.963226 0.754668 0.073556
O10   O     O_2   0.264737 0.964426 0.720609 -0.502506
C49   C     C_2   0.623550 0.730754 0.547494 0.411318
H11   H     H_    0.637182 0.751252 0.610971 0.059243
O11   O     O_2   0.720667 0.718024 0.527187 -0.537543
C50   C     C_2   0.372903 0.269380 0.458503 0.401626
H12   H     H_    0.291340 0.269891 0.489127 0.049850
O12   O     O_2   0.349737 0.263972 0.376174 -0.556648
C51   C     C_2   0.213781 0.870661 0.314048 0.362369
H13   H     H_    0.241463 0.944576 0.313471 0.105547
O13   O     O_2   0.102010 0.852820 0.270454 -0.544805
C52   C     C_2   0.786892 0.129399 0.685089 0.357735
H14   H     H_    0.758404 0.055065 0.686892 0.105674
O14   O     O_2   0.899508 0.147704 0.727031 -0.553146
H15   H     H_    0.800581 0.280861 0.734702 0.234539
H16   H     H_    0.201371 0.719061 0.264777 0.232851
H17   H     H_    0.575176 0.556766 0.662952 0.097547
H18   H     H_    0.427647 0.443581 0.338055 0.199924
H19   H     H_    0.917893 0.839587 0.623993 0.159748
H20   H     H_    0.082119 0.160492 0.376332 0.172012
C53   C     C_2   0.353128 0.692756 0.757431 0.360345
H21   H     H_    0.339835 0.624009 0.745361 0.072981
O15   O     O_2   0.268611 0.750262 0.713226 -0.512914
C54   C     C_2   0.638199 0.310061 0.244037 0.397398
H22   H     H_    0.714095 0.259652 0.284051 0.069881
O16   O     O_2   0.644528 0.382657 0.264053 -0.507988
C55   C     C_2   0.156895 0.206848 0.993679 0.390668
H23   H     H_    0.099539 0.135947 0.029109 0.088359
O17   O     O_2   0.120749 0.256523 0.903358 -0.504989
C56   C     C_2   0.841673 0.789649 0.005983 0.403159
H24   H     H_    0.900063 0.860161 0.971079 0.083041
O18   O     O_2   0.877248 0.739211 0.096175 -0.489075
C57   C     C_2   0.718971 0.412470 0.780692 0.358674
H25   H     H_    0.754496 0.476672 0.801202 0.069688
O19   O     O_2   0.732584 0.328542 0.846816 -0.530548
C58   C     C_2   0.284053 0.587641 0.219549 0.390651
H26   H     H_    0.248588 0.523446 0.199022 0.078979
O20   O     O_2   0.271318 0.671608 0.153292 -0.516918

loop_
_geom_bond_atom_site_label_1
_geom_bond_atom_site_label_2
_ccdc_geom_bond_type
C25   C31   A    
C38   C40   S    
C26   C32   A    
C34   C37   S    
C44   C56   S    
C49   H11   S    
Cu1   O4    S    
C55   H23   S    
Cu2   N1    S    
C19   N1    A    
C28   C29   A    
C33   C39   S    
C58   O20   D    
C34   C40   S    
C19   C50   S    
C19   C21   A    
C50   O12   D    
C1    O1    A    
Cu1   O5    S    
C2    O2    A    
Cu2   O6    S    
C58   H26   S    
C33   H1    S    
C17   C52   S    
C42   C46   A    
C13   H3    S    
C18   N2    A    
C14   H4    S    
C44   C46   A    
C18   C51   S    
C48   H10   S    
C7    C43   A    
Cu2   O7    S    
C9    C10   A    
Cu1   O8    S    
C24   O8    A    
C15   H15   S    
C4    C53   S    
C23   O5    A    
C21   C27   A    
C24   O6    A    
C32   C58   S    
C27   C30   A    
C16   H16   S    
C49   O11   D    
C55   O17   D    
C36   C48   S    
Cu2   O2    S    
C16   C26   A    
C34   H2    S    
C47   H9    S    
C43   C55   S    
C50   H12   S    
C4    C6    A    
C53   H21   S    
C51   O13   D    
C6    C8    A    
C47   O9    D    
C31   C57   S    
C5    C9    A    
C53   O15   D    
Cu1   Cu2   S    
C35   C47   S    
C56   O18   D    
C24   C37   S    
C57   O19   D    
C16   C18   A    
C54   O16   D    
C43   C45   A    
C12   H8    S    
C1    C41   S    
C12   C14   A    
C45   H6    S    
C52   O14   D    
C30   H18   S    
C57   H25   S    
C11   H7    S    
C5    C7    A    
C15   C17   A    
C21   C25   A    
C3    C41   A    
C8    C14   A    
C35   C37   S    
C36   C39   S    
C8    C44   A    
C20   C22   A    
C3    C5    A    
C1    O3    A    
C6    C10   A    
C48   O10   D    
C23   C38   S    
C33   C38   S    
C23   O7    A    
C36   C38   S    
C35   C40   S    
C29   C31   A    
Cu1   N2    S    
C30   C32   A    
C11   C13   A    
Cu2   O3    S    
C4    C42   A    
C2    C42   S    
C46   H5    S    
C56   H24   S    
C33   C35   S    
C20   C49   S    
C3    C54   S    
C34   C36   S    
C54   H22   S    
C9    C12   A    
C29   H17   S    
C15   C25   A    
C10   C11   A    
Cu1   O1    S    
C51   H13   S    
C7    C13   A    
C37   C39   S    
C52   H14   S    
C22   C26   A    
C27   C28   A    
C41   C45   A    
C22   C28   A    
C40   H20   S    
C20   N2    A    
C39   H19   S    
C2    O4    A    
C17   N1    A    
