data_mof_unit_58412.cif
_audit_creation_date              2012-12-10T16:42:33-0500
_audit_creation_method            fapswitch 2.2
_symmetry_space_group_name_H-M    P1
_symmetry_Int_Tables_number       1
_space_group_crystal_system       triclinic
_cell_length_a                    7.551373
_cell_length_b                    8.686429
_cell_length_c                    10.7799
_cell_angle_alpha                 87.902062
_cell_angle_beta                  73.428302
_cell_angle_gamma                 102.794052
_cell_volume                      657.128942124

loop_
_atom_site_label
_atom_site_type_symbol
_atom_type_description
_atom_site_fract_x
_atom_site_fract_y
_atom_site_fract_z
_atom_type_partial_charge
C1    C     C_R   0.451954 0.200002 0.506225 0.841587
C2    C     C_R   0.547957 0.799972 0.494056 0.887033
C3    C     C_R   0.424559 0.489082 0.744094 0.795761
C4    C     C_R   0.572509 0.497685 0.256790 0.802082
C5    C     C_2   0.390378 0.476884 0.886265 -0.059170
C6    C     C_2   0.596559 0.475579 0.117694 -0.075071
C7    C     C_2   0.458577 0.370815 0.944361 0.045806
C8    C     C_2   0.455914 0.374666 0.082502 0.043524
C9    C     C_2   0.424946 0.031476 0.517185 -0.373152
C10   C     C_2   0.574869 0.968499 0.483216 -0.346746
Cu1   Cu    Cu3+1 0.688910 0.517800 0.485820 0.954845
Cu2   Cu    Cu3+1 0.311090 0.482200 0.514180 0.941772
H1    H     H_    0.280797 0.959223 0.556866 0.166862
H2    H     H_    0.718961 0.040732 0.443447 0.177361
N1    N     N_2   0.027170 0.455360 0.535550 -0.065629
N2    N     N_2   0.972830 0.544640 0.464450 -0.058879
O1    O     O_R   0.622710 0.286400 0.490790 -0.592196
O2    O     O_R   0.377290 0.713600 0.509210 -0.592302
O3    O     O_R   0.303660 0.256330 0.514730 -0.606626
O4    O     O_R   0.696340 0.743670 0.485270 -0.587207
O5    O     O_R   0.600900 0.509520 0.671740 -0.598574
O6    O     O_R   0.399100 0.490480 0.328260 -0.616117
O7    O     O_R   0.281840 0.479450 0.695690 -0.562037
O8    O     O_R   0.718160 0.520550 0.304310 -0.555380
C11   C     C_2   0.301137 0.253172 0.177771 0.400319
H3    H     H_    0.314900 0.216965 0.271065 0.078587
O9    O     O_2   0.157550 0.189192 0.150951 -0.549151
C12   C     C_2   0.510487 0.232102 0.879542 0.354273
H4    H     H_    0.469067 0.198777 0.793937 0.038606
O10   O     O_2   0.596711 0.151289 0.923253 -0.547814
C13   C     C_3   0.772479 0.572889 0.016371 -0.812721
H5    H     H_    0.869302 0.649156 0.062181 0.238142
H6    H     H_    0.850831 0.492819 0.957824 0.263101
H7    H     H_    0.732656 0.651392 0.950814 0.244473
C14   C     C_3   0.292482 0.592766 0.962475 -0.820242
H8    H     H_    0.246372 0.668911 0.898862 0.235946
H9    H     H_    0.164708 0.526909 0.041319 0.261083
H10   H     H_    0.390630 0.671151 0.006018 0.243596
C15   C     C_3   0.909081 0.302709 0.595434 -0.310644
H11   H     H_    0.906544 0.219250 0.520748 0.162422
H12   H     H_    0.972877 0.255533 0.664730 0.176176
H13   H     H_    0.768745 0.311446 0.654389 0.183302
C16   C     C_3   0.093611 0.695501 0.400219 -0.327699
H14   H     H_    0.100483 0.781861 0.472373 0.162093
H15   H     H_    0.233582 0.686043 0.338539 0.190695
H16   H     H_    0.027277 0.741733 0.332111 0.167909

loop_
_geom_bond_atom_site_label_1
_geom_bond_atom_site_label_2
_ccdc_geom_bond_type
Cu1   Cu2   S    
C13   H6    S    
C2    O2    A    
C4    O6    A    
C9    C10   D    
C1    O1    A    
C13   H5    S    
N2    C16   S    
Cu2   N1    S    
C16   H14   S    
C12   O10   D    
C6    C13   S    
C13   H7    S    
C7    C8    S    
C15   H12   S    
C8    C11   S    
C16   H15   S    
Cu2   O7    S    
N1    C15   S    
C5    C14   S    
Cu2   O3    S    
C12   H4    S    
C14   H9    S    
C15   H13   S    
C10   H2    S    
C4    O8    A    
C16   H16   S    
Cu1   O4    S    
C3    O5    A    
C11   O9    D    
C2    O4    A    
N1    N2    D    
C2    C10   S    
Cu2   O6    S    
Cu1   O8    S    
C14   H10   S    
C1    C9    S    
C4    C6    S    
Cu1   N2    S    
Cu2   O2    S    
C15   H11   S    
C5    C7    D    
C9    H1    S    
Cu1   O1    S    
C6    C8    D    
C11   H3    S    
C1    O3    A    
C3    O7    A    
Cu1   O5    S    
C7    C12   S    
C14   H8    S    
C3    C5    S    
