data_mof_unit_48802.cif
_audit_creation_date              2012-10-26T20:14:29-0400
_audit_creation_method            fapswitch 2.2
_symmetry_space_group_name_H-M    P1
_symmetry_Int_Tables_number       1
_space_group_crystal_system       triclinic
_cell_length_a                    7.778598
_cell_length_b                    9.095988
_cell_length_c                    17.220102
_cell_angle_alpha                 90.016993
_cell_angle_beta                  85.646415
_cell_angle_gamma                 90.015962
_cell_volume                      1214.87601186

loop_
_atom_site_label
_atom_site_type_symbol
_atom_type_description
_atom_site_fract_x
_atom_site_fract_y
_atom_site_fract_z
_atom_type_partial_charge
C1    C     C_R   0.500014 0.779998 0.499960 0.545600
C2    C     C_R   0.658241 0.447288 0.219465 -0.153825
C3    C     C_R   0.607397 0.428569 0.852804 -0.108376
C4    C     C_R   0.671124 0.463562 0.138992 -0.114342
C5    C     C_R   0.458392 0.464600 0.899146 0.029507
C6    C     C_R   0.564552 0.563393 0.103891 0.036649
C7    C     C_R   0.308935 0.510849 0.864579 0.141154
C8    C     C_R   0.447811 0.651754 0.149646 0.146495
C9    C     C_R   0.311067 0.522464 0.783364 0.129496
C10   C     C_R   0.432842 0.634236 0.230501 0.132720
C11   C     C_2   0.465275 0.463062 0.984254 0.108377
C12   C     C_R   0.499991 0.219997 0.499948 0.556641
C13   C     C_2   0.562666 0.563435 0.018753 0.108378
C14   C     C_1   0.500011 0.934628 0.499908 -0.048322
C15   C     C_1   0.499978 0.065353 0.499908 -0.044715
C16   C     C_R   0.476925 0.498539 0.650963 0.535976
C17   C     C_R   0.522574 0.506634 0.349644 0.535146
C18   C     C_R   0.464142 0.487873 0.736577 -0.016776
C19   C     C_R   0.536351 0.528707 0.265437 -0.005329
C20   C     C_R   0.610483 0.440415 0.772516 -0.152170
Cu1   Cu    Cu3+1 0.330920 0.500000 0.500000 1.007284
Cu2   Cu    Cu3+1 0.669080 0.500000 0.500000 1.024302
H1    H     H_    0.760823 0.395494 0.103753 0.132686
H2    H     H_    0.215407 0.661749 0.302052 0.255713
H3    H     H_    0.108891 0.490023 0.717195 0.247823
H4    H     H_    0.188097 0.665808 0.715912 0.244268
H5    H     H_    0.570630 0.744277 0.950470 0.225863
H6    H     H_    0.730506 0.736413 0.010424 0.234026
H7    H     H_    0.267731 0.406990 0.061816 0.222956
H8    H     H_    0.314045 0.278970 0.993052 0.228759
H9    H     H_    0.722722 0.393453 0.879169 0.151953
H10   H     H_    0.728637 0.412053 0.738439 0.148288
H11   H     H_    0.739901 0.367903 0.245764 0.136315
H12   H     H_    0.110840 0.460315 0.943511 0.220733
H13   H     H_    0.185506 0.635284 0.949052 0.221256
H14   H     H_    0.418719 0.830687 0.081958 0.227990
H15   H     H_    0.262488 0.701447 0.077465 0.214844
H16   H     H_    0.379646 0.778784 0.319040 0.230198
N1    N     N_1   0.923170 0.500000 0.500010 -0.082270
N2    N     N_1   0.076830 0.500000 0.499990 -0.085374
N3    N     N_3   0.155226 0.551405 0.910947 -0.579612
N4    N     N_3   0.339944 0.757002 0.114828 -0.583032
N5    N     N_3   0.314212 0.726749 0.275849 -0.571864
N6    N     N_3   0.157802 0.573842 0.750700 -0.574590
N7    N     N_3   0.659113 0.673159 0.973639 -0.621592
N8    N     N_3   0.369303 0.353786 0.029986 -0.631153
O1    O     O_R   0.357240 0.711600 0.500000 -0.501747
O2    O     O_R   0.642760 0.288400 0.500000 -0.494906
O3    O     O_R   0.642760 0.711600 0.500000 -0.491490
O4    O     O_R   0.357240 0.288400 0.500000 -0.490780
O5    O     O_R   0.340660 0.500000 0.613590 -0.516228
O6    O     O_R   0.659340 0.500000 0.386410 -0.500102
O7    O     O_R   0.626230 0.500000 0.613600 -0.503079
O8    O     O_R   0.373770 0.500000 0.386400 -0.509720

loop_
_geom_bond_atom_site_label_1
_geom_bond_atom_site_label_2
_ccdc_geom_bond_type
C2    C4    A    
C12   C15   S    
C5    C7    A    
C10   C19   A    
H14   N4    S    
C16   O5    A    
Cu1   O5    S    
H7    N8    S    
C12   O2    A    
H5    N7    S    
H15   N4    S    
C2    C19   A    
H4    N6    S    
H16   N5    S    
C16   C18   S    
Cu1   Cu2   S    
C6    C13   S    
C3    H9    S    
C11   C13   D    
H12   N3    S    
H2    N5    S    
Cu2   O3    S    
Cu2   N1    S    
C2    H11   S    
Cu2   O6    S    
Cu1   O4    S    
C17   C19   S    
C8    N4    S    
Cu2   O2    S    
C5    C11   S    
Cu2   O7    S    
C18   C20   A    
C7    N3    S    
H3    N6    S    
Cu1   O8    S    
H13   N3    S    
Cu1   O1    S    
H6    N7    S    
C17   O6    A    
C9    C18   A    
C3    C20   A    
C13   N7    S    
C4    C6    A    
C20   H10   S    
N1    N2    T    
C7    C9    A    
C4    H1    S    
C14   C15   T    
C1    O1    A    
C9    N6    S    
C6    C8    A    
C1    C14   S    
C3    C5    A    
C10   N5    S    
C16   O7    A    
C1    O3    A    
C17   O8    A    
H8    N8    S    
C8    C10   A    
C12   O4    A    
C11   N8    S    
Cu1   N2    S    
