data_mof_unit_62391.cif
_audit_creation_date              2013-03-05T16:35:58-0500
_audit_creation_method            fapswitch 2.2
_symmetry_space_group_name_H-M    P1
_symmetry_Int_Tables_number       1
_space_group_crystal_system       triclinic
_cell_length_a                    48.130954
_cell_length_b                    35.583716
_cell_length_c                    35.67551
_cell_angle_alpha                 90.003582
_cell_angle_beta                  138.517057
_cell_angle_gamma                 90.001445
_cell_volume                      40472.9022877

loop_
_atom_site_label
_atom_site_type_symbol
_atom_site_description
_atom_site_fract_x
_atom_site_fract_y
_atom_site_fract_z
_atom_type_partial_charge
O1    O     O_R   0.000000 0.968690 0.444560 -0.574239
O2    O     O_R   0.000000 0.968690 0.555440 -0.574603
O3    O     O_R   0.500000 0.468690 0.444560 -0.574275
O4    O     O_R   0.500000 0.468690 0.555440 -0.574150
O5    O     O_R   0.999990 0.031300 0.444600 -0.577846
O6    O     O_R   0.000010 0.031300 0.555400 -0.577963
O7    O     O_R   0.499990 0.531300 0.444600 -0.578108
O8    O     O_R   0.500010 0.531300 0.555400 -0.577896
C1    C     C_R   0.999594 0.999868 0.426156 0.946860
C2    C     C_R   0.000386 0.999871 0.573814 0.947584
C3    C     C_R   0.499611 0.499870 0.426186 0.947623
C4    C     C_R   0.500405 0.499869 0.573847 0.946076
O9    O     O_R   0.061610 0.968700 0.561610 -0.589549
O10   O     O_R   0.938390 0.968700 0.438390 -0.588437
O11   O     O_R   0.561610 0.468700 0.561610 -0.588180
O12   O     O_R   0.438390 0.468700 0.438390 -0.588897
O13   O     O_R   0.061610 0.031300 0.561650 -0.583024
O14   O     O_R   0.938390 0.031300 0.438350 -0.583556
O15   O     O_R   0.561610 0.531300 0.561650 -0.583785
O16   O     O_R   0.438390 0.531300 0.438350 -0.583127
C5    C     C_R   0.081181 0.000004 0.581193 0.879788
C6    C     C_R   0.918818 0.999999 0.418810 0.880522
C7    C     C_R   0.581183 0.500003 0.581188 0.880075
C8    C     C_R   0.418818 0.499999 0.418806 0.880561
Zn1   Zn    Zn3+2 0.000000 0.958200 0.500000 1.221502
Zn2   Zn    Zn3+2 0.500000 0.458200 0.500000 1.224157
Zn3   Zn    Zn3+2 0.000000 0.041800 0.500000 1.213275
Zn4   Zn    Zn3+2 0.500000 0.541800 0.500000 1.213240
C9    C     C_3   0.263492 0.978300 0.735379 0.130652
C10   C     C_3   0.736462 0.978391 0.264617 0.107826
C11   C     C_3   0.763502 0.479731 0.734296 0.107047
C12   C     C_3   0.236464 0.477980 0.264281 0.107775
C13   C     C_3   0.235610 0.013156 0.701871 0.128575
C14   C     C_3   0.764425 0.013205 0.298206 0.151394
C15   C     C_3   0.735604 0.514804 0.702524 0.151561
C16   C     C_3   0.264427 0.512710 0.298382 0.151355
C17   C     C_1   0.125387 0.000053 0.625110 -0.020094
C18   C     C_1   0.874611 0.000036 0.374905 -0.020435
C19   C     C_1   0.625391 0.500045 0.625100 -0.020373
C20   C     C_1   0.374611 0.500037 0.374896 -0.020363
C21   C     C_1   0.374660 0.000603 0.874078 0.019995
C22   C     C_1   0.625338 0.000750 0.125929 0.018962
C23   C     C_1   0.874663 0.500674 0.874076 0.020415
C24   C     C_1   0.125338 0.500722 0.125930 0.019239
C25   C     C_3   0.235950 0.965420 0.740780 0.275517
C26   C     C_3   0.763967 0.965476 0.259160 0.189429
C27   C     C_3   0.735973 0.465197 0.739042 0.189016
C28   C     C_3   0.263966 0.465558 0.258634 0.189327
C29   C     C_3   0.207939 0.000578 0.707126 -0.250356
C30   C     C_3   0.792058 0.000592 0.292900 -0.223651
C31   C     C_3   0.707946 0.500573 0.707133 -0.223540
C32   C     C_3   0.292059 0.500590 0.292892 -0.223682
C33   C     C_3   0.264331 0.988034 0.796355 0.127311
C34   C     C_3   0.735636 0.988158 0.203659 0.128209
C35   C     C_3   0.764346 0.486463 0.795686 0.128656
C36   C     C_3   0.235636 0.488636 0.203471 0.128239
C37   C     C_3   0.292113 0.000613 0.791247 -0.241342
C38   C     C_3   0.707885 0.000764 0.208812 -0.232514
C39   C     C_3   0.792118 0.500684 0.791227 -0.232415
C40   C     C_3   0.207886 0.500749 0.208808 -0.232551
C41   C     C_3   0.236470 0.022895 0.762924 0.122827
C42   C     C_3   0.763570 0.022970 0.237171 0.128801
C43   C     C_3   0.736476 0.521532 0.763991 0.128893
C44   C     C_3   0.263570 0.523366 0.237496 0.128875
C45   C     C_3   0.263858 0.035449 0.757397 0.136649
C46   C     C_3   0.736217 0.035553 0.242744 0.135908
C47   C     C_3   0.763851 0.535732 0.759112 0.135596
C48   C     C_3   0.236218 0.535455 0.243252 0.136081
C49   C     C_1   0.162722 0.000254 0.662160 0.253890
C50   C     C_1   0.837276 0.000237 0.337864 0.246708
C51   C     C_1   0.662726 0.500239 0.662152 0.246663
C52   C     C_1   0.337277 0.500238 0.337852 0.246618
C53   C     C_1   0.337328 0.000630 0.836536 0.266073
C54   C     C_1   0.662670 0.000800 0.163495 0.256559
C55   C     C_1   0.837331 0.500712 0.836526 0.255646
C56   C     C_1   0.162671 0.500777 0.163494 0.256670
C57   C     C_R   0.970505 0.020581 0.144566 0.192120
C58   C     C_R   0.029829 0.020306 0.855778 0.191634
C59   C     C_R   0.470008 0.520274 0.144041 0.192581
C60   C     C_R   0.529252 0.520646 0.855157 0.190891
C61   C     C_R   0.970878 0.023069 0.105647 0.311943
C62   C     C_R   0.029393 0.022851 0.894630 0.312500
C63   C     C_R   0.470496 0.522841 0.105243 0.311978
C64   C     C_R   0.528988 0.523079 0.894190 0.313914
C65   C     C_R   0.001534 0.002579 0.116268 -0.340840
C66   C     C_R   0.998461 0.002661 0.883708 -0.341223
C67   C     C_R   0.501540 0.502767 0.116300 -0.341015
C68   C     C_R   0.498464 0.502468 0.883736 -0.344476
C69   C     C_R   0.034347 0.983940 0.168749 0.181364
C70   C     C_R   0.965408 0.984389 0.830934 0.182343
C71   C     C_R   0.534669 0.484644 0.169185 0.182308
C72   C     C_R   0.465691 0.483713 0.831351 0.181118
C73   C     C_R   0.037027 0.986115 0.210686 0.259406
C74   C     C_R   0.962826 0.986593 0.789090 0.260202
C75   C     C_R   0.537189 0.486863 0.210970 0.259597
C76   C     C_R   0.462909 0.485880 0.789317 0.260130
C77   C     C_R   0.003912 0.003021 0.197117 -0.240920
C78   C     C_R   0.996225 0.003092 0.802986 -0.241467
C79   C     C_R   0.503668 0.503194 0.196922 -0.241231
C80   C     C_R   0.495884 0.502961 0.802697 -0.240555
C81   C     C_1   0.002737 0.001284 0.235905 0.236415
C82   C     C_1   0.997429 0.001321 0.764228 0.236332
C83   C     C_1   0.502421 0.501391 0.235633 0.236473
C84   C     C_1   0.496997 0.501250 0.763845 0.236479
C85   C     C_1   0.001391 0.000082 0.268012 0.266447
C86   C     C_1   0.998758 0.000094 0.732104 0.266346
C87   C     C_1   0.501084 0.500134 0.267748 0.266387
C88   C     C_1   0.498342 0.500074 0.731736 0.266369
C89   C     C_R   0.985032 0.030800 0.310708 0.191604
C90   C     C_R   0.015512 0.030626 0.689800 0.191456
C91   C     C_R   0.484187 0.530562 0.309930 0.191661
C92   C     C_R   0.514534 0.530905 0.688894 0.191695
C93   C     C_R   0.982880 0.030439 0.347750 0.196603
C94   C     C_R   0.017588 0.030255 0.652679 0.196343
C95   C     C_R   0.482165 0.530178 0.347108 0.196478
C96   C     C_R   0.516777 0.530548 0.651948 0.196857
C97   C     C_R   0.998433 0.999157 0.383566 -0.353754
C98   C     C_R   0.001540 0.999165 0.616380 -0.353691
C99   C     C_R   0.498420 0.499165 0.383590 -0.353322
C100  C     C_R   0.501518 0.499161 0.616399 -0.353639
C101  C     C_R   0.013459 0.967222 0.379005 0.170474
C102  C     C_R   0.986037 0.967418 0.620448 0.169916
C103  C     C_R   0.514082 0.467497 0.379666 0.169741
C104  C     C_R   0.486713 0.467126 0.621170 0.170104
C105  C     C_R   0.012481 0.966456 0.338622 0.332714
C106  C     C_R   0.987059 0.966622 0.660874 0.332716
C107  C     C_R   0.513019 0.466699 0.339199 0.332695
C108  C     C_R   0.487611 0.466379 0.661474 0.332232
C109  C     C_R   0.999817 0.998993 0.306405 -0.225533
C110  C     C_R   0.000274 0.998990 0.693651 -0.225640
C111  C     C_R   0.499587 0.499003 0.306221 -0.225486
C112  C     C_R   0.499962 0.499006 0.693391 -0.225371
O17   O     O_R   0.499990 0.944470 0.968740 -0.574389
O18   O     O_R   0.500010 0.944470 0.031260 -0.575276
O19   O     O_R   0.999990 0.444470 0.968740 -0.575291
O20   O     O_R   0.000010 0.444470 0.031260 -0.574336
C113  C     C_R   0.500028 0.926656 0.000030 1.043471
C114  C     C_R   0.999974 0.426658 0.999970 1.044871
O21   O     O_R   0.438380 0.999930 0.907110 -0.585397
O22   O     O_R   0.561620 0.999930 0.092890 -0.583882
O23   O     O_R   0.938380 0.499930 0.907110 -0.584315
O24   O     O_R   0.061620 0.499930 0.092890 -0.584169
O25   O     O_R   0.438390 0.999990 0.969710 -0.587226
O26   O     O_R   0.561610 0.999990 0.030290 -0.589826
O27   O     O_R   0.938390 0.499990 0.969710 -0.587842
O28   O     O_R   0.061610 0.499990 0.030290 -0.589957
C115  C     C_R   0.418859 0.000464 0.918693 0.933097
C116  C     C_R   0.581139 0.000556 0.081304 0.927480
C117  C     C_R   0.918860 0.500507 0.918695 0.935064
C118  C     C_R   0.081140 0.500533 0.081305 0.927240
Zn5   Zn    Zn3+2 0.500000 0.999910 0.958220 1.214980
Zn6   Zn    Zn3+2 0.500000 0.999910 0.041780 1.210271
Zn7   Zn    Zn3+2 0.000000 0.499910 0.958220 1.215027
Zn8   Zn    Zn3+2 0.000000 0.499910 0.041780 1.210009
O29   O     O_R   0.500000 0.055370 0.968700 -0.584579
O30   O     O_R   0.500000 0.055370 0.031300 -0.591090
O31   O     O_R   0.000000 0.555370 0.968700 -0.584610
O32   O     O_R   0.000000 0.555370 0.031300 -0.591535
C119  C     C_R   0.499794 0.073215 0.999795 0.968650
C120  C     C_R   0.999860 0.573206 0.999864 0.968705
O33   O     O_R   0.034750 0.055350 0.034810 -0.570397
O34   O     O_R   0.965250 0.055350 0.965190 -0.570905
O35   O     O_R   0.534750 0.555350 0.034810 -0.570335
O36   O     O_R   0.465250 0.555350 0.965190 -0.570134
C121  C     C_R   0.000004 0.073467 0.999959 1.009354
C122  C     C_R   0.499999 0.573466 0.000051 1.010288
O37   O     O_R   0.034780 0.999900 0.090240 -0.587363
O38   O     O_R   0.965220 0.999900 0.909760 -0.586993
O39   O     O_R   0.534780 0.499900 0.090240 -0.586529
O40   O     O_R   0.465220 0.499900 0.909760 -0.584860
O41   O     O_R   0.965220 0.999880 0.020680 -0.551606
O42   O     O_R   0.034780 0.999880 0.979320 -0.553694
O43   O     O_R   0.465220 0.499880 0.020680 -0.551059
O44   O     O_R   0.534780 0.499880 0.979320 -0.558101
C123  C     C_R   0.000315 0.000749 0.073764 1.011762
C124  C     C_R   0.999683 0.000748 0.926225 1.004447
C125  C     C_R   0.500320 0.500803 0.073780 1.014745
C126  C     C_R   0.499689 0.500700 0.926242 0.991818
Zn9   Zn    Zn3+2 0.046450 0.999900 0.046470 1.262568
Zn10  Zn    Zn3+2 0.953550 0.999900 0.953530 1.258043
Zn11  Zn    Zn3+2 0.546450 0.499900 0.046470 1.262538
Zn12  Zn    Zn3+2 0.453550 0.499900 0.953530 1.255602
O45   O     O_R   0.034810 0.944450 0.034800 -0.579176
O46   O     O_R   0.965190 0.944450 0.965200 -0.586203
O47   O     O_R   0.534810 0.444450 0.034800 -0.574231
O48   O     O_R   0.465190 0.444450 0.965200 -0.587125
C127  C     C_R   0.999996 0.926556 0.000131 0.980094
C128  C     C_R   0.500010 0.426561 0.999934 0.965564
C129  C     C_R   0.037306 0.174320 0.046226 0.317773
C130  C     C_R   0.962913 0.174251 0.952458 0.317426
C131  C     C_R   0.537079 0.674249 0.047639 0.317537
C132  C     C_R   0.462716 0.674313 0.953800 0.318720
C133  C     C_R   0.036540 0.134960 0.047325 0.172709
C134  C     C_R   0.963565 0.134860 0.951887 0.171730
C135  C     C_R   0.536425 0.634857 0.048180 0.171532
C136  C     C_R   0.463485 0.634954 0.952684 0.172847
C137  C     C_R   0.000022 0.114989 0.999746 -0.378833
C138  C     C_R   0.499986 0.614987 0.000281 -0.379713
C139  C     C_R   0.000121 0.193684 0.999261 -0.253888
C140  C     C_R   0.499888 0.693679 0.000807 -0.254294
C141  C     C_1   0.000067 0.233726 0.999234 0.292044
C142  C     C_1   0.499952 0.733720 0.000838 0.292670
C143  C     C_1   0.500024 0.767288 0.000763 0.257330
C144  C     C_1   0.999999 0.267295 0.999300 0.257081
C145  C     C_R   0.521601 0.826919 0.050761 0.249590
C146  C     C_R   0.478707 0.826606 0.950227 0.249983
C147  C     C_R   0.021421 0.326635 0.049851 0.249992
C148  C     C_R   0.978323 0.326908 0.949232 0.249621
C149  C     C_R   0.527135 0.865894 0.052227 0.296038
C150  C     C_R   0.473216 0.865644 0.948334 0.293296
C151  C     C_R   0.026896 0.365671 0.051693 0.295294
C152  C     C_R   0.972802 0.365884 0.947778 0.296328
C153  C     C_R   0.500142 0.885530 0.000181 -0.404019
C154  C     C_R   0.999874 0.385535 0.999827 -0.404185
C155  C     C_R   0.500101 0.807327 0.000580 -0.290593
C156  C     C_R   0.999923 0.307334 0.999463 -0.290721
C157  C     C_R   0.971120 0.826222 0.993596 0.211870
C158  C     C_R   0.024487 0.826388 0.998136 0.213719
C159  C     C_R   0.471219 0.326574 0.994664 0.210779
C160  C     C_R   0.520645 0.326236 0.992061 0.225928
C161  C     C_R   0.972530 0.865647 0.996478 0.194666
C162  C     C_R   0.025862 0.865786 0.000940 0.197388
C163  C     C_R   0.473749 0.365948 0.998967 0.199425
C164  C     C_R   0.523177 0.365600 0.996347 0.191308
C165  C     C_R   0.999878 0.885387 0.000005 -0.316095
C166  C     C_R   0.499837 0.385408 0.999918 -0.317584
C167  C     C_R   0.997400 0.806852 0.995054 -0.203594
C168  C     C_R   0.495105 0.306949 0.992049 -0.208049
C169  C     C_1   0.999228 0.766680 0.998427 0.217609
C170  C     C_1   0.496732 0.266758 0.995285 0.216330
C171  C     C_1   0.498642 0.233187 0.998824 0.216325
C172  C     C_1   0.000967 0.733107 0.001725 0.216113
C173  C     C_R   0.473527 0.173407 0.999087 0.210945
C174  C     C_R   0.527986 0.173707 0.005711 0.213258
C175  C     C_R   0.974719 0.673562 0.000417 0.211053
C176  C     C_R   0.029727 0.673397 0.008079 0.212621
C177  C     C_R   0.472477 0.133961 0.996955 0.188943
C178  C     C_R   0.527034 0.134277 0.003749 0.191555
C179  C     C_R   0.973061 0.634138 0.997471 0.188419
C180  C     C_R   0.028105 0.633999 0.005194 0.191704
C181  C     C_R   0.499368 0.114418 0.999445 -0.328818
C182  C     C_R   0.999878 0.614391 0.999993 -0.328583
C183  C     C_R   0.500883 0.193024 0.002779 -0.205259
C184  C     C_R   0.002683 0.692934 0.005077 -0.205314
N1    N     N_R   0.221284 0.026988 0.651151 0.285357
O49   O     O_R   0.248529 0.036597 0.653320 -0.236430
O50   O     O_R   0.181437 0.029754 0.603633 -0.294868
N2    N     N_R   0.778797 0.027006 0.348974 0.284029
O51   O     O_R   0.751583 0.036658 0.346847 -0.233458
O52   O     O_R   0.818652 0.029698 0.396493 -0.296314
N3    N     N_R   0.721259 0.530429 0.652523 0.283932
O53   O     O_R   0.748493 0.541309 0.655184 -0.233600
O54   O     O_R   0.681410 0.533536 0.605156 -0.296263
N4    N     N_R   0.278800 0.525973 0.349350 0.283972
O55   O     O_R   0.251587 0.535247 0.347364 -0.233712
O56   O     O_R   0.318656 0.528563 0.396905 -0.296952
S1    S     S_3+6 0.080842 0.966055 0.278914 0.169842
O57   O     O_2   0.070946 0.925774 0.277811 -0.151695
O58   O     O_2   0.119728 0.967196 0.294458 -0.153447
O59   O     O_3   0.091014 0.989101 0.329333 -0.478949
H1    H     H_    0.097688 0.015135 0.328260 0.371885
S2    S     S_3+6 0.918699 0.967135 0.720496 0.170405
O60   O     O_2   0.927908 0.926725 0.720902 -0.151190
O61   O     O_2   0.879813 0.968804 0.704921 -0.153060
O62   O     O_3   0.908966 0.990324 0.670519 -0.479050
H2    H     H_    0.902725 0.016443 0.672033 0.371918
S3    S     S_3+6 0.581425 0.467660 0.279711 0.170554
O63   O     O_2   0.572501 0.427190 0.279558 -0.150310
O64   O     O_2   0.620323 0.469578 0.295334 -0.153037
O65   O     O_3   0.590944 0.490885 0.329496 -0.479384
H3    H     H_    0.597014 0.517043 0.327831 0.371877
S4    S     S_3+6 0.419266 0.465456 0.721306 0.169691
O66   O     O_2   0.429560 0.425256 0.722813 -0.151506
O67   O     O_2   0.380380 0.466279 0.705771 -0.153935
O68   O     O_3   0.408839 0.488405 0.670631 -0.478813
H4    H     H_    0.401925 0.514390 0.671458 0.371897
N5    N     N_R   0.971278 0.063370 0.276438 0.260994
O69   O     O_R   0.997092 0.080931 0.280365 -0.276748
O70   O     O_R   0.933570 0.076500 0.243129 -0.202368
N6    N     N_R   0.029797 0.063018 0.724604 0.261001
O71   O     O_R   0.004279 0.080903 0.720989 -0.276557
O72   O     O_R   0.067702 0.075679 0.758083 -0.202683
N7    N     N_R   0.469685 0.562885 0.274929 0.260979
O73   O     O_R   0.495081 0.580918 0.278426 -0.276825
O74   O     O_R   0.431704 0.575344 0.241398 -0.202953
N8    N     N_R   0.527988 0.563569 0.722882 0.260991
O75   O     O_R   0.502013 0.580929 0.718798 -0.276896
O76   O     O_R   0.565587 0.576965 0.756116 -0.202158
N9    N     N_R   0.964811 0.061988 0.348669 0.261036
O77   O     O_R   0.980376 0.095487 0.359892 -0.242231
O78   O     O_R   0.931042 0.057621 0.334560 -0.287992
N10   N     N_R   0.036089 0.061589 0.652169 0.261031
O79   O     O_R   0.021113 0.095285 0.641651 -0.241771
O80   O     O_R   0.069638 0.056794 0.665858 -0.289409
N11   N     N_R   0.463508 0.561419 0.347493 0.261015
O81   O     O_R   0.478250 0.595195 0.357735 -0.241748
O82   O     O_R   0.430062 0.556445 0.334000 -0.289777
N12   N     N_R   0.534636 0.562214 0.650852 0.261020
O83   O     O_R   0.518753 0.595600 0.639238 -0.242545
O84   O     O_R   0.568542 0.558086 0.665235 -0.287072
N13   N     N_R   0.031989 0.936392 0.417571 0.258638
O85   O     O_R   0.072520 0.934532 0.462237 -0.268663
O86   O     O_R   0.008568 0.909379 0.406829 -0.253739
N14   N     N_R   0.966947 0.936865 0.581305 0.258658
O87   O     O_R   0.926398 0.935658 0.536509 -0.268317
O88   O     O_R   0.989867 0.909516 0.591531 -0.254663
N15   N     N_R   0.533383 0.437046 0.419007 0.258363
O89   O     O_R   0.573940 0.436070 0.463809 -0.268640
O90   O     O_R   0.510651 0.409576 0.408984 -0.252138
N16   N     N_R   0.468507 0.436148 0.582914 0.258872
O91   O     O_R   0.427997 0.433939 0.538270 -0.267375
O92   O     O_R   0.492207 0.409318 0.593969 -0.252687
S5    S     S_3+6 0.028178 0.925162 0.329620 0.161948
O93   O     O_2   0.073797 0.928688 0.365816 -0.136659
O94   O     O_2   0.022106 0.890429 0.346808 -0.166812
O95   O     O_3   0.999876 0.920205 0.261524 -0.524020
H5    H     H_    0.008083 0.895396 0.259589 0.424572
S6    S     S_3+6 0.970713 0.925525 0.669207 0.161412
O96   O     O_2   0.925147 0.929608 0.633043 -0.135953
O97   O     O_2   0.976259 0.890728 0.651475 -0.167692
O98   O     O_3   0.998914 0.920213 0.737210 -0.525034
H6    H     H_    0.990320 0.895503 0.738741 0.424235
S7    S     S_3+6 0.529591 0.425686 0.331079 0.162411
O99   O     O_2   0.575145 0.429966 0.367266 -0.136169
O100  O     O_2   0.524199 0.390859 0.348948 -0.166118
O101  O     O_3   0.501452 0.420267 0.263116 -0.523955
H7    H     H_    0.510197 0.395606 0.261723 0.424771
S8    S     S_3+6 0.472220 0.424985 0.670778 0.162538
O102  O     O_2   0.426586 0.428244 0.634598 -0.136430
O103  O     O_2   0.478517 0.390287 0.653810 -0.165677
O104  O     O_3   0.500588 0.420194 0.738921 -0.523544
H8    H     H_    0.492565 0.395337 0.741045 0.425146
S9    S     S_3+6 0.084503 0.198983 0.105413 0.149734
O105  O     O_2   0.087572 0.235402 0.087364 -0.257421
O106  O     O_2   0.084073 0.206883 0.146350 -0.161483
O107  O     O_3   0.127385 0.173505 0.138467 -0.434727
H9    H     H_    0.150869 0.186695 0.174799 0.416084
S10   S     S_3+6 0.915921 0.198944 0.892888 0.149275
O108  O     O_2   0.912357 0.235003 0.910990 -0.260611
O109  O     O_2   0.917429 0.207550 0.853205 -0.159224
O110  O     O_3   0.872736 0.173353 0.858148 -0.433405
H10   H     H_    0.849276 0.187986 0.823561 0.416044
S11   S     S_3+6 0.584042 0.698948 0.107278 0.149059
O111  O     O_2   0.587666 0.735005 0.089244 -0.260902
O112  O     O_2   0.582423 0.707563 0.146844 -0.159515
O113  O     O_3   0.627252 0.673364 0.142139 -0.433426
H11   H     H_    0.650682 0.688008 0.176741 0.415899
S12   S     S_3+6 0.415525 0.698967 0.894597 0.147426
O114  O     O_2   0.412476 0.735392 0.912663 -0.263628
O115  O     O_2   0.415930 0.706850 0.853634 -0.158235
O116  O     O_3   0.372643 0.673486 0.861536 -0.437449
H12   H     H_    0.348884 0.687829 0.826782 0.414539
N17   N     N_R   0.072264 0.115408 0.098078 0.268267
O117  O     O_R   0.076611 0.111391 0.138497 -0.271494
O118  O     O_R   0.100491 0.101735 0.104047 -0.263510
N18   N     N_R   0.927762 0.115128 0.901464 0.269931
O119  O     O_R   0.923343 0.110434 0.861059 -0.270721
O120  O     O_R   0.899568 0.101906 0.895830 -0.262619
N19   N     N_R   0.572208 0.615121 0.098605 0.269807
O121  O     O_R   0.576557 0.610368 0.138937 -0.271295
O122  O     O_R   0.600435 0.601926 0.104290 -0.262340
N20   N     N_R   0.427792 0.615402 0.901890 0.269497
O123  O     O_R   0.423535 0.611380 0.861553 -0.269995
O124  O     O_R   0.399515 0.601715 0.895814 -0.264267
S13   S     S_3+6 0.539219 0.803013 0.109676 0.173079
O125  O     O_2   0.582264 0.787391 0.146269 -0.103541
O126  O     O_2   0.540978 0.829322 0.144372 -0.165112
O127  O     O_3   0.506852 0.767336 0.087929 -0.489647
H13   H     H_    0.479085 0.779231 0.063664 0.371226
S14   S     S_3+6 0.461184 0.802211 0.891654 0.172822
O128  O     O_2   0.418075 0.786754 0.855056 -0.104336
O129  O     O_2   0.459623 0.828103 0.856825 -0.164871
O130  O     O_3   0.493494 0.766334 0.913884 -0.490200
H14   H     H_    0.521309 0.778124 0.938138 0.372179
S15   S     S_3+6 0.039080 0.302278 0.108532 0.173381
O131  O     O_2   0.082170 0.286828 0.145013 -0.103320
O132  O     O_2   0.040746 0.328201 0.143441 -0.164372
O133  O     O_3   0.006807 0.266402 0.086447 -0.490202
H15   H     H_    0.979005 0.278188 0.062274 0.372185
S16   S     S_3+6 0.960569 0.302980 0.890234 0.173855
O134  O     O_2   0.917535 0.287377 0.853760 -0.103360
O135  O     O_2   0.958730 0.329272 0.855450 -0.164223
O136  O     O_3   0.992881 0.267287 0.911864 -0.489084
H16   H     H_    0.020642 0.279172 0.936042 0.371940
S17   S     S_3+6 0.570062 0.889374 0.117831 0.134440
O137  O     O_2   0.587115 0.919070 0.109348 -0.330550
O138  O     O_2   0.555065 0.907508 0.138290 -0.196734
O139  O     O_3   0.609465 0.859635 0.167600 -0.428019
H17   H     H_    0.630764 0.875182 0.202099 0.420686
S18   S     S_3+6 0.430493 0.888937 0.882435 0.139442
O140  O     O_2   0.413282 0.918940 0.890320 -0.322720
O141  O     O_2   0.445815 0.906661 0.862213 -0.198669
O142  O     O_3   0.391104 0.859152 0.832746 -0.421276
H18   H     H_    0.370038 0.874548 0.798014 0.424686
S19   S     S_3+6 0.069714 0.388987 0.117529 0.134752
O143  O     O_2   0.086822 0.418965 0.109454 -0.329926
O144  O     O_2   0.054545 0.406748 0.137941 -0.196507
O145  O     O_3   0.109138 0.359213 0.167148 -0.427577
H19   H     H_    0.130309 0.374643 0.201821 0.421119
S20   S     S_3+6 0.929821 0.389359 0.882208 0.133636
O146  O     O_2   0.912839 0.419047 0.890811 -0.333180
O147  O     O_2   0.944728 0.407504 0.861636 -0.195785
O148  O     O_3   0.890382 0.359627 0.832468 -0.428273
H20   H     H_    0.868883 0.375259 0.798143 0.418754
N21   N     N_R   0.943867 0.805813 0.990844 0.260438
O149  O     O_R   0.944750 0.812132 0.027653 -0.215525
O150  O     O_R   0.917475 0.781370 0.950772 -0.257561
N22   N     N_R   0.049714 0.806317 0.996856 0.254570
O151  O     O_R   0.089614 0.813292 0.034104 -0.208132
O152  O     O_R   0.032800 0.780950 0.958268 -0.273177
N23   N     N_R   0.445357 0.306437 0.994686 0.260305
O153  O     O_R   0.448968 0.312417 0.034173 -0.217104
O154  O     O_R   0.417516 0.282580 0.954509 -0.254948
N24   N     N_R   0.544327 0.305929 0.988255 0.261676
O155  O     O_R   0.583522 0.314083 0.021770 -0.206064
O156  O     O_R   0.526497 0.279793 0.950306 -0.271147
N25   N     N_R   0.277156 0.953937 0.718690 0.282849
O157  O     O_R   0.249499 0.938134 0.669082 -0.222283
O158  O     O_R   0.316850 0.948029 0.752879 -0.300694
N26   N     N_R   0.722745 0.954119 0.281305 0.254177
O159  O     O_R   0.750365 0.938332 0.330918 -0.231124
O160  O     O_R   0.683038 0.948310 0.247131 -0.319865
N27   N     N_R   0.777178 0.456995 0.716398 0.254125
O161  O     O_R   0.749533 0.442386 0.665972 -0.230452
O162  O     O_R   0.816872 0.451339 0.750347 -0.318804
N28   N     N_R   0.222749 0.453259 0.280612 0.254251
O163  O     O_R   0.250370 0.437148 0.329987 -0.231449
O164  O     O_R   0.183042 0.447373 0.246363 -0.319792
N29   N     N_R   0.946329 0.885527 0.996105 0.256275
O165  O     O_R   0.906141 0.879229 0.956440 -0.234301
O166  O     O_R   0.962738 0.909256 0.036257 -0.333648
N30   N     N_R   0.051339 0.885980 0.000429 0.250001
O167  O     O_R   0.090955 0.891260 0.047406 -0.238248
O168  O     O_R   0.033836 0.903520 0.954836 -0.327598
N31   N     N_R   0.449743 0.386105 0.002262 0.255590
O169  O     O_R   0.409619 0.380263 0.964962 -0.236081
O170  O     O_R   0.468051 0.409907 0.043107 -0.338531
N32   N     N_R   0.547012 0.385555 0.992774 0.234647
O171  O     O_R   0.583450 0.399528 0.038253 -0.257160
O172  O     O_R   0.535156 0.385040 0.945907 -0.272530
N33   N     N_R   0.445968 0.193575 0.995935 0.259483
O173  O     O_R   0.405831 0.186951 0.955062 -0.206667
O174  O     O_R   0.461127 0.217958 0.034816 -0.259084
N34   N     N_R   0.557253 0.194043 0.012254 0.256821
O175  O     O_R   0.560186 0.186954 0.979548 -0.206521
O176  O     O_R   0.581146 0.219793 0.051067 -0.270686
N35   N     N_R   0.947124 0.693968 0.997018 0.260105
O177  O     O_R   0.906929 0.687654 0.955793 -0.205083
O178  O     O_R   0.962259 0.718403 0.035836 -0.261590
N36   N     N_R   0.059572 0.693463 0.015563 0.256759
O179  O     O_R   0.062959 0.686358 0.983351 -0.208163
O180  O     O_R   0.083644 0.718891 0.054879 -0.267142
N37   N     N_R   0.443870 0.113865 0.991855 0.258188
O181  O     O_R   0.443349 0.120171 0.027252 -0.237030
O182  O     O_R   0.417267 0.090151 0.950621 -0.333166
N38   N     N_R   0.556426 0.114354 0.010465 0.252849
O183  O     O_R   0.548318 0.108854 0.966962 -0.243424
O184  O     O_R   0.588170 0.097340 0.057930 -0.320530
N39   N     N_R   0.943970 0.614266 0.991605 0.258219
O185  O     O_R   0.943141 0.620515 0.026696 -0.237215
O186  O     O_R   0.917368 0.590697 0.950134 -0.332131
N40   N     N_R   0.057394 0.613811 0.011940 0.252609
O187  O     O_R   0.049347 0.608247 0.968497 -0.244439
O188  O     O_R   0.089053 0.596768 0.059424 -0.321246
N41   N     N_R   0.277507 0.074010 0.764860 0.284492
O189  O     O_R   0.249789 0.100509 0.732856 -0.229272
O190  O     O_R   0.317210 0.082202 0.803384 -0.277035
N42   N     N_R   0.722657 0.074129 0.235412 0.282528
O191  O     O_R   0.750434 0.100589 0.267445 -0.231299
O192  O     O_R   0.682974 0.082363 0.197040 -0.274123
N43   N     N_R   0.777486 0.574564 0.768469 0.282724
O193  O     O_R   0.749759 0.601223 0.737794 -0.229856
O194  O     O_R   0.817185 0.582832 0.807350 -0.273051
N44   N     N_R   0.222660 0.573933 0.236491 0.282563
O195  O     O_R   0.250438 0.600331 0.268909 -0.231422
O196  O     O_R   0.182978 0.582140 0.198252 -0.273932
N45   N     N_R   0.223132 0.047530 0.779813 0.285019
O197  O     O_R   0.251064 0.064545 0.828472 -0.217327
O198  O     O_R   0.183498 0.052645 0.746653 -0.268300
N46   N     N_R   0.776946 0.047590 0.220324 0.282974
O199  O     O_R   0.749041 0.064652 0.171709 -0.217953
O200  O     O_R   0.816588 0.052645 0.253477 -0.269725
N47   N     N_R   0.723143 0.544614 0.782078 0.283000
O201  O     O_R   0.751079 0.560590 0.831554 -0.217814
O202  O     O_R   0.683511 0.549377 0.749173 -0.270537
N48   N     N_R   0.276948 0.548432 0.221016 0.282942
O203  O     O_R   0.249044 0.565797 0.172657 -0.217940
O204  O     O_R   0.316589 0.553582 0.254240 -0.268778
N49   N     N_R   0.278859 0.974521 0.847359 0.286770
O205  O     O_R   0.251817 0.966454 0.846093 -0.224188
O206  O     O_R   0.318721 0.970840 0.894397 -0.288529
N50   N     N_R   0.721089 0.974663 0.152633 0.284246
O207  O     O_R   0.748132 0.966403 0.153961 -0.217704
O208  O     O_R   0.681220 0.971091 0.105559 -0.292404
N51   N     N_R   0.778874 0.471139 0.845967 0.284138
O209  O     O_R   0.751821 0.461617 0.844187 -0.218279
O210  O     O_R   0.818738 0.467167 0.892833 -0.292913
N52   N     N_R   0.221087 0.475682 0.152249 0.284236
O211  O     O_R   0.248129 0.467807 0.153457 -0.217591
O212  O     O_R   0.181217 0.472219 0.105121 -0.292542
S21   S     S_3+6 0.217899 0.918651 0.730199 0.149694
O213  O     O_2   0.192448 0.917336 0.739899 -0.207222
O214  O     O_2   0.191159 0.906559 0.670652 -0.195891
O215  O     O_3   0.259490 0.889893 0.776138 -0.458254
H21   H     H_    0.247364 0.864576 0.767854 0.412698
S22   S     S_3+6 0.781941 0.918700 0.269353 0.173972
O216  O     O_2   0.809247 0.918098 0.262640 -0.163312
O217  O     O_2   0.806976 0.905402 0.327778 -0.182054
O218  O     O_3   0.740673 0.890070 0.220955 -0.420889
H22   H     H_    0.723135 0.893147 0.225939 0.377781
S23   S     S_3+6 0.717921 0.418099 0.726414 0.174505
O219  O     O_2   0.690603 0.415806 0.733035 -0.162674
O220  O     O_2   0.692877 0.406508 0.667349 -0.180974
O221  O     O_3   0.759142 0.389123 0.773331 -0.420605
H23   H     H_    0.776703 0.393328 0.768566 0.377214
S24   S     S_3+6 0.281942 0.418907 0.268137 0.174043
O222  O     O_2   0.309249 0.418816 0.261420 -0.163317
O223  O     O_2   0.306976 0.405117 0.326361 -0.182254
O224  O     O_3   0.240675 0.390378 0.219316 -0.420717
H24   H     H_    0.223140 0.393112 0.224348 0.377987
N53   N     N_R   0.935571 0.034977 0.130231 0.252291
O225  O     O_R   0.941121 0.061084 0.160865 -0.249678
O226  O     O_R   0.897976 0.022200 0.085986 -0.228677
N54   N     N_R   0.065009 0.034302 0.870415 0.252299
O227  O     O_R   0.059864 0.060376 0.840092 -0.249785
O228  O     O_R   0.102435 0.021228 0.914671 -0.229345
N55   N     N_R   0.434725 0.534115 0.129262 0.252435
O229  O     O_R   0.439709 0.560163 0.159480 -0.250296
O230  O     O_R   0.397363 0.520936 0.084972 -0.228891
N56   N     N_R   0.564052 0.535210 0.869293 0.252198
O231  O     O_R   0.558307 0.561366 0.838552 -0.249463
O232  O     O_R   0.601714 0.522516 0.913434 -0.229282
S25   S     S_3+6 0.935949 0.055004 0.047619 0.148062
O233  O     O_2   0.899763 0.033537 0.994594 -0.180763
O234  O     O_2   0.919329 0.083904 0.057738 -0.163346
O235  O     O_3   0.961649 0.077708 0.039309 -0.574738
H25   H     H_    0.941736 0.097051 0.010135 0.403096
S26   S     S_3+6 0.064588 0.054568 0.952917 0.148560
O236  O     O_2   0.100599 0.032880 0.005772 -0.179993
O237  O     O_2   0.081443 0.083337 0.943011 -0.163782
O238  O     O_3   0.039082 0.077465 0.961412 -0.574088
H26   H     H_    0.059089 0.096790 0.990560 0.403496
S27   S     S_3+6 0.435221 0.554466 0.046862 0.147227
O239  O     O_2   0.399273 0.532687 0.994066 -0.181119
O240  O     O_2   0.418282 0.583197 0.056681 -0.164913
O241  O     O_3   0.460672 0.577420 0.038314 -0.575165
H27   H     H_    0.440604 0.596682 0.009088 0.403502
S28   S     S_3+6 0.563886 0.555069 0.952164 0.148852
O242  O     O_2   0.600125 0.533655 0.005206 -0.181164
O243  O     O_2   0.580431 0.584008 0.941973 -0.163345
O244  O     O_3   0.538184 0.577721 0.960504 -0.572286
H28   H     H_    0.558106 0.597042 0.989729 0.402610
N57   N     N_R   0.063712 0.961043 0.178306 0.255155
O245  O     O_R   0.097521 0.975823 0.198310 -0.253765
O246  O     O_R   0.057062 0.925143 0.168202 -0.270320
N58   N     N_R   0.935623 0.961879 0.820901 0.254240
O247  O     O_R   0.902128 0.977150 0.801289 -0.254530
O248  O     O_R   0.941027 0.925737 0.828804 -0.268714
N59   N     N_R   0.564620 0.462280 0.179423 0.255456
O249  O     O_R   0.597986 0.477745 0.198865 -0.253662
O250  O     O_R   0.559764 0.426046 0.172541 -0.261602
N60   N     N_R   0.436484 0.460707 0.822011 0.254518
O251  O     O_R   0.402437 0.475288 0.801507 -0.253889
O252  O     O_R   0.444594 0.425297 0.835583 -0.283727

loop_
_geom_bond_atom_site_label_1
_geom_bond_atom_site_label_2
_geom_bond_distance
_ccdc_geom_bond_type
C79   C83   1.428016 S    
N39   O185  1.301158 A    
O17   C113  1.282554 A    
C67   C71   1.418010 A    
N23   O154  1.301062 A    
N57   O245  1.301454 A    
C63   C67   1.419637 A    
N51   O209  1.300162 A    
O17   Zn5   2.008234 S    
N46   O199  1.300209 A    
C60   N56   1.436202 S    
C163  C166  1.411936 A    
C133  N17   1.433349 S    
N13   O85   1.300615 A    
N58   O247  1.301475 A    
O40   C126  1.279596 A    
C102  N14   1.433051 S    
C143  C155  1.424769 S    
N26   O159  1.300128 A    
S28   O242  1.502909 D    
Zn8   O32   2.008603 S    
O26   Zn5   1.995114 S    
C17   C49   1.190552 T    
C75   C79   1.407257 A    
C134  C137  1.416129 A    
C93   N9    1.435443 S    
C6    C18   1.409671 S    
C9    C13   1.537831 S    
C80   C84   1.427944 S    
C63   S27   1.785810 S    
N8    O76   1.301148 A    
N56   O231  1.300473 A    
C11   C39   1.544816 S    
C173  C177  1.404544 A    
N4    O56   1.300140 A    
C34   N50   1.457666 S    
O28   C118  1.277919 A    
C173  C183  1.406517 A    
C26   S22   1.783225 S    
Zn6   O30   2.008603 S    
S4    O66   1.501598 D    
C158  C162  1.403526 A    
O101  H7    0.990464 S    
Zn5   O29   2.008557 S    
O4    C4    1.281919 A    
O22   Zn6   2.004562 S    
N5    O70   1.301148 A    
C135  C138  1.416091 A    
S15   O132  1.502866 D    
C29   C49   1.441889 S    
N1    O49   1.300202 A    
C44   N48   1.457075 S    
C31   C51   1.441954 S    
S2    O62   1.681657 S    
O127  H13   0.990598 S    
N17   O118  1.301718 A    
N2    O52   1.300140 A    
C130  C139  1.411677 A    
C23   C55   1.190204 T    
C41   N45   1.457082 S    
C142  C143  1.194488 T    
C176  N36   1.438688 S    
S7    O99   1.502011 D    
C66   C70   1.417870 A    
C42   C46   1.537992 S    
O107  H9    0.991324 S    
S18   O141  1.503124 D    
O16   Zn4   1.999540 S    
S22   O216  1.502208 D    
O38   Zn10  2.016921 S    
C95   N11   1.435550 S    
C40   C56   1.441602 S    
C24   C118  1.409151 S    
O7    Zn4   2.011048 S    
C129  S9    1.789395 S    
O95   H5    0.990464 S    
O15   C7    1.276665 A    
N35   O178  1.301064 A    
C32   C52   1.441917 S    
C67   C125  1.475097 S    
O34   C121  1.281905 A    
C58   C62   1.404776 A    
C47   N43   1.457068 S    
C148  C152  1.405800 A    
N53   O225  1.300467 A    
N60   O251  1.301441 A    
C69   N57   1.433790 S    
C131  C140  1.411689 A    
C73   S1    1.786289 S    
O42   Zn9   2.009563 S    
S8    O103  1.502500 D    
N30   O167  1.300680 A    
C74   S2    1.786366 S    
N22   O152  1.301260 A    
O43   Zn12  2.009563 S    
O31   C120  1.284556 A    
S25   O234  1.503465 D    
C15   C31   1.543900 S    
O8    Zn4   2.011094 S    
N12   O83   1.301133 A    
O136  H16   0.990598 S    
C11   N27   1.457824 S    
O215  H21   0.990476 S    
S9    O107  1.681043 S    
C59   C79   1.404962 A    
C86   C110  1.427872 S    
S6    O98   1.682273 S    
O3    Zn2   2.012792 S    
C64   C68   1.419306 A    
C162  N30   1.433067 S    
S24   O222  1.502208 D    
O47   C128  1.279118 A    
C85   C109  1.427861 S    
S15   O131  1.501077 D    
C16   C48   1.538171 S    
C99   C103  1.419817 A    
O142  H18   0.990563 S    
C94   N10   1.435517 S    
N10   O80   1.301335 A    
C30   C50   1.441926 S    
N45   O198  1.300157 A    
N21   O149  1.301190 A    
C145  S13   1.786105 S    
N44   O195  1.300199 A    
S28   O243  1.503459 D    
S4    O68   1.681652 S    
C151  S19   1.788672 S    
C147  C156  1.409499 A    
N40   O188  1.300749 A    
C132  C140  1.411590 A    
N48   O203  1.300211 A    
C107  C111  1.408572 A    
O3    C3    1.281688 A    
C105  C109  1.408392 A    
C75   S3    1.786399 S    
C28   C32   1.549065 S    
C140  C142  1.424802 S    
O98   H6    0.990462 S    
S1    O58   1.502319 D    
N19   O121  1.300580 A    
C106  C110  1.408509 A    
C83   C87   1.195543 T    
C120  C182  1.465520 S    
O43   C125  1.284015 A    
S13   O125  1.501095 D    
S22   O217  1.502492 D    
O33   C121  1.281794 A    
Zn10  O46   2.007755 S    
S16   O134  1.501091 D    
N31   O170  1.301216 A    
C48   N44   1.457034 S    
C27   S23   1.783225 S    
C161  C165  1.411957 A    
O35   Zn11  2.008115 S    
S3    O64   1.502356 D    
C35   C39   1.544930 S    
O116  H12   0.990560 S    
C14   C46   1.538171 S    
C21   C53   1.190228 T    
S14   O128  1.501076 D    
N11   O82   1.301339 A    
N29   O165  1.301154 A    
O5    C1    1.290497 A    
N39   O186  1.301224 A    
C12   C16   1.537923 S    
C169  C172  1.197210 T    
C128  C166  1.464394 S    
N43   O194  1.300160 A    
C174  C178  1.403853 A    
S3    O65   1.681659 S    
S5    O94   1.502496 D    
N20   O123  1.300560 A    
C72   C76   1.404191 A    
S1    O57   1.501598 D    
C98   C102  1.419962 A    
C37   C53   1.441607 S    
C24   C56   1.190244 T    
S12   O114  1.502853 D    
S6    O97   1.502489 D    
C39   C47   1.543945 S    
O5    Zn3   2.011048 S    
C33   C41   1.537341 S    
N47   O201  1.300207 A    
O139  H17   0.990562 S    
C35   C43   1.537155 S    
N52   O212  1.300108 A    
C36   C44   1.537143 S    
C57   C77   1.405053 A    
C107  S7    1.787769 S    
C159  C168  1.406700 A    
O33   Zn9   2.008115 S    
C90   C94   1.400818 A    
O34   Zn10  2.008033 S    
C16   C32   1.543870 S    
C129  C139  1.411572 A    
N14   O88   1.301623 A    
S23   O221  1.680976 S    
C25   C33   1.544764 S    
N5    O69   1.301117 A    
O40   Zn12  2.016921 S    
C147  C151  1.406121 A    
C180  C182  1.410405 A    
C72   N60   1.433713 S    
S24   O224  1.680953 S    
O39   C125  1.279640 A    
N25   O158  1.300194 A    
N41   O189  1.300202 A    
C10   C14   1.537932 S    
O29   C119  1.284682 A    
O13   Zn3   1.999619 S    
N6    O71   1.301110 A    
S20   O147  1.503103 D    
N19   O122  1.301748 A    
S13   O127  1.682080 S    
C134  N18   1.433079 S    
C132  S12   1.789440 S    
C175  N35   1.436906 S    
C162  C165  1.410391 A    
S12   O116  1.680945 S    
C16   N4    1.456941 S    
C96   C100  1.414003 A    
N34   O175  1.300671 A    
S7    O100  1.502490 D    
C147  S15   1.786191 S    
C101  C105  1.406042 A    
O238  H26   0.990475 S    
C41   C45   1.538005 S    
N53   O226  1.301121 A    
C146  C150  1.406179 A    
C103  C107  1.406024 A    
S27   O239  1.502914 D    
C15   C47   1.538167 S    
O8    C4    1.290622 A    
N18   O120  1.301752 A    
N9    O77   1.301135 A    
C130  S10   1.789553 S    
S27   O241  1.679406 S    
O24   Zn8   2.004562 S    
C104  N16   1.432998 S    
O15   Zn4   1.999619 S    
N49   O206  1.300110 A    
C40   C48   1.543941 S    
C146  S14   1.786212 S    
S16   O136  1.682078 S    
C93   C97   1.413912 A    
O27   Zn8   1.995118 S    
C91   C111  1.405322 A    
C167  C169  1.431697 S    
N54   O228  1.301123 A    
S10   O109  1.502433 D    
S11   O112  1.502429 D    
C89   C109  1.405216 A    
S23   O219  1.502202 D    
C73   C77   1.407390 A    
C92   C96   1.400827 A    
C38   C54   1.441598 S    
O37   C123  1.279562 A    
S15   O133  1.682083 S    
O38   C124  1.279643 A    
C19   C51   1.190591 T    
C20   C52   1.190568 T    
O14   C6    1.276649 A    
C91   N7    1.436528 S    
C10   C26   1.545243 S    
S8    O102  1.502002 D    
N46   O200  1.300156 A    
C89   N5    1.436587 S    
S3    O63   1.501596 D    
C68   C126  1.474066 S    
S2    O60   1.501596 D    
C150  C153  1.417636 A    
C144  C156  1.424789 S    
C45   N41   1.457077 S    
O46   C127  1.279470 A    
C177  C181  1.412247 A    
S1    O59   1.681652 S    
O10   C6    1.276716 A    
N26   O160  1.300188 A    
O221  H23   0.990456 S    
O133  H15   0.990598 S    
C71   N59   1.433890 S    
O59   H1    0.990590 S    
O23   Zn7   2.004566 S    
C76   C80   1.407497 A    
O21   Zn5   2.004566 S    
N41   O190  1.300168 A    
N56   O232  1.301119 A    
C69   C73   1.404239 A    
C131  C135  1.402526 A    
C88   C112  1.427847 S    
C71   C75   1.404374 A    
C9    N25   1.457813 S    
C151  C154  1.417539 A    
N42   O191  1.300202 A    
C160  N24   1.439339 S    
C148  S16   1.786079 S    
S21   O215  1.680805 S    
N7    O73   1.301110 A    
S17   O138  1.503121 D    
C61   C65   1.419389 A    
O42   C124  1.283854 A    
C58   N54   1.436293 S    
C146  C155  1.409484 A    
N13   O86   1.301634 A    
O37   Zn9   2.016921 S    
C18   C50   1.190573 T    
N57   O246  1.300493 A    
N36   O180  1.301265 A    
O68   H4    0.990593 S    
C60   C64   1.404725 A    
C22   C116  1.409161 S    
O18   C113  1.282391 A    
C168  C170  1.432224 S    
N17   O117  1.300566 A    
N3    O53   1.300200 A    
N27   O162  1.300204 A    
C178  C181  1.410561 A    
S26   O236  1.502914 D    
O244  H28   0.990501 S    
S9    O105  1.502776 D    
C132  C136  1.402371 A    
S20   O148  1.680535 S    
O218  H22   0.990449 S    
C127  C165  1.464947 S    
S19   O145  1.680531 S    
N33   O174  1.301014 A    
N28   O163  1.300130 A    
C74   C78   1.407301 A    
C13   C29   1.543813 S    
C62   S26   1.785827 S    
N50   O207  1.300169 A    
C160  C168  1.407581 A    
O241  H27   0.990473 S    
Zn12  O48   2.007755 S    
C179  N39   1.437125 S    
N37   O182  1.301207 A    
C12   N28   1.457819 S    
N32   O171  1.300738 A    
C57   N53   1.436234 S    
N60   O252  1.300512 A    
C159  N23   1.436771 S    
O44   C126  1.283450 A    
O6    Zn3   2.011094 S    
O26   C116  1.277915 A    
C104  C108  1.406055 A    
S22   O218  1.680963 S    
N30   O168  1.300789 A    
C11   C27   1.545234 S    
S25   O233  1.502910 D    
O32   C120  1.284262 A    
C12   C28   1.545234 S    
N12   O84   1.301330 A    
S8    O104  1.682282 S    
N24   O156  1.301280 A    
C70   C74   1.404330 A    
C90   N6    1.436549 S    
S9    O106  1.502581 D    
O12   Zn2   1.999638 S    
C22   C54   1.190240 T    
C29   C41   1.543694 S    
O23   C117  1.278926 A    
N15   O89   1.300607 A    
O35   C122  1.281926 A    
O1    C1    1.281859 A    
C157  C161  1.404555 A    
S24   O223  1.502487 D    
C32   C44   1.543592 S    
N11   O81   1.301133 A    
C33   C37   1.544920 S    
N40   O187  1.300684 A    
S20   O146  1.501358 D    
C27   C31   1.549092 S    
C34   C42   1.537146 S    
C35   N51   1.457653 S    
C62   C66   1.419580 A    
N35   O177  1.301197 A    
C95   C99   1.413642 A    
O7    C3    1.290204 A    
N43   O193  1.300198 A    
N4    O55   1.300201 A    
C121  C137  1.477559 S    
O20   Zn8   2.008187 S    
N44   O196  1.300136 A    
C10   N26   1.457824 S    
O18   Zn6   2.008187 S    
C26   C34   1.544721 S    
C15   N3    1.456930 S    
C31   C43   1.543609 S    
C122  C138  1.477497 S    
C92   C112  1.405196 A    
N48   O204  1.300158 A    
O39   Zn11  2.016921 S    
C157  C167  1.406837 A    
C61   S25   1.785807 S    
C136  C138  1.416029 A    
O25   Zn6   1.995118 S    
N47   O202  1.300158 A    
C152  C154  1.417526 A    
N1    O50   1.300142 A    
N24   O155  1.301153 A    
C11   C15   1.537939 S    
C12   C40   1.544866 S    
O48   C128  1.279840 A    
S10   O110  1.680967 S    
C44   C48   1.537991 S    
C158  C167  1.407200 A    
C84   C88   1.195480 T    
N2    O51   1.300201 A    
S16   O135  1.502862 D    
S17   O137  1.501366 D    
N55   O230  1.301125 A    
N16   O91   1.300622 A    
C114  C154  1.463299 S    
C65   C69   1.417536 A    
C172  C184  1.431707 S    
C177  N37   1.436988 S    
C37   C45   1.544005 S    
O6    C2    1.290302 A    
S14   O129  1.502863 D    
S19   O143  1.501414 D    
S18   O140  1.501416 D    
S7    O101  1.682274 S    
O24   C118  1.278942 A    
S13   O126  1.502856 D    
C78   C82   1.427989 S    
C59   C63   1.404796 A    
N58   O248  1.300497 A    
S5    O93   1.502009 D    
O28   Zn7   1.995114 S    
N20   O124  1.301715 A    
C90   C110  1.405310 A    
O2    Zn1   2.012739 S    
O10   Zn1   1.999638 S    
Zn7   O31   2.008557 S    
C170  C171  1.197521 T    
C149  C153  1.417567 A    
C175  C184  1.406795 A    
S14   O130  1.682085 S    
O36   Zn12  2.008033 S    
C152  S20   1.788609 S    
C159  C163  1.404744 A    
C36   C40   1.544980 S    
C5    C17   1.409630 S    
N22   O151  1.300674 A    
C145  C155  1.409212 A    
N38   O184  1.300786 A    
S25   O235  1.679324 S    
C9    C25   1.545025 S    
N23   O153  1.301196 A    
C139  C141  1.424834 S    
O65   H3    0.990588 S    
N9    O78   1.301331 A    
C43   N47   1.457080 S    
C131  S11   1.789569 S    
C178  N38   1.432977 S    
C119  C181  1.466212 S    
O27   C117  1.277908 A    
C163  N31   1.437629 S    
O13   C5    1.276609 A    
O19   C114  1.282344 A    
S11   O111  1.502915 D    
S23   O220  1.502491 D    
N7    O74   1.301144 A    
C1    C97   1.478246 S    
O148  H20   0.990588 S    
C64   S28   1.785863 S    
O104  H8    0.990463 S    
C3    C99   1.477421 S    
O22   C116  1.278951 A    
S18   O142  1.680524 S    
C157  N21   1.436872 S    
N25   O157  1.300143 A    
N33   O173  1.301179 A    
C13   C45   1.538271 S    
O224  H24   0.990445 S    
N59   O250  1.300511 A    
O110  H10   0.990561 S    
O25   C115  1.277905 A    
O21   C115  1.278933 A    
N45   O197  1.300210 A    
C158  N22   1.438601 S    
N10   O79   1.301135 A    
N6    O72   1.301146 A    
O45   C127  1.279688 A    
N21   O150  1.301064 A    
N8    O75   1.301121 A    
C7    C19   1.409702 S    
N3    O54   1.300137 A    
C46   N42   1.457034 S    
N55   O229  1.300469 A    
N34   O176  1.301271 A    
C70   N58   1.433858 S    
C36   N52   1.457667 S    
C97   C101  1.420296 A    
C65   C123  1.474300 S    
C4    C100  1.478575 S    
C38   C46   1.543941 S    
C28   S24   1.783225 S    
O16   C8    1.276640 A    
C150  S18   1.788709 S    
S27   O240  1.503492 D    
C57   C61   1.404766 A    
O62   H2    0.990594 S    
C23   C117  1.409120 S    
C89   C93   1.400814 A    
C174  C183  1.407372 A    
S17   O139  1.680535 S    
O11   C7    1.276712 A    
N36   O179  1.300693 A    
C96   N12   1.435403 S    
O12   C8    1.276720 A    
C60   C80   1.405099 A    
O1    Zn1   2.012792 S    
O9    Zn1   1.999555 S    
C92   N8    1.436627 S    
C108  C112  1.408320 A    
O44   Zn11  2.009563 S    
S12   O115  1.502472 D    
N52   O211  1.300164 A    
Zn9   O45   2.007672 S    
N29   O166  1.301300 A    
C81   C85   1.195506 T    
C43   C47   1.537974 S    
O4    Zn2   2.012739 S    
C14   C30   1.543874 S    
O9    C5    1.276734 A    
C68   C72   1.417435 A    
O235  H25   0.990494 S    
C105  S5    1.787922 S    
N27   O161  1.300128 A    
C106  S6    1.787827 S    
Zn11  O47   2.007672 S    
N38   O183  1.300684 A    
O11   Zn2   1.999556 S    
S2    O61   1.502336 D    
S28   O244  1.679302 S    
O41   C123  1.283636 A    
C101  N13   1.433018 S    
C176  C180  1.403583 A    
C164  N32   1.433739 S    
N15   O90   1.301612 A    
C102  C106  1.406014 A    
C171  C183  1.432201 S    
C58   C78   1.404982 A    
S6    O96   1.502008 D    
C2    C98   1.477634 S    
C129  C133  1.402385 A    
N59   O249  1.301485 A    
C21   C115  1.409142 S    
C145  C149  1.405777 A    
C108  S8    1.788000 S    
C25   C29   1.548962 S    
C180  N40   1.432873 S    
N51   O210  1.300110 A    
C94   C98   1.413702 A    
C136  N20   1.433360 S    
S4    O67   1.502256 D    
N14   O87   1.300605 A    
N42   O192  1.300140 A    
S21   O214  1.502609 D    
C14   N2    1.456945 S    
C30   C42   1.543602 S    
C141  C144  1.194507 T    
O41   Zn10  2.009563 S    
S5    O95   1.682279 S    
C25   S21   1.781957 S    
O2    C2    1.281714 A    
N16   O92   1.301638 A    
C39   C55   1.441539 S    
C160  C164  1.404407 A    
C103  N15   1.433062 S    
O20   C114  1.282531 A    
C27   C35   1.544725 S    
C34   C38   1.544973 S    
C161  N29   1.437298 S    
C28   C36   1.544717 S    
C59   N55   1.436321 S    
C113  C153  1.463418 S    
C149  S17   1.788577 S    
O30   C119  1.284499 A    
O14   Zn3   1.999540 S    
C9    C37   1.544832 S    
C164  C166  1.410444 A    
C42   N46   1.457083 S    
C76   S4    1.786317 S    
C26   C30   1.549071 S    
S26   O237  1.503489 D    
O19   Zn7   2.008234 S    
C175  C179  1.404567 A    
N49   O205  1.300159 A    
C176  C184  1.407215 A    
C87   C111  1.427892 S    
O36   C122  1.281741 A    
O130  H14   0.990600 S    
C174  N34   1.438646 S    
S19   O144  1.503114 D    
O113  H11   0.990561 S    
N28   O164  1.300190 A    
C133  C137  1.416045 A    
C10   C38   1.544863 S    
C33   N49   1.457685 S    
N18   O119  1.300584 A    
C8    C20   1.409664 S    
N50   O208  1.300106 A    
C82   C86   1.195526 T    
C179  C182  1.412035 A    
C66   C124  1.474846 S    
N37   O181  1.301150 A    
N32   O172  1.300781 A    
C130  C134  1.402525 A    
C135  N19   1.433062 S    
N31   O169  1.301172 A    
N54   O227  1.300470 A    
S26   O238  1.679380 S    
C148  C156  1.409281 A    
S10   O108  1.502915 D    
S11   O113  1.680958 S    
C173  N33   1.436600 S    
O145  H19   0.990558 S    
C91   C95   1.400810 A    
S21   O213  1.502574 D    
C77   C81   1.427958 S    
C100  C104  1.420492 A    
C13   N1    1.456918 S    
