data_mof_unit_32305.cif
_audit_creation_date              2012-12-10T16:54:30-0500
_audit_creation_method            fapswitch 2.2
_symmetry_space_group_name_H-M    P1
_symmetry_Int_Tables_number       1
_space_group_crystal_system       triclinic
_cell_length_a                    15.034007
_cell_length_b                    10.931603
_cell_length_c                    9.747551
_cell_angle_alpha                 89.317497
_cell_angle_beta                  90.389987
_cell_angle_gamma                 89.558722
_cell_volume                      1601.7697467

loop_
_atom_site_label
_atom_site_type_symbol
_atom_type_description
_atom_site_fract_x
_atom_site_fract_y
_atom_site_fract_z
_atom_type_partial_charge
C1    C     C_R   0.501843 0.265477 0.500704 0.853918
C2    C     C_R   0.906717 0.593489 0.405983 0.095645
C3    C     C_R   0.953142 0.369500 0.691055 -0.200191
C4    C     C_R   0.045738 0.367546 0.692601 -0.213209
C5    C     C_R   0.092967 0.437454 0.596946 0.111051
C6    C     C_R   0.046781 0.510813 0.499156 0.072382
C7    C     C_R   0.094266 0.579323 0.400979 0.115766
C8    C     C_R   0.048539 0.653281 0.305993 -0.222251
C9    C     C_R   0.956118 0.661041 0.308778 -0.215452
C10   C     C_R   0.185728 0.435326 0.597309 -0.249520
C11   C     C_R   0.232407 0.502412 0.498590 -0.059551
C12   C     C_R   0.328975 0.500143 0.499601 0.812823
C13   C     C_R   0.186927 0.573102 0.399838 -0.249916
C14   C     C_2   0.512196 0.934106 0.388935 -0.172153
C15   C     C_2   0.495539 0.866553 0.501041 -0.306292
C16   C     C_2   0.507464 0.068032 0.388506 -0.155958
C17   C     C_2   0.507707 0.133313 0.504112 -0.321590
C18   C     C_2   0.567526 0.474912 0.923655 -0.087966
C19   C     C_2   0.559801 0.450669 0.075483 0.003311
C20   C     C_R   0.499513 0.734483 0.499532 0.840415
C21   C     C_R   0.670770 0.507273 0.500164 0.805832
C22   C     C_R   0.812472 0.600961 0.411939 0.108867
C23   C     C_R   0.767364 0.518346 0.500737 -0.100246
C24   C     C_R   0.814542 0.443322 0.593136 -0.287640
C25   C     C_R   0.906765 0.443179 0.595554 0.108122
C26   C     C_R   0.953243 0.515704 0.499873 0.019168
Cu1   Cu    Cu3+1 0.500020 0.500020 0.638630 0.930939
Cu2   Cu    Cu3+1 0.499980 0.499980 0.361370 0.919942
H1    H     H_    0.477106 0.906951 0.597688 0.147688
H2    H     H_    0.632990 0.470870 0.878066 0.153603
H3    H     H_    0.439896 0.465918 0.883896 0.209845
H4    H     H_    0.221702 0.380079 0.672742 0.144010
H5    H     H_    0.223869 0.625560 0.324479 0.135937
H6    H     H_    0.084369 0.706066 0.229786 0.144183
H7    H     H_    0.924565 0.719640 0.232640 0.157103
H8    H     H_    0.528244 0.890574 0.292810 0.164676
N1    N     N_2   0.499020 0.498660 0.846910 -0.285712
N2    N     N_2   0.499000 0.498630 0.153040 -0.161671
O1    O     O_R   0.500020 0.321960 0.617040 -0.581401
O2    O     O_R   0.499980 0.321920 0.382900 -0.574473
O3    O     O_R   0.370270 0.499990 0.617090 -0.584172
O4    O     O_R   0.370240 0.499950 0.382940 -0.599303
O5    O     O_R   0.500020 0.678080 0.617100 -0.569290
O6    O     O_R   0.499980 0.678040 0.382960 -0.596690
O7    O     O_R   0.629760 0.500050 0.617060 -0.581695
O8    O     O_R   0.629730 0.500010 0.382910 -0.595629
C27   C     C_3   0.761807 0.701884 0.333268 -0.418659
C28   C     C_3   0.778948 0.827523 0.395019 -0.842605
H9    H     H_    0.756829 0.828463 0.503536 0.255680
H10   H     H_    0.850381 0.851666 0.391190 0.257336
H11   H     H_    0.740533 0.898338 0.336731 0.242605
H12   H     H_    0.779222 0.701231 0.222872 0.191150
H13   H     H_    0.689011 0.690733 0.335282 0.226526
H14   H     H_    0.505011 0.113618 0.288894 0.167097
H15   H     H_    0.514814 0.091134 0.604635 0.146915
H16   H     H_    0.610880 0.393900 0.123637 0.121893
C29   C     C_3   0.447508 0.606444 0.106524 -0.053498
C30   C     C_3   0.506205 0.716171 0.069266 -0.835689
H17   H     H_    0.564535 0.721089 0.139331 0.250710
H18   H     H_    0.530314 0.710677 0.962385 0.253251
H19   H     H_    0.466755 0.802070 0.077161 0.207990
H20   H     H_    0.397920 0.587435 0.026151 0.109669
H21   H     H_    0.404082 0.635651 0.191189 0.202486
H22   H     H_    0.778885 0.383355 0.662834 0.150092
H23   H     H_    0.917713 0.313672 0.764947 0.140688
H24   H     H_    0.080388 0.310659 0.767809 0.143105

loop_
_geom_bond_atom_site_label_1
_geom_bond_atom_site_label_2
_ccdc_geom_bond_type
C19   H16   S    
C2    C22   A    
C7    C13   A    
C11   C12   S    
C13   H5    S    
C27   H12   S    
C18   H2    S    
C19   N2    D    
Cu1   O5    S    
N2    C29   S    
Cu1   O3    S    
C1    C17   S    
C27   C28   S    
Cu2   N2    S    
C27   H13   S    
Cu1   O7    S    
C30   H19   S    
C28   H10   S    
C22   C27   S    
C6    C26   A    
C5    C10   A    
C2    C26   A    
C21   O8    A    
C8    H6    S    
C4    H24   S    
C11   C13   A    
Cu2   O8    S    
C29   C30   S    
C12   O3    A    
Cu1   N1    S    
C3    C25   A    
C17   H15   S    
Cu2   O4    S    
C28   H9    S    
C20   O6    A    
C18   N1    D    
C29   H21   S    
C6    C7    A    
C21   O7    A    
C21   C23   S    
C14   H8    S    
C5    C6    A    
C3    H23   S    
C14   C16   S    
C30   H17   S    
C10   C11   A    
Cu2   O2    S    
C23   C24   A    
C30   H18   S    
C3    C4    A    
C15   H1    S    
C10   H4    S    
C7    C8    A    
C20   O5    A    
C24   C25   A    
C8    C9    A    
C15   C20   S    
C18   C19   S    
C16   H14   S    
Cu1   O1    S    
Cu1   Cu2   S    
C9    H7    S    
C1    O1    A    
C14   C15   D    
C16   C17   D    
C12   O4    A    
C1    O2    A    
C29   H20   S    
C25   C26   A    
C22   C23   A    
C2    C9    A    
Cu2   O6    S    
C28   H11   S    
C24   H22   S    
H3    N1    S    
C4    C5    A    
