data_mof_unit_46884.cif
_audit_creation_date              2012-12-10T17:59:16-0500
_audit_creation_method            fapswitch 2.2
_symmetry_space_group_name_H-M    P1
_symmetry_Int_Tables_number       1
_space_group_crystal_system       triclinic
_cell_length_a                    10.866523
_cell_length_b                    9.573614
_cell_length_c                    10.751038
_cell_angle_alpha                 89.821445
_cell_angle_beta                  92.201454
_cell_angle_gamma                 89.279355
_cell_volume                      1117.52974051

loop_
_atom_site_label
_atom_site_type_symbol
_atom_type_description
_atom_site_fract_x
_atom_site_fract_y
_atom_site_fract_z
_atom_type_partial_charge
C1    C     C_R   0.262343 0.501406 0.507876 0.760237
C2    C     C_3   0.629507 0.453101 0.929045 -0.384140
C3    C     C_R   0.065073 0.383486 0.558012 0.012686
C4    C     C_R   0.057988 0.628171 0.486865 -0.027610
C5    C     C_R   0.936898 0.380638 0.545693 -0.139081
C6    C     C_R   0.930883 0.620851 0.475959 -0.089649
C7    C     C_R   0.870615 0.498421 0.504211 -0.090776
C8    C     C_R   0.127735 0.505443 0.520279 -0.200550
C9    C     C_R   0.418369 0.075959 0.424185 0.078858
C10   C     C_R   0.425179 0.927325 0.417139 0.074855
C11   C     C_R   0.576320 0.924485 0.580032 -0.015799
C12   C     C_R   0.578594 0.072754 0.577747 -0.015202
C13   C     C_R   0.500544 0.499940 0.259853 0.751733
C14   C     C_R   0.737366 0.499148 0.500437 0.832026
C15   C     C_R   0.498882 0.500011 0.739846 0.754599
C16   C     C_3   0.469532 0.646744 0.069112 -0.370945
C17   C     C_3   0.402395 0.399044 0.067974 -0.363763
C18   C     C_3   0.472765 0.648652 0.927081 -0.369134
C19   C     C_3   0.401975 0.398736 0.924694 -0.341987
C20   C     C_3   0.633915 0.449110 0.075246 -0.005999
C21   C     C_3   0.503526 0.498602 0.121405 0.002066
C22   C     C_3   0.500410 0.499986 0.877545 0.089471
Cu1   Cu    Cu3+1 0.500020 0.640660 0.500000 0.935831
Cu2   Cu    Cu3+1 0.500020 0.359340 0.500000 0.938454
H1    H     H_    0.532005 0.727989 0.108109 0.199484
H2    H     H_    0.417549 0.290543 0.102777 0.202744
H3    H     H_    0.637597 0.867865 0.644468 0.133944
H4    H     H_    0.641903 0.127194 0.640127 0.137528
H5    H     H_    0.374840 0.675667 0.096254 0.213076
H6    H     H_    0.310171 0.433042 0.099034 0.165626
H7    H     H_    0.382620 0.687872 0.887365 0.188442
H8    H     H_    0.309092 0.430436 0.886461 0.145174
H9    H     H_    0.544783 0.722640 0.898379 0.183121
H10   H     H_    0.420795 0.290631 0.891980 0.203875
H11   H     H_    0.699036 0.526309 0.893401 0.123664
H12   H     H_    0.654039 0.350732 0.887638 0.207669
H13   H     H_    0.888061 0.288549 0.574227 0.182434
H14   H     H_    0.877970 0.713506 0.448491 0.192122
N1    N     N_R   0.500030 0.852070 0.500030 -0.218779
N2    N     N_R   0.500030 0.147930 0.500030 -0.221060
O1    O     O_R   0.319660 0.618740 0.499990 -0.629038
O2    O     O_R   0.319660 0.381260 0.499990 -0.600653
O3    O     O_R   0.499990 0.618790 0.317690 -0.594895
O4    O     O_R   0.499990 0.381210 0.317690 -0.621627
O5    O     O_R   0.680370 0.618830 0.500010 -0.583550
O6    O     O_R   0.680370 0.381170 0.500010 -0.584622
O7    O     O_R   0.500030 0.618780 0.682310 -0.588009
O8    O     O_R   0.500030 0.381220 0.682310 -0.592863
C23   C     C_2   0.734072 0.548838 0.122233 0.274929
H15   H     H_    0.732444 0.656554 0.090561 0.111589
O9    O     O_2   0.818415 0.510761 0.193361 -0.547465
C24   C     C_2   0.665194 0.301466 0.123839 0.444706
H16   H     H_    0.699498 0.286905 0.219259 0.132171
O10   O     O_2   0.649122 0.197577 0.059821 -0.562090
C25   C     C_2   0.129173 0.262696 0.620622 0.427216
H17   H     H_    0.217330 0.275877 0.669639 0.067533
O11   O     O_2   0.082614 0.147224 0.620826 -0.519117
C26   C     C_2   0.110682 0.768844 0.469591 0.389727
H18   H     H_    0.184339 0.806135 0.531170 0.105902
O12   O     O_2   0.068018 0.847638 0.388941 -0.471614
C27   C     C_2   0.315685 0.150320 0.356042 0.490797
H19   H     H_    0.329773 0.243287 0.302651 0.088151
O13   O     O_2   0.210760 0.106824 0.359845 -0.484225
C28   C     C_2   0.357262 0.857007 0.313017 0.442338
H20   H     H_    0.315151 0.757114 0.323918 0.117917
O14   O     O_2   0.348474 0.911622 0.210160 -0.568455

loop_
_geom_bond_atom_site_label_1
_geom_bond_atom_site_label_2
_ccdc_geom_bond_type
C2    H11   S    
C2    C22   S    
C25   H17   S    
C6    H14   S    
C12   N2    A    
C16   C21   S    
Cu1   O5    S    
C11   H3    S    
C1    C8    S    
Cu2   O2    S    
C9    C10   A    
Cu1   O1    S    
C15   O7    A    
C4    C8    A    
Cu2   O6    S    
C28   H20   S    
C23   O9    D    
C25   O11   D    
C26   H18   S    
C13   C21   S    
C20   C24   S    
C27   O13   D    
C26   O12   D    
C24   H16   S    
C11   N1    A    
C17   H6    S    
C6    C7    A    
C15   O8    A    
C12   H4    S    
C20   C23   S    
C17   H2    S    
C4    C6    A    
Cu2   N2    S    
C24   O10   D    
C3    C8    A    
C14   O5    A    
C5    H13   S    
C9    N2    A    
C13   O4    A    
C27   H19   S    
Cu2   O4    S    
C18   H9    S    
Cu1   N1    S    
C9    C27   S    
C19   H8    S    
Cu1   Cu2   S    
C2    C20   S    
Cu2   O8    S    
C1    O2    A    
C13   O3    A    
C19   C22   S    
Cu1   O7    S    
C20   C21   S    
C16   C18   S    
C23   H15   S    
C15   C22   S    
C2    H12   S    
C16   H1    S    
C5    C7    A    
C17   C19   S    
C18   H7    S    
C14   O6    A    
C4    C26   S    
C16   H5    S    
C18   C22   S    
Cu1   O3    S    
C3    C25   S    
C7    C14   S    
C10   C28   S    
C1    O1    A    
C11   C12   A    
C28   O14   D    
C10   N1    A    
C3    C5    A    
C19   H10   S    
C17   C21   S    
