data_mof_unit_64252.cif
_audit_creation_date              2012-12-10T16:58:57-0500
_audit_creation_method            fapswitch 2.2
_symmetry_space_group_name_H-M    P1
_symmetry_Int_Tables_number       1
_space_group_crystal_system       triclinic
_cell_length_a                    30.940093
_cell_length_b                    30.527457
_cell_length_c                    24.855576
_cell_angle_alpha                 90.000303
_cell_angle_beta                  128.510698
_cell_angle_gamma                 89.999971
_cell_volume                      18370.2865658

loop_
_atom_site_label
_atom_site_type_symbol
_atom_type_description
_atom_site_fract_x
_atom_site_fract_y
_atom_site_fract_z
_atom_type_partial_charge
C1    C     C_R   0.691076 0.190451 0.500287 0.768204
C2    C     C_R   0.536713 0.250330 0.069824 0.442746
C3    C     C_R   0.740095 0.947557 0.646521 -0.126088
C4    C     C_R   0.817055 0.448136 0.404493 -0.140896
C5    C     C_R   0.182945 0.448136 0.595507 -0.140894
C6    C     C_R   0.317055 0.948136 0.404493 -0.140894
C7    C     C_R   0.682945 0.948137 0.595506 -0.140895
C8    C     C_R   0.844901 0.412265 0.449904 0.099185
C9    C     C_R   0.155099 0.412266 0.550095 0.099183
C10   C     C_R   0.344901 0.912265 0.449904 0.099184
C11   C     C_R   0.655099 0.912266 0.550095 0.099185
C12   C     C_R   0.813299 0.377259 0.446574 0.042753
C13   C     C_R   0.963289 0.750330 0.930176 0.442745
C14   C     C_R   0.186701 0.377259 0.553425 0.042752
C15   C     C_R   0.313299 0.877259 0.446574 0.042751
C16   C     C_R   0.686701 0.877259 0.553425 0.042752
C17   C     C_R   0.840331 0.343628 0.496741 -0.185454
C18   C     C_R   0.159669 0.343628 0.503259 -0.185447
C19   C     C_R   0.340331 0.843628 0.496741 -0.185448
C20   C     C_R   0.659669 0.843628 0.503259 -0.185454
C21   C     C_R   0.898025 0.343987 0.547554 0.372430
C22   C     C_R   0.101974 0.343987 0.452446 0.372432
C23   C     C_R   0.398025 0.843987 0.547554 0.372432
C24   C     C_R   0.036713 0.750330 0.069824 0.442745
C25   C     C_R   0.601974 0.843987 0.452446 0.372431
C26   C     C_R   0.928890 0.376993 0.547997 -0.206521
C27   C     C_R   0.071110 0.376993 0.452002 -0.206519
C28   C     C_R   0.428890 0.876993 0.547997 -0.206519
C29   C     C_R   0.571109 0.876992 0.452002 -0.206520
C30   C     C_R   0.903256 0.410645 0.499410 -0.171759
C31   C     C_R   0.096743 0.410646 0.500589 -0.171761
C32   C     C_R   0.403256 0.910645 0.499410 -0.171760
C33   C     C_R   0.596743 0.910646 0.500589 -0.171759
C34   C     C_R   0.061149 0.442212 0.500103 0.802127
C35   C     C_R   0.696508 0.181159 0.619923 -0.141881
C36   C     C_R   0.938851 0.442212 0.499897 0.802129
C37   C     C_R   0.561149 0.942212 0.500103 0.802126
C38   C     C_R   0.438851 0.942212 0.499897 0.802127
C39   C     C_R   0.815283 0.249144 0.632660 0.844248
C40   C     C_R   0.184716 0.249144 0.367341 0.844253
C41   C     C_R   0.315284 0.749144 0.632659 0.844253
C42   C     C_R   0.684717 0.749143 0.367340 0.844250
C43   C     C_R   0.557633 0.061711 0.500318 0.875057
C44   C     C_R   0.442367 0.061711 0.499683 0.875052
C45   C     C_R   0.057633 0.561711 0.500317 0.875050
C46   C     C_R   0.303477 0.181144 0.380066 -0.141855
C47   C     C_R   0.942367 0.561711 0.499683 0.875054
C48   C     C_R   0.652695 0.218776 0.255391 -0.195140
C49   C     C_R   0.347305 0.218776 0.744609 -0.195142
C50   C     C_R   0.152695 0.718776 0.255391 -0.195142
C51   C     C_R   0.847305 0.718776 0.744609 -0.195142
C52   C     C_R   0.617834 0.218429 0.183513 0.399736
C53   C     C_R   0.382167 0.218429 0.816487 0.399736
C54   C     C_R   0.117834 0.718429 0.183513 0.399736
C55   C     C_R   0.882167 0.718429 0.816487 0.399735
C56   C     C_R   0.575762 0.250271 0.145915 -0.028005
C57   C     C_R   0.196519 0.681148 0.619931 -0.141860
C58   C     C_R   0.424240 0.250271 0.854085 -0.028005
C59   C     C_R   0.075761 0.750271 0.145915 -0.028004
C60   C     C_R   0.924240 0.750272 0.854085 -0.028005
C61   C     C_R   0.570488 0.282409 0.181999 -0.193720
C62   C     C_R   0.429514 0.282409 0.818001 -0.193723
C63   C     C_R   0.070488 0.782409 0.181999 -0.193723
C64   C     C_R   0.929514 0.782409 0.818001 -0.193721
C65   C     C_R   0.605315 0.282378 0.253849 -0.176154
C66   C     C_R   0.394686 0.282378 0.746151 -0.176156
C67   C     C_R   0.105315 0.782378 0.253849 -0.176156
C68   C     C_R   0.803479 0.681149 0.380068 -0.141877
C69   C     C_R   0.894687 0.782378 0.746151 -0.176154
C70   C     C_R   0.692456 0.182894 0.672442 -0.153999
C71   C     C_R   0.307522 0.182873 0.327541 -0.153921
C72   C     C_R   0.192472 0.682879 0.672454 -0.153934
C73   C     C_R   0.308924 0.190451 0.499713 0.768214
C74   C     C_R   0.807526 0.682880 0.327544 -0.154002
C75   C     C_R   0.649052 0.161940 0.664519 -0.152681
C76   C     C_R   0.350928 0.161923 0.335465 -0.152696
C77   C     C_R   0.149066 0.661928 0.664530 -0.152692
C78   C     C_R   0.850930 0.661927 0.335466 -0.152682
C79   C     C_R   0.611381 0.136674 0.606068 0.388244
C80   C     C_R   0.388608 0.136665 0.393923 0.388247
C81   C     C_R   0.111388 0.636668 0.606074 0.388242
C82   C     C_R   0.888608 0.636667 0.393921 0.388249
C83   C     C_R   0.619385 0.129312 0.556126 0.020430
C84   C     C_R   0.191077 0.690451 0.500287 0.768213
C85   C     C_R   0.380609 0.129307 0.443871 0.020423
C86   C     C_R   0.119389 0.629309 0.556128 0.020425
C87   C     C_R   0.880609 0.629308 0.443870 0.020419
C88   C     C_R   0.659066 0.155840 0.560352 0.032963
C89   C     C_R   0.340928 0.155833 0.439644 0.032942
C90   C     C_R   0.159071 0.655835 0.560355 0.032947
C91   C     C_R   0.840928 0.655835 0.439644 0.032961
C92   C     C_R   0.660281 0.156849 0.504660 -0.058558
C93   C     C_R   0.339719 0.156849 0.495341 -0.058551
C94   C     C_R   0.160281 0.656849 0.504659 -0.058553
C95   C     C_R   0.808924 0.690451 0.499714 0.768205
C96   C     C_R   0.839720 0.656849 0.495342 -0.058550
C97   C     C_R   0.627860 0.128325 0.449387 -0.180148
C98   C     C_R   0.372148 0.128330 0.550621 -0.180154
C99   C     C_R   0.127854 0.628328 0.449382 -0.180153
C100  C     C_R   0.872150 0.628331 0.550623 -0.180153
C101  C     C_R   0.683905 0.250185 0.367364 0.775959
C102  C     C_R   0.316095 0.250185 0.632636 0.775959
C103  C     C_R   0.183905 0.750185 0.367364 0.775960
C104  C     C_R   0.816095 0.750185 0.632636 0.775956
C105  C     C_R   0.593579 0.098664 0.448393 -0.163772
C106  C     C_R   0.646634 0.250429 0.291273 -0.095869
C107  C     C_R   0.406429 0.098670 0.551615 -0.163754
C108  C     C_R   0.093573 0.598668 0.448387 -0.163760
C109  C     C_R   0.906432 0.598671 0.551617 -0.163743
C110  C     C_R   0.589170 0.098127 0.501234 -0.054733
C111  C     C_R   0.410831 0.098127 0.498768 -0.054725
C112  C     C_R   0.089169 0.598127 0.501233 -0.054731
C113  C     C_R   0.910831 0.598128 0.498768 -0.054734
C114  C     C_R   0.902677 0.226564 0.744642 -0.185283
C115  C     C_R   0.097292 0.226601 0.255368 -0.185196
C116  C     C_R   0.402703 0.726596 0.744634 -0.185212
C117  C     C_R   0.353367 0.250429 0.708727 -0.095869
C118  C     C_R   0.597325 0.726557 0.255359 -0.185271
C119  C     C_R   0.937862 0.223796 0.816007 -0.195539
C120  C     C_R   0.062099 0.223830 0.184004 -0.195582
C121  C     C_R   0.437895 0.723827 0.815998 -0.195577
C122  C     C_R   0.562140 0.723790 0.183995 -0.195547
C123  C     C_R   0.922814 0.241608 0.854230 -0.092524
C124  C     C_R   0.077168 0.241593 0.145779 -0.092494
C125  C     C_R   0.422829 0.741599 0.854222 -0.092494
C126  C     C_R   0.577184 0.741607 0.145771 -0.092520
C127  C     C_R   0.870995 0.262684 0.819179 0.360347
C128  C     C_R   0.146634 0.750429 0.291273 -0.095868
C129  C     C_R   0.129009 0.262627 0.180817 0.360367
C130  C     C_R   0.370992 0.762639 0.819182 0.360368
C131  C     C_R   0.629000 0.762688 0.180819 0.360345
C132  C     C_R   0.834884 0.264905 0.746787 0.306466
C133  C     C_R   0.165122 0.264863 0.253208 0.306390
C134  C     C_R   0.334879 0.764871 0.746791 0.306402
C135  C     C_R   0.665114 0.764906 0.253212 0.306461
C136  C     C_R   0.851078 0.247156 0.708876 -0.184292
C137  C     C_R   0.148913 0.247156 0.291125 -0.184270
C138  C     C_R   0.351085 0.747157 0.708875 -0.184274
C139  C     C_R   0.853367 0.750429 0.708727 -0.095869
C140  C     C_R   0.648922 0.747154 0.291124 -0.184296
C141  C     C_R   0.037141 0.238995 0.069776 0.458609
C142  C     C_R   0.962835 0.239003 0.930239 0.458578
C143  C     C_R   0.537162 0.739004 0.069763 0.458561
C144  C     C_R   0.462854 0.739000 0.930226 0.458583
C145  C     C_R   0.755542 0.376736 0.392814 -0.133469
C146  C     C_R   0.244457 0.376737 0.607186 -0.133471
C147  C     C_R   0.255542 0.876736 0.392814 -0.133470
C148  C     C_R   0.744458 0.876737 0.607186 -0.133469
C149  C     C_R   0.808645 0.309554 0.498959 0.842613
C150  C     C_R   0.463289 0.250330 0.930176 0.442745
C151  C     C_R   0.191355 0.309554 0.501041 0.842607
C152  C     C_R   0.308644 0.809554 0.498959 0.842607
C153  C     C_R   0.691355 0.809554 0.501041 0.842615
C154  C     C_R   0.729370 0.411581 0.346824 -0.116204
C155  C     C_R   0.270629 0.411582 0.653177 -0.116205
C156  C     C_R   0.229370 0.911580 0.346823 -0.116205
C157  C     C_R   0.770629 0.911582 0.653176 -0.116204
C158  C     C_R   0.759904 0.447555 0.353478 -0.126089
C159  C     C_R   0.240095 0.447557 0.646522 -0.126088
C160  C     C_R   0.259905 0.947555 0.353478 -0.126086
Cl1   Cl    Cl    0.851409 0.289021 0.864588 -0.454703
Cl2   Cl    Cl    0.066552 0.304238 0.386656 -0.566624
Cl3   Cl    Cl    0.433448 0.804239 0.613343 -0.566613
Cl4   Cl    Cl    0.566551 0.804238 0.386657 -0.566555
Cl5   Cl    Cl    0.630626 0.178748 0.143452 -0.526903
Cl6   Cl    Cl    0.369375 0.178749 0.856548 -0.526899
Cl7   Cl    Cl    0.130626 0.678748 0.143452 -0.526903
Cl8   Cl    Cl    0.869375 0.678749 0.856548 -0.526906
Cl9   Cl    Cl    0.549488 0.125510 0.591920 -0.578971
Cl10  Cl    Cl    0.450503 0.125509 0.408071 -0.578940
Cl11  Cl    Cl    0.049494 0.625510 0.591926 -0.578956
Cl12  Cl    Cl    0.148612 0.288894 0.135381 -0.454779
Cl13  Cl    Cl    0.950502 0.625508 0.408069 -0.578954
Cl14  Cl    Cl    0.351392 0.788918 0.864614 -0.454761
Cl15  Cl    Cl    0.648573 0.789040 0.135404 -0.454675
Cl16  Cl    Cl    0.769217 0.289293 0.705789 -0.507861
Cl17  Cl    Cl    0.230804 0.289219 0.294198 -0.507966
Cl18  Cl    Cl    0.269200 0.789233 0.705799 -0.507951
Cl19  Cl    Cl    0.730780 0.789295 0.294208 -0.507841
Cl20  Cl    Cl    0.933448 0.304239 0.613343 -0.566560
Cu1   Cu    Cu3+1 0.719090 0.280910 0.500010 1.057588
Cu2   Cu    Cu3+1 0.034200 0.500000 0.568440 1.030298
Cu3   Cu    Cu3+1 0.465800 0.000000 0.431560 1.030303
Cu4   Cu    Cu3+1 0.534200 0.000000 0.568440 1.030293
Cu5   Cu    Cu3+1 0.280910 0.280910 0.499990 1.057572
Cu6   Cu    Cu3+1 0.219090 0.780910 0.500010 1.057576
Cu7   Cu    Cu3+1 0.780910 0.780910 0.499990 1.057590
Cu8   Cu    Cu3+1 0.780930 0.219110 0.499990 1.031705
Cu9   Cu    Cu3+1 0.219070 0.219110 0.500010 1.031696
Cu10  Cu    Cu3+1 0.280930 0.719110 0.499990 1.031696
Cu11  Cu    Cu3+1 0.719070 0.719110 0.500010 1.031703
Cu12  Cu    Cu3+1 0.965800 0.500000 0.431560 1.030293
H1    H     H_    0.684709 0.194106 0.283172 0.194086
H2    H     H_    0.083672 0.212704 0.282649 0.204746
H3    H     H_    0.416320 0.712693 0.717354 0.204739
H4    H     H_    0.583720 0.712621 0.282635 0.204707
H5    H     H_    0.977289 0.207532 0.841498 0.190013
H6    H     H_    0.022650 0.207602 0.158513 0.189968
H7    H     H_    0.477340 0.707594 0.841489 0.189972
H8    H     H_    0.522714 0.707522 0.158503 0.189996
H9    H     H_    0.730032 0.349444 0.385302 0.135171
H10   H     H_    0.269967 0.349444 0.614698 0.135174
H11   H     H_    0.230032 0.849444 0.385302 0.135173
H12   H     H_    0.315291 0.194106 0.716827 0.194086
H13   H     H_    0.769968 0.849445 0.614698 0.135172
H14   H     H_    0.685111 0.410883 0.306370 0.143047
H15   H     H_    0.314889 0.410884 0.693630 0.143048
H16   H     H_    0.185111 0.910882 0.306370 0.143049
H17   H     H_    0.814889 0.910884 0.693630 0.143048
H18   H     H_    0.739265 0.475073 0.318759 0.144714
H19   H     H_    0.260734 0.475075 0.681241 0.144717
H20   H     H_    0.239265 0.975073 0.318759 0.144718
H21   H     H_    0.760734 0.975075 0.681240 0.144715
H22   H     H_    0.838628 0.477321 0.408486 0.145599
H23   H     H_    0.184709 0.694106 0.283172 0.194085
H24   H     H_    0.161372 0.477322 0.591513 0.145599
H25   H     H_    0.338628 0.977321 0.408486 0.145598
H26   H     H_    0.661371 0.977322 0.591513 0.145599
H27   H     H_    0.973489 0.376090 0.586356 0.198539
H28   H     H_    0.026511 0.376089 0.413643 0.198538
H29   H     H_    0.473489 0.876090 0.586356 0.198539
H30   H     H_    0.526511 0.876089 0.413643 0.198538
H31   H     H_    0.538647 0.307232 0.154485 0.175273
H32   H     H_    0.461354 0.307232 0.845515 0.175271
H33   H     H_    0.038648 0.807232 0.154485 0.175271
H34   H     H_    0.815291 0.694107 0.716827 0.194086
H35   H     H_    0.961355 0.807231 0.845515 0.175273
H36   H     H_    0.599921 0.307444 0.280046 0.169542
H37   H     H_    0.400080 0.307444 0.719955 0.169541
H38   H     H_    0.099921 0.807444 0.280046 0.169541
H39   H     H_    0.900081 0.807444 0.719955 0.169543
H40   H     H_    0.629103 0.129072 0.406766 0.156372
H41   H     H_    0.370912 0.129082 0.593247 0.156364
H42   H     H_    0.129092 0.629078 0.406757 0.156365
H43   H     H_    0.870915 0.629083 0.593251 0.156363
H44   H     H_    0.729420 0.199516 0.626529 0.149388
H45   H     H_    0.570801 0.075544 0.406200 0.172562
H46   H     H_    0.270564 0.199498 0.373461 0.149404
H47   H     H_    0.229432 0.699503 0.626537 0.149403
H48   H     H_    0.770569 0.699506 0.373465 0.149368
H49   H     H_    0.721343 0.202445 0.717823 0.206410
H50   H     H_    0.278628 0.202415 0.282153 0.206479
H51   H     H_    0.221364 0.702423 0.717841 0.206468
H52   H     H_    0.778634 0.702426 0.282159 0.206385
H53   H     H_    0.643317 0.166941 0.702853 0.190454
H54   H     H_    0.356659 0.166920 0.297126 0.190468
H55   H     H_    0.143334 0.666927 0.702868 0.190465
H56   H     H_    0.429213 0.075553 0.593812 0.172566
H57   H     H_    0.856660 0.666926 0.297127 0.190450
H58   H     H_    0.070791 0.575550 0.406191 0.172565
H59   H     H_    0.929217 0.575556 0.593816 0.172569
H60   H     H_    0.916284 0.212631 0.717367 0.204712
N1    N     N_R   0.517868 0.288620 0.034251 -0.231727
N2    N     N_R   0.054239 0.237905 0.031052 -0.151058
N3    N     N_R   0.445754 0.737933 0.968950 -0.151031
N4    N     N_R   0.554263 0.738063 0.031037 -0.150953
N5    N     N_R   0.982083 0.238212 0.037291 -0.205344
N6    N     N_R   0.017891 0.238041 0.962726 -0.205481
N7    N     N_R   0.482103 0.738067 0.037276 -0.205438
N8    N     N_R   0.517915 0.738194 0.962712 -0.205354
N9    N     N_R   0.482134 0.288620 0.965750 -0.231726
N10   N     N_R   0.017868 0.788620 0.034251 -0.231726
N11   N     N_R   0.982134 0.788620 0.965750 -0.231726
N12   N     N_R   0.482111 0.212131 0.965810 -0.128577
N13   N     N_R   0.517891 0.212131 0.034189 -0.128575
N14   N     N_R   0.982111 0.712131 0.965810 -0.128577
N15   N     N_R   0.017890 0.712131 0.034189 -0.128578
N16   N     N_R   0.945736 0.238083 0.968966 -0.150918
O1    O     O_R   0.678820 0.231020 0.500020 -0.556446
O2    O     O_R   0.483800 0.045090 0.557810 -0.547653
O3    O     O_R   0.016200 0.545090 0.442190 -0.547652
O4    O     O_R   0.983800 0.545090 0.557810 -0.547655
O5    O     O_R   0.573990 0.045100 0.557780 -0.582070
O6    O     O_R   0.426010 0.045100 0.442220 -0.582069
O7    O     O_R   0.073990 0.545100 0.557780 -0.582069
O8    O     O_R   0.926010 0.545100 0.442220 -0.582069
O9    O     O_R   0.731040 0.178820 0.500000 -0.590016
O10   O     O_R   0.268960 0.178820 0.500000 -0.590014
O11   O     O_R   0.231040 0.678820 0.500000 -0.590015
O12   O     O_R   0.321180 0.231020 0.499980 -0.556431
O13   O     O_R   0.768960 0.678820 0.500000 -0.590017
O14   O     O_R   0.673970 0.276110 0.400150 -0.592682
O15   O     O_R   0.326030 0.276110 0.599850 -0.592685
O16   O     O_R   0.173970 0.776110 0.400150 -0.592684
O17   O     O_R   0.826030 0.776110 0.599850 -0.592683
O18   O     O_R   0.726190 0.223910 0.400130 -0.585484
O19   O     O_R   0.273810 0.223910 0.599870 -0.585482
O20   O     O_R   0.226190 0.723910 0.400130 -0.585483
O21   O     O_R   0.773810 0.723910 0.599870 -0.585484
O22   O     O_R   0.768980 0.321200 0.500000 -0.587201
O23   O     O_R   0.178820 0.731020 0.500020 -0.556433
O24   O     O_R   0.231020 0.321200 0.500000 -0.587215
O25   O     O_R   0.268980 0.821200 0.500000 -0.587212
O26   O     O_R   0.731020 0.821200 0.500000 -0.587201
O27   O     O_R   0.821200 0.269000 0.499980 -0.535456
O28   O     O_R   0.178800 0.269000 0.500020 -0.535458
O29   O     O_R   0.321200 0.769000 0.499980 -0.535458
O30   O     O_R   0.678800 0.769000 0.500020 -0.535456
O31   O     O_R   0.773830 0.276110 0.599860 -0.520180
O32   O     O_R   0.226170 0.276110 0.400140 -0.520178
O33   O     O_R   0.273830 0.776110 0.599860 -0.520178
O34   O     O_R   0.821180 0.731020 0.499980 -0.556444
O35   O     O_R   0.726170 0.776110 0.400140 -0.520178
O36   O     O_R   0.826050 0.223920 0.599850 -0.578966
O37   O     O_R   0.173950 0.223920 0.400150 -0.578985
O38   O     O_R   0.326050 0.723920 0.599850 -0.578982
O39   O     O_R   0.673950 0.723920 0.400150 -0.578969
O40   O     O_R   0.016230 0.454910 0.442200 -0.578395
O41   O     O_R   0.983770 0.454910 0.557800 -0.578392
O42   O     O_R   0.516230 0.954910 0.442200 -0.578392
O43   O     O_R   0.483770 0.954910 0.557800 -0.578394
O44   O     O_R   0.074030 0.454920 0.557790 -0.588615
O45   O     O_R   0.925970 0.454920 0.442210 -0.588618
O46   O     O_R   0.574030 0.954920 0.557790 -0.588617
O47   O     O_R   0.425970 0.954920 0.442210 -0.588617
O48   O     O_R   0.516200 0.045090 0.442190 -0.547647

loop_
_geom_bond_atom_site_label_1
_geom_bond_atom_site_label_2
_ccdc_geom_bond_type
C69   C139  A    
C44   O6    A    
C105  C110  A    
C133  C137  A    
C87   C91   A    
C80   Cl10  S    
C54   Cl7   S    
C21   C26   A    
C13   C60   S    
C130  Cl14  S    
N5    N16   A    
C101  O14   A    
C154  C158  A    
C155  H15   S    
C25   Cl4   S    
C82   C87   A    
C84   O11   A    
C29   C33   A    
C126  C143  S    
C159  H19   S    
C142  N6    A    
C121  H7    S    
C91   C96   A    
C116  H3    S    
C47   O4    A    
C43   C110  S    
C73   C93   S    
C34   O40   A    
C81   C86   A    
C42   O35   A    
C97   C105  A    
C83   C88   A    
C49   H12   S    
C27   H28   S    
C72   H51   S    
C130  C134  A    
Cu2   Cu12  S    
C55   Cl8   S    
C118  C140  A    
C63   C67   A    
C39   C136  S    
C25   C29   A    
C29   H30   S    
C144  N3    A    
C4    H22   S    
C57   C90   A    
C27   C31   A    
C28   C32   A    
Cu11  O13   S    
C86   C90   A    
Cu1   O31   S    
C155  C159  A    
C17   C21   A    
C108  H58   S    
C77   H55   S    
Cu6   Cu10  S    
C19   C23   A    
Cu3   Cu4   S    
C1    O9    A    
C6    H25   S    
C78   C82   A    
C11   C33   A    
C16   C20   A    
C152  O29   A    
C13   N11   A    
C41   C138  S    
Cu7   O26   S    
C148  H13   S    
C129  C133  A    
C22   C27   A    
C24   N15   A    
Cu1   O22   S    
N1    N9    A    
Cu4   O5    S    
Cu11  O21   S    
C109  H59   S    
C59   C63   A    
C102  O15   A    
C6    C160  A    
C53   C58   A    
C119  C123  A    
C3    H21   S    
C64   C69   A    
Cu7   O35   S    
C30   C36   S    
C42   O39   A    
C60   C64   A    
C147  H11   S    
Cu12  O8    S    
C5    H24   S    
C52   C56   A    
C50   H23   S    
C49   C53   A    
C51   C55   A    
C81   Cl11  S    
C156  H16   S    
C87   C113  A    
C150  N9    A    
C61   C65   A    
C53   Cl6   S    
C48   C52   A    
C105  H45   S    
C125  C144  S    
C122  H8    S    
C75   C79   A    
C58   C150  S    
C79   C83   A    
C157  H17   S    
C48   H1    S    
C13   N14   A    
C63   H33   S    
C46   C89   A    
C5    C9    A    
C99   C108  A    
C43   O48   A    
C141  N2    A    
C142  N16   A    
C1    O1    A    
C68   C74   A    
C41   O38   A    
C151  O24   A    
C118  C122  A    
Cu6   O25   S    
C49   C117  A    
C115  C137  A    
N12   N13   A    
C95   O13   A    
C101  O18   A    
Cu12  O3    S    
C62   H32   S    
C114  C119  A    
C8    C12   A    
Cu10  O38   S    
C92   C97   A    
Cu1   O1    S    
C54   C59   A    
Cu2   O41   S    
C20   C153  S    
C62   C66   A    
C42   C140  S    
C107  H56   S    
C156  C160  A    
C143  N7    A    
C47   O8    A    
Cu11  O30   S    
Cu3   O48   S    
C39   O36   A    
C12   C145  A    
C121  C125  A    
C52   Cl5   S    
C123  C127  A    
C132  C136  A    
C51   H34   S    
C83   C110  A    
C23   C28   A    
C57   H47   S    
C102  C117  S    
C145  C154  A    
C115  H2    S    
Cu8   O18   S    
C26   C30   A    
Cu9   O19   S    
Cu10  O20   S    
C124  C141  S    
C103  O16   A    
C104  O21   A    
C114  C136  A    
C36   O41   A    
C26   H27   S    
C18   C22   A    
C107  C111  A    
C76   C80   A    
C71   H50   S    
C38   O47   A    
Cu5   Cu9   S    
N10   N11   A    
C153  O26   A    
Cu9   O10   S    
C37   O46   A    
Cu5   O32   S    
Cu4   O2    S    
C152  O25   A    
C74   H52   S    
Cu1   O14   S    
C146  H10   S    
C2    C56   S    
C67   C128  A    
C24   C59   S    
N4    N8    A    
Cu3   O42   S    
C148  C157  A    
C89   C93   A    
C77   C81   A    
C100  C109  A    
C70   C75   A    
C3    C157  A    
C141  N5    A    
C39   O31   A    
C64   H35   S    
C150  N12   A    
C51   C139  A    
C58   C62   A    
Cu2   O4    S    
C129  Cl12  S    
C15   C19   A    
C66   H37   S    
C50   C54   A    
C37   O42   A    
Cu4   O46   S    
C3    C7    A    
C69   H39   S    
C70   H49   S    
C71   C76   A    
C22   Cl2   S    
C97   H40   S    
C20   C25   A    
C101  C106  S    
C132  Cl16  S    
C7    H26   S    
C48   C106  A    
C146  C155  A    
C66   C117  A    
C12   C17   A    
C120  H6    S    
C149  O22   A    
Cu4   O43   S    
C118  H4    S    
C55   C60   A    
Cu1   Cu8   S    
C90   C94   A    
Cu8   O9    S    
C135  C140  A    
C76   H54   S    
Cu10  O11   S    
C151  O28   A    
C116  C121  A    
C99   H42   S    
C85   C89   A    
Cu3   O6    S    
C45   O7    A    
C33   C37   S    
C98   C107  A    
C108  C112  A    
C9    C14   A    
Cu9   O37   S    
C80   C85   A    
C11   C16   A    
C82   Cl13  S    
C40   O32   A    
C114  H60   S    
C40   C137  S    
C84   C94   S    
C134  Cl18  S    
C147  C156  A    
Cu5   O15   S    
C46   C71   A    
Cu6   O16   S    
C1    C92   S    
C68   H48   S    
Cu12  O40   S    
Cu2   O44   S    
C50   C128  A    
C18   C151  S    
C2    N1    A    
C31   C34   S    
C47   C113  S    
Cu10  O29   S    
C119  H5    S    
C38   O43   A    
C85   C111  A    
C6    C10   A    
C43   O5    A    
C73   O10   A    
Cu12  O45   S    
C149  O27   A    
C104  C139  S    
C8    C30   A    
C79   Cl9   S    
C15   C147  A    
C133  Cl17  S    
C34   O44   A    
C123  C142  S    
C131  Cl15  S    
C124  C129  A    
C57   C72   A    
C103  O20   A    
C44   C111  S    
C36   O45   A    
C74   C78   A    
C24   N10   A    
C78   H57   S    
C56   C61   A    
C100  H43   S    
C153  O30   A    
C158  H18   S    
C14   C18   A    
C95   C96   S    
C4    C8    A    
Cu7   O34   S    
C45   C112  S    
C7    C11   A    
C98   H41   S    
C126  C131  A    
C131  C135  A    
C10   C15   A    
Cu8   O36   S    
N2    N6    A    
C96   C100  A    
C68   C91   A    
Cu11  O39   S    
C127  C132  A    
C125  C130  A    
C21   Cl20  S    
C4    C158  A    
C88   C92   A    
C67   H38   S    
C28   H29   S    
C5    C159  A    
C32   C38   S    
Cu7   Cu11  S    
C75   H53   S    
C109  C113  A    
C104  O17   A    
Cu9   O28   S    
C127  Cl1   S    
Cu5   O24   S    
Cu6   O23   S    
C116  C138  A    
C73   O12   A    
C160  H20   S    
N3    N7    A    
C23   Cl3   S    
C35   C70   A    
C41   O33   A    
C2    N13   A    
C65   H36   S    
C102  O19   A    
C122  C126  A    
C86   C112  A    
C61   H31   S    
C72   C77   A    
C35   C88   A    
C19   C152  S    
C103  C128  S    
C154  H14   S    
Cu3   O47   S    
C143  N4    A    
Cu6   O33   S    
C40   O37   A    
Cu5   O12   S    
C65   C106  A    
C44   O2    A    
C45   O3    A    
C17   C149  S    
C134  C138  A    
C14   C146  A    
C16   C148  A    
C135  Cl19  S    
C145  H9    S    
Cu7   O17   S    
C84   O23   A    
C94   C99   A    
C95   O34   A    
C46   H46   S    
C144  N8    A    
Cu8   O27   S    
N14   N15   A    
C9    C31   A    
C10   C32   A    
C115  C120  A    
C35   H44   S    
C93   C98   A    
C120  C124  A    
Cu2   O7    S    
