data_mof_unit_50498.cif
_audit_creation_date              2012-12-11T15:12:22-0500
_audit_creation_method            fapswitch 2.2
_symmetry_space_group_name_H-M    P1
_symmetry_Int_Tables_number       1
_space_group_crystal_system       triclinic
_cell_length_a                    31.240732
_cell_length_b                    22.476547
_cell_length_c                    17.857975
_cell_angle_alpha                 89.999988
_cell_angle_beta                  123.588618
_cell_angle_gamma                 90.0
_cell_volume                      10445.8611807

loop_
_atom_site_label
_atom_site_type_symbol
_atom_type_description
_atom_site_fract_x
_atom_site_fract_y
_atom_site_fract_z
_atom_type_partial_charge
C1    C     C_R   0.535543 0.604872 0.716592 -0.104761
C2    C     C_R   0.455899 0.417877 0.256528 -0.120630
C3    C     C_R   0.464457 0.604872 0.283407 -0.104761
C4    C     C_R   0.544101 0.417877 0.743472 -0.120629
C5    C     C_R   0.035543 0.104872 0.716592 -0.104761
C6    C     C_R   0.955899 0.917877 0.256528 -0.120630
C7    C     C_R   0.964457 0.104872 0.283407 -0.104761
C8    C     C_R   0.044101 0.917877 0.743472 -0.120629
C9    C     C_R   0.696506 0.300403 0.438305 0.143592
C10   C     C_R   0.264918 0.658386 0.537400 0.139037
C11   C     C_R   0.303494 0.300403 0.561695 0.143592
C12   C     C_R   0.735082 0.658386 0.462600 0.139036
C13   C     C_R   0.196506 0.800403 0.438305 0.143592
C14   C     C_R   0.764918 0.158386 0.537400 0.139036
C15   C     C_R   0.803493 0.800404 0.561694 0.143592
C16   C     C_R   0.235082 0.158386 0.462600 0.139037
C17   C     C_R   0.709619 0.244768 0.482009 0.027345
C18   C     C_R   0.249960 0.712891 0.490156 0.026362
C19   C     C_R   0.290380 0.244768 0.517991 0.027346
C20   C     C_R   0.750040 0.712892 0.509844 0.026361
C21   C     C_R   0.209619 0.744768 0.482009 0.027345
C22   C     C_R   0.749960 0.212892 0.490156 0.026361
C23   C     C_R   0.790380 0.744768 0.517990 0.027346
C24   C     C_R   0.250040 0.212892 0.509844 0.026361
C25   C     C_R   0.683812 0.222376 0.520799 0.131788
C26   C     C_R   0.276129 0.736187 0.452618 0.147934
C27   C     C_R   0.316188 0.222376 0.479201 0.131788
C28   C     C_R   0.723871 0.736188 0.547381 0.147934
C29   C     C_R   0.183812 0.722376 0.520799 0.131788
C30   C     C_R   0.776129 0.236188 0.452618 0.147935
C31   C     C_R   0.816188 0.722376 0.479202 0.131788
C32   C     C_R   0.223871 0.236187 0.547382 0.147934
C33   C     C_R   0.721491 0.322337 0.398881 -0.209769
C34   C     C_R   0.238346 0.635476 0.573480 -0.206110
C35   C     C_R   0.278509 0.322337 0.601120 -0.209768
C36   C     C_R   0.761654 0.635476 0.426521 -0.206110
C37   C     C_R   0.221491 0.822337 0.398881 -0.209770
C38   C     C_R   0.738346 0.135476 0.573480 -0.206109
C39   C     C_R   0.778509 0.822337 0.601118 -0.209769
C40   C     C_R   0.261653 0.135476 0.426520 -0.206111
C41   C     C_R   0.261237 0.790036 0.405713 -0.207558
C42   C     C_R   0.697704 0.167388 0.564957 -0.206336
C43   C     C_R   0.738762 0.790037 0.594285 -0.207558
C44   C     C_R   0.302296 0.167388 0.435043 -0.206335
C45   C     C_R   0.761237 0.290036 0.405713 -0.207559
C46   C     C_R   0.197704 0.667388 0.564957 -0.206336
C47   C     C_R   0.238763 0.290036 0.594287 -0.207559
C48   C     C_R   0.802296 0.667388 0.435044 -0.206336
C49   C     C_R   0.399591 0.688138 0.192196 -0.027660
C50   C     C_R   0.623771 0.377769 0.887597 -0.017679
C51   C     C_R   0.600409 0.688138 0.807804 -0.027661
C52   C     C_R   0.376229 0.377769 0.112403 -0.017679
C53   C     C_R   0.899591 0.188138 0.192196 -0.027660
C54   C     C_R   0.123771 0.877769 0.887597 -0.017679
C55   C     C_R   0.100409 0.188138 0.807804 -0.027661
C56   C     C_R   0.876229 0.877769 0.112403 -0.017678
C57   C     C_R   0.387484 0.747237 0.067969 -0.289551
C58   C     C_R   0.629902 0.309778 0.999156 -0.295391
C59   C     C_R   0.612516 0.747237 0.932032 -0.289551
C60   C     C_R   0.370098 0.309778 0.000844 -0.295392
C61   C     C_R   0.887484 0.247237 0.067969 -0.289551
C62   C     C_R   0.129902 0.809778 0.999156 -0.295391
C63   C     C_R   0.112516 0.247237 0.932031 -0.289551
C64   C     C_R   0.870098 0.809778 0.000844 -0.295392
C65   C     C_R   0.410582 0.698950 0.126445 0.179780
C66   C     C_R   0.599723 0.340481 0.917919 0.182119
C67   C     C_R   0.589418 0.698950 0.873555 0.179781
C68   C     C_R   0.400277 0.340481 0.082081 0.182119
C69   C     C_R   0.910582 0.198950 0.126445 0.179780
C70   C     C_R   0.099723 0.840481 0.917919 0.182119
C71   C     C_R   0.089418 0.198950 0.873555 0.179779
C72   C     C_R   0.900277 0.840481 0.082081 0.182119
C73   C     C_R   0.367936 0.728362 0.200889 0.064609
C74   C     C_R   0.677185 0.386877 0.944008 0.054914
C75   C     C_R   0.632063 0.728362 0.799111 0.064610
C76   C     C_R   0.322815 0.386877 0.055992 0.054914
C77   C     C_R   0.867936 0.228362 0.200889 0.064609
C78   C     C_R   0.177185 0.886877 0.944008 0.054914
C79   C     C_R   0.132063 0.228362 0.799111 0.064609
C80   C     C_R   0.822815 0.886877 0.055992 0.054914
C81   C     C_R   0.335518 0.767080 0.128448 0.027148
C82   C     C_R   0.707432 0.344070 0.011306 0.030790
C83   C     C_R   0.664482 0.767080 0.871552 0.027148
C84   C     C_R   0.292568 0.344070 0.988694 0.030789
C85   C     C_R   0.835518 0.267080 0.128448 0.027147
C86   C     C_R   0.207432 0.844070 0.011306 0.030790
C87   C     C_R   0.164482 0.267080 0.871552 0.027147
C88   C     C_R   0.792568 0.844070 0.988694 0.030790
C89   C     C_R   0.639014 0.593188 0.571359 0.181385
C90   C     C_R   0.375834 0.388717 0.428136 0.192220
C91   C     C_R   0.360986 0.593188 0.428641 0.181385
C92   C     C_R   0.624166 0.388717 0.571864 0.192220
C93   C     C_R   0.139014 0.093188 0.571359 0.181385
C94   C     C_R   0.875834 0.888718 0.428136 0.192220
C95   C     C_R   0.860986 0.093188 0.428641 0.181385
C96   C     C_R   0.124166 0.888718 0.571864 0.192220
C97   C     C_R   0.349125 0.780072 0.066732 0.130254
C98   C     C_R   0.683324 0.309123 0.043595 0.135257
C99   C     C_R   0.650875 0.780072 0.933269 0.130254
C100  C     C_R   0.316676 0.309123 0.956405 0.135257
C101  C     C_R   0.849125 0.280072 0.066732 0.130254
C102  C     C_R   0.183324 0.809123 0.043595 0.135257
C103  C     C_R   0.150875 0.280072 0.933268 0.130254
C104  C     C_R   0.816676 0.809123 0.956406 0.135257
C105  C     C_R   0.287326 0.787703 0.109403 0.091528
C106  C     C_R   0.758560 0.329747 0.038913 0.081124
C107  C     C_R   0.712674 0.787703 0.890597 0.091527
C108  C     C_R   0.241439 0.329747 0.961087 0.081124
C109  C     C_R   0.787326 0.287703 0.109403 0.091528
C110  C     C_R   0.258561 0.829747 0.038913 0.081124
C111  C     C_R   0.212674 0.287703 0.890597 0.091528
C112  C     C_R   0.741439 0.829747 0.961087 0.081124
C113  C     C_R   0.778083 0.348262 0.987850 -0.215364
C114  C     C_R   0.263430 0.760062 0.148209 -0.222984
C115  C     C_R   0.221916 0.348262 0.012150 -0.215363
C116  C     C_R   0.736570 0.760062 0.851792 -0.222984
C117  C     C_R   0.278083 0.848262 0.987850 -0.215363
C118  C     C_R   0.763430 0.260062 0.148209 -0.222984
C119  C     C_R   0.721917 0.848262 0.012150 -0.215363
C120  C     C_R   0.236570 0.260062 0.851791 -0.222984
C121  C     C_R   0.822048 0.322905 0.000436 -0.193813
C122  C     C_R   0.212180 0.770301 0.115270 -0.201317
C123  C     C_R   0.177952 0.322905 0.999564 -0.193813
C124  C     C_R   0.787820 0.770301 0.884730 -0.201316
C125  C     C_R   0.322048 0.822905 0.000436 -0.193813
C126  C     C_R   0.712180 0.270301 0.115270 -0.201317
C127  C     C_R   0.677952 0.822905 0.999564 -0.193813
C128  C     C_R   0.287820 0.270301 0.884729 -0.201317
C129  C     C_R   0.588460 0.593265 0.421791 -0.182657
C130  C     C_R   0.428975 0.388671 0.577524 -0.201647
C131  C     C_R   0.411540 0.593265 0.578209 -0.182657
C132  C     C_R   0.571025 0.388671 0.422476 -0.201648
C133  C     C_R   0.088460 0.093265 0.421791 -0.182657
C134  C     C_R   0.928975 0.888671 0.577524 -0.201647
C135  C     C_R   0.911540 0.093265 0.578209 -0.182657
C136  C     C_R   0.071025 0.888671 0.422476 -0.201648
C137  C     C_R   0.391365 0.603600 0.279314 -0.154746
C138  C     C_R   0.615689 0.417139 0.744722 -0.123847
C139  C     C_R   0.608634 0.603599 0.720686 -0.154746
C140  C     C_R   0.384310 0.417139 0.255278 -0.123847
C141  C     C_R   0.891366 0.103599 0.279314 -0.154746
C142  C     C_R   0.115689 0.917138 0.744722 -0.123847
C143  C     C_R   0.108634 0.103599 0.720686 -0.154746
C144  C     C_R   0.884310 0.917138 0.255278 -0.123847
C145  C     C_R   0.581820 0.634312 0.750473 0.085398
C146  C     C_R   0.404723 0.401964 0.205250 0.072480
C147  C     C_R   0.418180 0.634312 0.249527 0.085397
C148  C     C_R   0.595277 0.401964 0.794750 0.072480
C149  C     C_R   0.081820 0.134312 0.750473 0.085397
C150  C     C_R   0.904723 0.901964 0.205250 0.072480
C151  C     C_R   0.918180 0.134312 0.249527 0.085397
C152  C     C_R   0.095277 0.901964 0.794750 0.072480
C153  C     C_R   0.632436 0.616572 0.494529 -0.007426
C154  C     C_R   0.392709 0.355497 0.505708 0.015031
C155  C     C_R   0.367564 0.616572 0.505471 -0.007426
C156  C     C_R   0.607291 0.355497 0.494292 0.015031
C157  C     C_R   0.132436 0.116572 0.494529 -0.007426
C158  C     C_R   0.892709 0.855497 0.505708 0.015031
C159  C     C_R   0.867564 0.116572 0.505471 -0.007426
C160  C     C_R   0.107291 0.855497 0.494292 0.015031
C161  C     C_R   0.646546 0.257165 0.518804 -0.263020
C162  C     C_R   0.316770 0.704959 0.462471 -0.299016
C163  C     C_R   0.353454 0.257165 0.481196 -0.263021
C164  C     C_R   0.683229 0.704960 0.537528 -0.299017
C165  C     C_R   0.146546 0.757165 0.518804 -0.263020
C166  C     C_R   0.816770 0.204959 0.462471 -0.299015
C167  C     C_R   0.853454 0.757165 0.481197 -0.263021
C168  C     C_R   0.183230 0.204959 0.537529 -0.299016
C169  C     C_R   0.637707 0.314142 0.482839 0.142680
C170  C     C_R   0.330848 0.651233 0.508420 0.117497
C171  C     C_R   0.362293 0.314142 0.517161 0.142679
C172  C     C_R   0.669152 0.651233 0.491580 0.117497
C173  C     C_R   0.137707 0.814142 0.482839 0.142679
C174  C     C_R   0.830848 0.151233 0.508420 0.117497
C175  C     C_R   0.862293 0.814142 0.517161 0.142680
C176  C     C_R   0.169152 0.151233 0.491580 0.117497
C177  C     C_R   0.660611 0.334833 0.439406 -0.284654
C178  C     C_R   0.306061 0.627766 0.546867 -0.256182
C179  C     C_R   0.339389 0.334833 0.560594 -0.284654
C180  C     C_R   0.693939 0.627766 0.453134 -0.256182
C181  C     C_R   0.160611 0.834833 0.439406 -0.284654
C182  C     C_R   0.806061 0.127766 0.546866 -0.256182
C183  C     C_R   0.839388 0.834833 0.560593 -0.284654
C184  C     C_R   0.193939 0.127766 0.453133 -0.256182
H1    H     H_    0.506367 0.615300 0.728651 0.130318
H2    H     H_    0.480919 0.422533 0.232997 0.127796
H3    H     H_    0.493633 0.615301 0.271349 0.130318
H4    H     H_    0.519081 0.422533 0.767003 0.127796
H5    H     H_    0.006367 0.115300 0.728651 0.130318
H6    H     H_    0.980919 0.922533 0.232997 0.127796
H7    H     H_    0.993633 0.115301 0.271349 0.130318
H8    H     H_    0.019081 0.922533 0.767003 0.127795
H9    H     H_    0.396495 0.755871 0.018406 0.141403
H10   H     H_    0.611326 0.281667 0.022451 0.141220
H11   H     H_    0.603505 0.755871 0.981594 0.141404
H12   H     H_    0.388674 0.281667 0.977549 0.141220
H13   H     H_    0.896495 0.255871 0.018406 0.141403
H14   H     H_    0.111326 0.781667 0.022451 0.141220
H15   H     H_    0.103505 0.255871 0.981594 0.141403
H16   H     H_    0.888674 0.781667 0.977550 0.141220
H17   H     H_    0.756803 0.376821 0.930335 0.129369
H18   H     H_    0.281569 0.724959 0.196953 0.136110
H19   H     H_    0.243197 0.376821 0.069665 0.129369
H20   H     H_    0.718430 0.724959 0.803047 0.136110
H21   H     H_    0.256803 0.876821 0.930335 0.129369
H22   H     H_    0.781570 0.224959 0.196953 0.136110
H23   H     H_    0.743197 0.876821 0.069665 0.129368
H24   H     H_    0.218430 0.224959 0.803047 0.136110
H25   H     H_    0.576474 0.595398 0.352341 0.114407
H26   H     H_    0.446742 0.378306 0.647774 0.131839
H27   H     H_    0.423526 0.595398 0.647659 0.114407
H28   H     H_    0.553258 0.378306 0.352226 0.131840
H29   H     H_    0.076474 0.095398 0.352341 0.114407
H30   H     H_    0.946742 0.878306 0.647774 0.131839
H31   H     H_    0.923526 0.095398 0.647659 0.114407
H32   H     H_    0.053258 0.878306 0.352226 0.131840
H33   H     H_    0.352269 0.611627 0.258029 0.128075
H34   H     H_    0.655709 0.418083 0.769057 0.117971
H35   H     H_    0.647731 0.611627 0.741971 0.128075
H36   H     H_    0.344291 0.418083 0.230943 0.117971
H37   H     H_    0.852269 0.111627 0.258029 0.128075
H38   H     H_    0.155709 0.918083 0.769057 0.117971
H39   H     H_    0.147731 0.111627 0.741971 0.128075
H40   H     H_    0.844291 0.918083 0.230943 0.117971
H41   H     H_    0.627011 0.241878 0.549972 0.135180
H42   H     H_    0.336784 0.721364 0.432613 0.133959
H43   H     H_    0.372989 0.241879 0.450028 0.135181
H44   H     H_    0.663215 0.721365 0.567386 0.133959
H45   H     H_    0.127011 0.741878 0.549972 0.135180
H46   H     H_    0.836784 0.221364 0.432613 0.133958
H47   H     H_    0.872989 0.741878 0.450029 0.135181
H48   H     H_    0.163216 0.221364 0.567387 0.133958
H49   H     H_    0.652508 0.379298 0.410901 0.130433
H50   H     H_    0.317655 0.585046 0.580804 0.125756
H51   H     H_    0.347492 0.379297 0.589099 0.130433
H52   H     H_    0.682346 0.585045 0.419197 0.125756
H53   H     H_    0.152508 0.879298 0.410901 0.130433
H54   H     H_    0.817655 0.085046 0.580804 0.125756
H55   H     H_    0.847491 0.879298 0.589098 0.130433
H56   H     H_    0.182345 0.085046 0.419196 0.125756
H57   H     H_    0.711071 0.364933 0.364716 0.131692
H58   H     H_    0.249394 0.593404 0.609063 0.130336
H59   H     H_    0.288930 0.364933 0.635285 0.131692
H60   H     H_    0.750607 0.593403 0.390939 0.130336
H61   H     H_    0.211070 0.864933 0.364716 0.131692
H62   H     H_    0.749394 0.093404 0.609063 0.130336
H63   H     H_    0.788928 0.864933 0.635282 0.131692
H64   H     H_    0.250606 0.093404 0.390937 0.130336
H65   H     H_    0.280918 0.807560 0.375998 0.138440
H66   H     H_    0.678078 0.149932 0.594768 0.133627
H67   H     H_    0.719081 0.807561 0.624000 0.138440
H68   H     H_    0.321922 0.149932 0.405232 0.133627
H69   H     H_    0.780918 0.307560 0.375999 0.138440
H70   H     H_    0.178078 0.649932 0.594768 0.133627
H71   H     H_    0.219082 0.307560 0.624002 0.138440
H72   H     H_    0.821922 0.649932 0.405234 0.133627
H73   H     H_    0.833112 0.334319 0.954395 0.131744
H74   H     H_    0.194173 0.744452 0.141891 0.133298
H75   H     H_    0.166888 0.334319 0.045605 0.131744
H76   H     H_    0.805827 0.744452 0.858109 0.133298
H77   H     H_    0.333112 0.834319 0.954395 0.131744
H78   H     H_    0.694173 0.244452 0.141891 0.133298
H79   H     H_    0.666888 0.834319 0.045605 0.131744
H80   H     H_    0.305827 0.244452 0.858109 0.133298
N1    N     N_R   0.532970 0.559900 0.665210 -0.045570
N2    N     N_R   0.467030 0.440100 0.334790 -0.044205
N3    N     N_R   0.467030 0.559900 0.334790 -0.045570
N4    N     N_R   0.532970 0.440100 0.665210 -0.044205
N5    N     N_R   0.032970 0.059900 0.665210 -0.045570
N6    N     N_R   0.967030 0.940100 0.334790 -0.044205
N7    N     N_R   0.967030 0.059900 0.334790 -0.045570
N8    N     N_R   0.032970 0.940100 0.665210 -0.044205
N9    N     N_R   0.597900 0.559930 0.545530 -0.049343
N10   N     N_R   0.402100 0.440070 0.454470 -0.070214
N11   N     N_R   0.402100 0.559930 0.454470 -0.049343
N12   N     N_R   0.597900 0.440070 0.545530 -0.070214
N13   N     N_R   0.097900 0.059930 0.545530 -0.049343
N14   N     N_R   0.902100 0.940070 0.454470 -0.070214
N15   N     N_R   0.902100 0.059930 0.454470 -0.049343
N16   N     N_R   0.097900 0.940070 0.545530 -0.070214
N17   N     N_R   0.567170 0.559950 0.454460 -0.050409
N18   N     N_R   0.432830 0.440050 0.545540 -0.053960
N19   N     N_R   0.432830 0.559950 0.545540 -0.050409
N20   N     N_R   0.567170 0.440050 0.454460 -0.053960
N21   N     N_R   0.067170 0.059950 0.454460 -0.050409
N22   N     N_R   0.932830 0.940050 0.545540 -0.053960
N23   N     N_R   0.932830 0.059950 0.545540 -0.050409
N24   N     N_R   0.067170 0.940050 0.454460 -0.053960
N25   N     N_R   0.421470 0.559970 0.334770 -0.039081
N26   N     N_R   0.578530 0.440030 0.665230 -0.043107
N27   N     N_R   0.578530 0.559970 0.665230 -0.039081
N28   N     N_R   0.421470 0.440030 0.334770 -0.043107
N29   N     N_R   0.921470 0.059970 0.334770 -0.039081
N30   N     N_R   0.078530 0.940030 0.665230 -0.043107
N31   N     N_R   0.078530 0.059970 0.665230 -0.039081
N32   N     N_R   0.921470 0.940030 0.334770 -0.043108
Ni1   Ni    Ni4+2 0.483030 0.500000 0.604430 0.203831
Ni2   Ni    Ni4+2 0.516970 0.500000 0.395570 0.203831
Ni3   Ni    Ni4+2 0.983030 0.000000 0.604430 0.203831
Ni4   Ni    Ni4+2 0.016970 0.000000 0.395570 0.203831
Ni5   Ni    Ni4+2 0.587400 0.500000 0.604430 0.211985
Ni6   Ni    Ni4+2 0.412600 0.500000 0.395570 0.211985
Ni7   Ni    Ni4+2 0.087400 0.000000 0.604430 0.211985
Ni8   Ni    Ni4+2 0.912600 0.000000 0.395570 0.211985
N33   N     N_2   0.697014 0.444618 0.945706 -0.104076
H81   H     H_    0.708790 0.452722 0.903148 0.154499
C185  C     C_3   0.727263 0.473949 0.032086 -0.879965
H82   H     H_    0.731900 0.521631 0.021823 0.241993
H83   H     H_    0.765959 0.453431 0.073561 0.248293
H84   H     H_    0.707566 0.471177 0.068132 0.252671
N34   N     N_2   0.376326 0.736136 0.287630 -0.102666
H85   H     H_    0.359875 0.706391 0.308340 0.151956
C186  C     C_3   0.383890 0.795969 0.322789 -0.887949
H86   H     H_    0.346481 0.819014 0.293215 0.245019
H87   H     H_    0.408943 0.821698 0.308420 0.258373
H88   H     H_    0.402904 0.793952 0.396778 0.243508
N35   N     N_2   0.302986 0.444618 0.054294 -0.104076
H89   H     H_    0.291210 0.452722 0.096852 0.154499
C187  C     C_3   0.272737 0.473949 0.967914 -0.879967
H90   H     H_    0.268100 0.521631 0.978177 0.241994
H91   H     H_    0.234041 0.453431 0.926439 0.248294
H92   H     H_    0.292434 0.471177 0.931868 0.252671
N36   N     N_2   0.623674 0.736136 0.712370 -0.102666
H93   H     H_    0.640125 0.706391 0.691660 0.151956
C188  C     C_3   0.616110 0.795969 0.677211 -0.887949
H94   H     H_    0.653519 0.819014 0.706785 0.245019
H95   H     H_    0.591057 0.821698 0.691580 0.258373
H96   H     H_    0.597096 0.793952 0.603222 0.243507
N37   N     N_2   0.197014 0.944618 0.945706 -0.104076
H97   H     H_    0.208790 0.952722 0.903148 0.154499
C189  C     C_3   0.227263 0.973949 0.032086 -0.879965
H98   H     H_    0.231900 0.021631 0.021823 0.241993
H99   H     H_    0.265959 0.953431 0.073561 0.248293
H100  H     H_    0.207566 0.971177 0.068132 0.252671
N38   N     N_2   0.876326 0.236136 0.287630 -0.102666
H101  H     H_    0.859875 0.206391 0.308340 0.151956
C190  C     C_3   0.883890 0.295969 0.322789 -0.887949
H102  H     H_    0.846481 0.319014 0.293215 0.245019
H103  H     H_    0.908943 0.321698 0.308420 0.258373
H104  H     H_    0.902904 0.293952 0.396778 0.243508
N39   N     N_2   0.802986 0.944618 0.054294 -0.104076
H105  H     H_    0.791210 0.952721 0.096852 0.154499
C191  C     C_3   0.772737 0.973949 0.967914 -0.879965
H106  H     H_    0.768099 0.021631 0.978177 0.241993
H107  H     H_    0.734041 0.953431 0.926439 0.248294
H108  H     H_    0.792434 0.971177 0.931868 0.252670
N40   N     N_2   0.123674 0.236136 0.712370 -0.102666
H109  H     H_    0.140125 0.206391 0.691660 0.151955
C192  C     C_3   0.116110 0.295969 0.677211 -0.887948
H110  H     H_    0.153519 0.319014 0.706785 0.245019
H111  H     H_    0.091057 0.321698 0.691580 0.258373
H112  H     H_    0.097096 0.293952 0.603222 0.243507
N41   N     N_2   0.545707 0.331199 0.865606 -0.115075
H113  H     H_    0.535917 0.286866 0.851722 0.173026
C193  C     C_3   0.518944 0.360018 0.900820 -0.964469
H114  H     H_    0.476851 0.355265 0.851877 0.250530
H115  H     H_    0.528395 0.408224 0.911654 0.260419
H116  H     H_    0.529566 0.339246 0.965412 0.256923
N42   N     N_2   0.443022 0.660386 0.116111 -0.114993
H117  H     H_    0.424784 0.642240 0.052545 0.173256
C194  C     C_3   0.492316 0.685863 0.144176 -0.956829
H118  H     H_    0.517001 0.650954 0.142756 0.249383
H119  H     H_    0.511983 0.703368 0.213886 0.261572
H120  H     H_    0.487388 0.722422 0.098139 0.254544
N43   N     N_2   0.454293 0.331200 0.134394 -0.115075
H121  H     H_    0.464083 0.286866 0.148278 0.173026
C195  C     C_3   0.481056 0.360018 0.099180 -0.964472
H122  H     H_    0.523149 0.355265 0.148122 0.250531
H123  H     H_    0.471605 0.408224 0.088346 0.260419
H124  H     H_    0.470434 0.339246 0.034588 0.256924
N44   N     N_2   0.556978 0.660385 0.883889 -0.114993
H125  H     H_    0.575215 0.642240 0.947455 0.173256
C196  C     C_3   0.507684 0.685862 0.855824 -0.956829
H126  H     H_    0.482999 0.650953 0.857244 0.249383
H127  H     H_    0.488017 0.703367 0.786115 0.261572
H128  H     H_    0.512612 0.722422 0.901861 0.254544
N45   N     N_2   0.045707 0.831199 0.865606 -0.115075
H129  H     H_    0.035917 0.786866 0.851722 0.173026
C197  C     C_3   0.018944 0.860018 0.900820 -0.964470
H130  H     H_    0.976851 0.855265 0.851878 0.250530
H131  H     H_    0.028395 0.908224 0.911654 0.260419
H132  H     H_    0.029566 0.839246 0.965412 0.256924
N46   N     N_2   0.943022 0.160386 0.116111 -0.114993
H133  H     H_    0.924784 0.142240 0.052545 0.173256
C198  C     C_3   0.992316 0.185863 0.144176 -0.956828
H134  H     H_    0.017001 0.150954 0.142756 0.249383
H135  H     H_    0.011983 0.203368 0.213886 0.261572
H136  H     H_    0.987388 0.222422 0.098139 0.254544
N47   N     N_2   0.954293 0.831200 0.134394 -0.115075
H137  H     H_    0.964083 0.786866 0.148278 0.173026
C199  C     C_3   0.981056 0.860018 0.099180 -0.964472
H138  H     H_    0.023149 0.855265 0.148122 0.250531
H139  H     H_    0.971605 0.908224 0.088346 0.260419
H140  H     H_    0.970434 0.839246 0.034588 0.256924
N48   N     N_2   0.056978 0.160385 0.883889 -0.114993
H141  H     H_    0.075216 0.142240 0.947455 0.173256
C200  C     C_3   0.007684 0.185862 0.855824 -0.956829
H142  H     H_    0.982999 0.150954 0.857244 0.249383
H143  H     H_    0.988017 0.203368 0.786114 0.261572
H144  H     H_    0.012612 0.222422 0.901861 0.254544
N49   N     N_2   0.686115 0.590826 0.657451 -0.130879
H145  H     H_    0.715040 0.617458 0.664755 0.174249
C201  C     C_3   0.703608 0.532034 0.694823 -0.964109
H146  H     H_    0.739881 0.535559 0.762359 0.249737
H147  H     H_    0.710944 0.505371 0.650669 0.250221
H148  H     H_    0.674825 0.509398 0.702757 0.260678
N50   N     N_2   0.327358 0.382564 0.345405 -0.121491
H149  H     H_    0.296955 0.398799 0.346777 0.169511
C202  C     C_3   0.316805 0.326485 0.298360 -0.956522
H150  H     H_    0.293817 0.334884 0.224927 0.248181
H151  H     H_    0.293641 0.297316 0.312970 0.261870
H152  H     H_    0.352875 0.303604 0.316390 0.257558
N51   N     N_2   0.313885 0.590826 0.342549 -0.130879
H153  H     H_    0.284960 0.617458 0.335245 0.174250
C203  C     C_3   0.296391 0.532034 0.305177 -0.964110
H154  H     H_    0.260119 0.535559 0.237641 0.249737
H155  H     H_    0.289056 0.505371 0.349331 0.250222
H156  H     H_    0.325174 0.509398 0.297243 0.260678
N52   N     N_2   0.672642 0.382564 0.654594 -0.121491
H157  H     H_    0.703045 0.398799 0.653223 0.169511
C204  C     C_3   0.683195 0.326485 0.701640 -0.956523
H158  H     H_    0.706183 0.334884 0.775073 0.248181
H159  H     H_    0.706359 0.297317 0.687030 0.261871
H160  H     H_    0.647125 0.303604 0.683610 0.257558
N53   N     N_2   0.186115 0.090826 0.657451 -0.130879
H161  H     H_    0.215040 0.117458 0.664755 0.174250
C205  C     C_3   0.203608 0.032034 0.694823 -0.964110
H162  H     H_    0.239881 0.035559 0.762359 0.249737
H163  H     H_    0.210944 0.005371 0.650669 0.250222
H164  H     H_    0.174825 0.009398 0.702757 0.260678
N54   N     N_2   0.827358 0.882564 0.345405 -0.121491
H165  H     H_    0.796955 0.898799 0.346777 0.169511
C206  C     C_3   0.816805 0.826485 0.298360 -0.956522
H166  H     H_    0.793817 0.834884 0.224928 0.248181
H167  H     H_    0.793642 0.797317 0.312970 0.261871
H168  H     H_    0.852875 0.803604 0.316391 0.257558
N55   N     N_2   0.813885 0.090826 0.342549 -0.130879
H169  H     H_    0.784960 0.117458 0.335245 0.174250
C207  C     C_3   0.796392 0.032034 0.305177 -0.964107
H170  H     H_    0.760119 0.035559 0.237641 0.249737
H171  H     H_    0.789056 0.005371 0.349331 0.250221
H172  H     H_    0.825174 0.009398 0.297243 0.260678
N56   N     N_2   0.172642 0.882564 0.654594 -0.121491
H173  H     H_    0.203045 0.898799 0.653223 0.169511
C208  C     C_3   0.183195 0.826485 0.701640 -0.956524
H174  H     H_    0.206182 0.834884 0.775073 0.248182
H175  H     H_    0.206358 0.797317 0.687030 0.261871
H176  H     H_    0.147125 0.803604 0.683610 0.257558

loop_
_geom_bond_atom_site_label_1
_geom_bond_atom_site_label_2
_ccdc_geom_bond_type
C199  H140  S    
C205  H162  S    
C130  C154  A    
C6    N6    A    
C18   C21   A    
C33   C45   A    
C107  C112  A    
C30   C45   A    
N10   N18   A    
C105  C110  A    
C103  C123  A    
C139  N27   A    
C190  H102  S    
N55   H169  S    
C58   C66   A    
C170  C178  A    
C201  H147  S    
C200  H143  S    
N2    Ni2   S    
C51   C145  S    
C4    C148  A    
C37   H61   S    
C62   C70   A    
N3    Ni2   S    
N53   H161  S    
C88   C104  A    
C140  H36   S    
C56   C72   A    
C115  H19   S    
C113  H17   S    
C92   N12   A    
C116  C124  A    
C93   N13   A    
N49   C201  S    
C53   C69   A    
N51   C203  S    
C141  C151  A    
C79   C87   A    
C165  H45   S    
N25   Ni6   S    
C82   C98   A    
C163  H43   S    
N10   Ni6   S    
C73   C81   A    
N41   C193  S    
C109  C118  A    
C68   N43   S    
C194  H120  S    
C166  C174  A    
C115  C123  A    
N36   H93   S    
C96   N16   A    
C69   N46   S    
C196  H128  S    
C61   H13   S    
N38   C190  S    
C54   C152  S    
C20   C28   A    
C123  H75   S    
C21   C29   A    
C23   C31   A    
C24   C32   A    
C14   C38   A    
C193  H114  S    
C54   C70   A    
C206  H168  S    
C57   C97   A    
C12   C20   A    
N24   Ni4   S    
C13   C21   A    
N29   Ni8   S    
N8    Ni3   S    
C15   C39   A    
N30   Ni7   S    
C74   N33   S    
C16   C40   A    
C87   C103  A    
C31   C167  A    
C31   C48   A    
C64   H16   S    
N47   H137  S    
C32   C47   A    
C49   C73   A    
C11   C179  A    
C129  H25   S    
N46   H133  S    
C190  H104  S    
C9    C177  A    
C175  C183  A    
C176  C184  A    
C67   N44   S    
C52   C146  S    
N15   Ni8   S    
C86   C110  A    
C5    N5    A    
C64   C104  A    
C60   C100  A    
C3    H3    S    
N17   Ni2   S    
C84   C100  A    
C39   C43   A    
C16   C184  A    
C89   N49   S    
C1    H1    S    
C142  N30   A    
C29   C46   A    
C117  H21   S    
C108  C111  A    
C17   C25   A    
C4    H4    S    
C11   C35   A    
C5    H5    S    
C80   C88   A    
N43   H121  S    
C118  H22   S    
C143  N31   A    
C8    H8    S    
C91   N11   A    
C134  N22   A    
C195  H124  S    
C208  H174  S    
N56   C208  S    
N6    N32   A    
N38   H101  S    
C43   H67   S    
C143  C149  A    
C180  H52   S    
C137  H33   S    
N42   H117  S    
N1    N27   A    
C65   N42   S    
N2    N28   A    
C202  H150  S    
C184  H56   S    
C55   C71   A    
C141  H37   S    
C198  H135  S    
C187  H91   S    
C3    C147  A    
C192  H110  S    
C160  C173  S    
C33   H57   S    
N52   H157  S    
C58   C98   A    
C174  C182  A    
C131  N19   A    
N49   H145  S    
C5    C149  A    
N54   C206  S    
C205  H163  S    
C95   C159  A    
C108  C115  A    
C8    C152  A    
C144  N32   A    
N7    Ni4   S    
C50   C74   A    
C186  H87   S    
C29   C165  A    
C2    N2    A    
C188  H95   S    
C144  C150  A    
C59   C67   A    
C27   C44   A    
C25   C161  A    
C90   N50   S    
N33   C185  S    
C75   N36   S    
C203  H155  S    
C34   C46   A    
N11   N19   A    
N12   Ni5   S    
C161  C169  A    
C41   H65   S    
C77   C85   A    
N37   C189  S    
C70   N45   S    
C171  C179  A    
C169  C177  A    
C162  H42   S    
C55   C149  S    
N39   C191  S    
C81   C105  A    
C91   N51   S    
N5    N31   A    
C106  C113  A    
N42   C194  S    
C178  H50   S    
C197  H132  S    
C76   N35   S    
N12   N20   A    
N13   N21   A    
N36   C188  S    
N15   N23   A    
C208  H176  S    
C61   C101  A    
C94   N14   A    
C189  H99   S    
N19   Ni1   S    
N54   H165  S    
C20   C23   A    
C90   N10   A    
N26   Ni5   S    
C51   C67   A    
C202  H152  S    
C60   C68   A    
C134  C158  A    
C204  H160  S    
C13   C181  A    
N34   C186  S    
N21   Ni4   S    
C131  H27   S    
N22   Ni3   S    
C164  C172  A    
C192  H111  S    
C56   C150  S    
C92   C156  A    
C167  C175  A    
C181  H53   S    
C168  C176  A    
C22   C30   A    
C193  H115  S    
C100  C128  A    
N16   Ni7   S    
C52   C76   A    
C104  C124  A    
C192  H112  S    
C56   C80   A    
C185  H84   S    
C14   C22   A    
C191  H107  S    
C8    N8    A    
C200  H142  S    
C88   C112  A    
C129  C153  A    
C153  C172  S    
N20   Ni2   S    
C132  C156  A    
C154  C171  S    
C36   C48   A    
C133  C157  A    
C77   N38   S    
C37   C41   A    
C129  N17   A    
C189  H100  S    
C107  C116  A    
N45   C197  S    
C157  C176  S    
C136  C160  A    
C139  H35   S    
C158  C175  S    
C40   C44   A    
C113  C121  A    
C94   C158  A    
C125  H77   S    
C53   C151  S    
C71   N48   S    
C54   C78   A    
C35   C47   A    
C117  C125  A    
N18   Ni1   S    
C121  H73   S    
C62   C102  A    
C106  C109  A    
C119  C127  A    
C89   N9    A    
N51   H153  S    
C18   C26   A    
N34   H85   S    
C76   C84   A    
N41   H113  S    
N11   Ni6   S    
C197  H130  S    
C60   H12   S    
C35   H59   S    
C194  H119  S    
C11   C19   A    
C80   N39   S    
N23   Ni3   S    
N31   Ni7   S    
N52   C204  S    
C85   C109  A    
C196  H127  S    
C87   C111  A    
C50   C148  S    
N44   H125  S    
C38   H62   S    
C199  H139  S    
C142  C152  A    
N35   C187  S    
N7    N29   A    
C116  H20   S    
C1    C145  A    
C195  H122  S    
C206  H167  S    
C159  C174  S    
C15   C183  A    
C135  N23   A    
C114  H18   S    
C90   C154  A    
C163  C171  A    
C164  H44   S    
C172  C180  A    
C173  C181  A    
C166  H46   S    
C83   C99   A    
C9    C33   A    
N53   C205  S    
C7    H7    S    
C2    H2    S    
C74   C82   A    
C110  C117  A    
C190  H103  S    
N55   C207  S    
C10   C18   A    
C3    N3    A    
C185  H82   S    
C36   H60   S    
C201  H148  S    
C135  C159  A    
C97   C125  A    
C200  H144  S    
C140  C146  A    
N40   H109  S    
C99   C127  A    
C26   C162  A    
C101  C121  A    
C120  H24   S    
C53   C77   A    
C189  H98   S    
N16   N24   A    
C47   H71   S    
C140  N28   A    
C55   C79   A    
C141  N29   A    
C162  C170  A    
C195  H123  S    
C137  N25   A    
C7    C151  A    
C66   N41   S    
C63   C103  A    
C132  N20   A    
C133  N21   A    
N27   Ni5   S    
C198  H134  S    
C28   C164  A    
N14   N22   A    
C137  C147  A    
C12   C180  A    
C57   C65   A    
C25   C42   A    
C112  C119  A    
N48   H141  S    
C120  C128  A    
C4    N4    A    
C28   C43   A    
N1    Ni1   S    
C17   C22   A    
C134  H30   S    
C78   N37   S    
C94   N54   S    
N9    N17   A    
C207  H171  S    
C19   C24   A    
C58   H10   S    
C138  N26   A    
C155  C170  S    
C75   C83   A    
C186  H86   S    
C84   C108  A    
C127  H79   S    
C128  H80   S    
C204  H158  S    
C188  H94   S    
C73   N34   S    
C187  H90   S    
C6    C150  A    
C98   C126  A    
C42   H66   S    
N33   H81   S    
N47   C199  S    
C95   N55   S    
C102  C122  A    
C46   H70   S    
N13   Ni7   S    
N14   Ni8   S    
C191  H106  S    
C34   H58   S    
C59   C99   A    
N37   H97   S    
C201  H146  S    
C132  H28   S    
C207  H170  S    
C199  H138  S    
N39   H105  S    
C49   C147  S    
C49   C65   A    
N32   Ni8   S    
C92   N52   S    
C51   C75   A    
C48   H72   S    
C38   C42   A    
N43   C195  S    
C143  H39   S    
C197  H131  S    
C168  H48   S    
C165  C173  A    
C156  C169  S    
C126  H78   S    
C208  H175  S    
C183  H55   S    
C44   H68   S    
C135  H31   S    
C82   C106  A    
C63   H15   S    
N44   C196  S    
N50   H149  S    
N28   Ni6   S    
C12   C36   A    
C19   C27   A    
C13   C37   A    
C52   C68   A    
C86   C102  A    
N9    Ni5   S    
C198  H136  S    
C27   C163  A    
C78   C86   A    
N50   C202  S    
C187  H92   S    
C204  H159  S    
C72   N47   S    
C40   H64   S    
C122  H74   S    
C161  H41   S    
C205  H164  S    
C95   N15   A    
C10   C178  A    
C105  C114  A    
N3    N25   A    
C30   C166  A    
C179  H51   S    
C207  H172  S    
C138  C148  A    
C186  H88   S    
C177  H49   S    
C57   H9    S    
C111  C120  A    
C185  H83   S    
C188  H96   S    
N46   C198  S    
C91   C155  A    
N4    Ni1   S    
N40   C192  S    
C89   C153  A    
C203  H154  S    
C124  H76   S    
C6    H6    S    
C203  H156  S    
C10   C34   A    
C93   C157  A    
C50   C66   A    
C93   N53   S    
N45   H129  S    
C14   C182  A    
C9    C17   A    
C96   C160  A    
C39   H63   S    
C130  H26   S    
C202  H151  S    
N4    N26   A    
C136  N24   A    
N5    Ni3   S    
C85   C101  A    
C62   H14   S    
C182  H54   S    
N6    Ni4   S    
C61   C69   A    
C139  C145  A    
C63   C71   A    
C119  H23   S    
C167  H47   S    
C131  C155  A    
C2    C146  A    
C194  H118  S    
C79   N40   S    
C133  H29   S    
C32   C168  A    
N56   H173  S    
C130  N18   A    
C196  H126  S    
N48   C200  S    
C96   N56   S    
C81   C97   A    
C15   C23   A    
C83   C107  A    
C64   C72   A    
N35   H89   S    
C144  H40   S    
C59   H11   S    
C7    N7    A    
C114  C122  A    
C193  H116  S    
C1    N1    A    
C138  H34   S    
C16   C24   A    
C206  H166  S    
C191  H108  S    
N8    N30   A    
C118  C126  A    
C142  H38   S    
C26   C41   A    
C45   H69   S    
C136  H32   S    
