data_mof_unit_37048.cif
_audit_creation_date              2012-12-10T17:53:07-0500
_audit_creation_method            fapswitch 2.2
_symmetry_space_group_name_H-M    P1
_symmetry_Int_Tables_number       1
_space_group_crystal_system       triclinic
_cell_length_a                    14.673634
_cell_length_b                    14.677465
_cell_length_c                    27.697658
_cell_angle_alpha                 76.64578
_cell_angle_beta                  102.906952
_cell_angle_gamma                 114.865996
_cell_volume                      5211.80004353

loop_
_atom_site_label
_atom_site_type_symbol
_atom_type_description
_atom_site_fract_x
_atom_site_fract_y
_atom_site_fract_z
_atom_type_partial_charge
C1    C     C_R   0.880317 0.312093 0.508444 0.799696
C2    C     C_R   0.119662 0.687890 0.492340 0.799731
C3    C     C_R   0.990669 0.466530 0.901063 -0.098383
C4    C     C_R   0.999068 0.503302 0.100916 -0.098026
C5    C     C_R   0.896147 0.430384 0.869500 -0.045847
C6    C     C_R   0.093737 0.541188 0.132224 -0.047734
C7    C     C_R   0.804626 0.383476 0.891523 0.093371
C8    C     C_R   0.185226 0.586730 0.110152 0.091245
C9    C     C_R   0.083286 0.500162 0.881890 -0.088509
C10   C     C_R   0.906483 0.469394 0.120185 -0.088469
C11   C     C_R   0.995088 0.493735 0.645530 -0.128264
C12   C     C_R   0.000765 0.499007 0.354730 -0.133369
C13   C     C_R   0.903351 0.467069 0.017956 -0.036050
C14   C     C_R   0.086020 0.500963 0.984229 -0.036168
C15   C     C_R   0.088011 0.522131 0.032131 0.031859
C16   C     C_R   0.901444 0.446246 0.969975 0.031865
C17   C     C_R   0.996645 0.496767 0.050358 0.053974
C18   C     C_R   0.992870 0.471831 0.951761 0.053764
C19   C     C_R   0.816927 0.464628 0.034356 0.082077
C20   C     C_R   0.172319 0.503015 0.967876 0.081888
C21   C     C_R   0.814472 0.449907 0.086143 0.140163
C22   C     C_R   0.174996 0.518021 0.916086 0.140167
C23   C     C_R   0.999059 0.499054 0.592391 0.798378
C24   C     C_R   0.000318 0.499884 0.407635 0.797107
C25   C     C_R   0.810630 0.389916 0.942037 -0.236705
C26   C     C_R   0.178927 0.578827 0.059838 -0.235708
C27   C     C_R   0.813099 0.204029 0.514235 -0.087306
C28   C     C_R   0.186935 0.795237 0.492796 -0.086481
C29   C     C_R   0.785312 0.025721 0.525069 0.164129
C30   C     C_R   0.216414 0.967953 0.499498 0.161339
C31   C     C_R   0.851144 0.128379 0.521474 -0.243075
C32   C     C_R   0.149551 0.868065 0.493630 -0.240898
C33   C     C_R   0.709269 0.177232 0.511900 -0.256501
C34   C     C_R   0.291090 0.822491 0.496677 -0.249156
C35   C     C_R   0.641120 0.075290 0.517248 0.050097
C36   C     C_R   0.360811 0.919792 0.505452 0.050197
C37   C     C_R   0.679880 0.998950 0.522615 0.146796
C38   C     C_R   0.322463 0.993998 0.505590 0.145395
C39   C     C_R   0.535057 0.047861 0.515457 0.086104
C40   C     C_R   0.467526 0.945229 0.513286 0.083451
C41   C     C_R   0.508911 0.870892 0.520312 -0.237977
C42   C     C_R   0.494474 0.119335 0.516563 -0.239659
C43   C     C_R   0.612648 0.897260 0.525331 -0.214935
C44   C     C_R   0.390706 0.092705 0.511977 -0.208157
C45   C     C_R   0.898163 0.439934 0.817633 0.509252
C46   C     C_R   0.091849 0.535086 0.183834 0.510741
C47   C     C_R   0.716820 0.670804 0.417971 -0.281674
C48   C     C_R   0.280743 0.326798 0.581765 -0.276504
C49   C     C_R   0.800019 0.643593 0.432498 0.054127
C50   C     C_R   0.199148 0.356526 0.567795 0.053708
C51   C     C_R   0.712012 0.505489 0.490718 0.077803
C52   C     C_R   0.287185 0.491790 0.508413 0.016857
C53   C     C_R   0.628134 0.534999 0.481252 -0.037809
C54   C     C_R   0.368785 0.459260 0.517261 -0.059554
C55   C     C_R   0.628722 0.614963 0.441062 0.082518
C56   C     C_R   0.367816 0.380094 0.557839 0.142479
C57   C     C_R   0.542972 0.485856 0.508595 0.012898
C58   C     C_R   0.452652 0.505622 0.489114 -0.059048
C59   C     C_R   0.449255 0.569934 0.441869 0.097723
C60   C     C_R   0.545315 0.419482 0.555113 0.081783
C61   C     C_R   0.539718 0.633202 0.421842 0.174231
C62   C     C_R   0.455428 0.359686 0.576240 0.099487
C63   C     C_R   0.079384 0.508336 0.829747 0.539718
C64   C     C_R   0.910641 0.463125 0.172192 0.540303
C65   C     C_R   0.998141 0.571236 0.714555 -0.133650
C66   C     C_R   0.998604 0.413774 0.288920 -0.127540
C67   C     C_R   0.002975 0.580035 0.663490 0.019574
C68   C     C_R   0.996759 0.411130 0.339728 0.016938
C69   C     C_R   0.983004 0.401152 0.678434 0.073745
C70   C     C_R   0.005205 0.586645 0.319059 0.076950
C71   C     C_R   0.980120 0.394524 0.729576 0.128221
C72   C     C_R   0.005614 0.587127 0.268275 0.128464
C73   C     C_R   0.987543 0.480417 0.747261 0.275301
C74   C     C_R   0.002764 0.500012 0.253638 0.276067
Cu1   Cu    Cu3+1 0.081740 0.475690 0.513040 0.923870
Cu2   Cu    Cu3+1 0.918260 0.524310 0.486960 0.930939
H1    H     H_    0.315856 0.765941 0.492178 0.148941
H2    H     H_    0.682856 0.237960 0.504263 0.156320
H3    H     H_    0.068549 0.846757 0.490829 0.154105
H4    H     H_    0.931771 0.149252 0.523011 0.154522
H5    H     H_    0.463359 0.790535 0.523775 0.147138
H6    H     H_    0.541028 0.196413 0.522600 0.139623
H7    H     H_    0.289025 0.560095 0.483429 0.128406
H8    H     H_    0.711277 0.436569 0.514842 0.157369
H9    H     H_    0.131957 0.314807 0.585859 0.120920
H10   H     H_    0.867567 0.686926 0.414825 0.122938
H11   H     H_    0.721524 0.734020 0.387987 0.163280
H12   H     H_    0.275761 0.263487 0.611760 0.172537
H13   H     H_    0.996240 0.349048 0.275624 0.140141
H14   H     H_    0.003720 0.634720 0.730151 0.139492
H15   H     H_    0.744023 0.351188 0.960455 0.143638
H16   H     H_    0.245393 0.617033 0.041306 0.143755
H17   H     H_    0.639595 0.836811 0.530718 0.174616
H18   H     H_    0.364450 0.150915 0.513085 0.176846
N1    N     N_R   0.988319 0.477403 0.799543 -0.444651
N2    N     N_R   0.001766 0.497606 0.201983 -0.445720
N3    N     N_R   0.795430 0.560780 0.467350 -0.187435
N4    N     N_R   0.204570 0.439220 0.532650 -0.174059
O1    O     O_R   0.977900 0.338120 0.517190 -0.592765
O2    O     O_R   0.022100 0.661880 0.482810 -0.592502
O3    O     O_R   0.839850 0.379180 0.495160 -0.590037
O4    O     O_R   0.160150 0.620820 0.504840 -0.585249
O5    O     O_R   0.069030 0.479490 0.580750 -0.576676
O6    O     O_R   0.930970 0.520510 0.419250 -0.575203
O7    O     O_R   0.930970 0.520550 0.558720 -0.577659
O8    O     O_R   0.069030 0.479450 0.441280 -0.588216
O9    O     O_2   0.811793 0.413760 0.784867 -0.579677
O10   O     O_2   0.178280 0.565047 0.216308 -0.569221
O11   O     O_2   0.825179 0.423214 0.193484 -0.578433
O12   O     O_2   0.165055 0.546959 0.808706 -0.578518
N5    N     N_3   0.971108 0.312173 0.660195 -0.604731
H19   H     H_    0.037845 0.325716 0.647164 0.229515
H20   H     H_    0.911113 0.297596 0.630586 0.215623
N6    N     N_3   0.012199 0.677050 0.334056 -0.606262
H21   H     H_    0.073456 0.698227 0.362675 0.213381
H22   H     H_    0.945322 0.661696 0.347479 0.232237
N7    N     N_3   0.824992 0.948809 0.530554 -0.607721
H23   H     H_    0.904355 0.980554 0.536274 0.211360
H24   H     H_    0.803246 0.920766 0.496535 0.207150
N8    N     N_3   0.177065 0.042454 0.500024 -0.608587
H25   H     H_    0.097953 0.012872 0.491291 0.211453
H26   H     H_    0.193625 0.057914 0.536716 0.211182
N9    N     N_3   0.540463 0.711103 0.378991 -0.579855
H27   H     H_    0.468822 0.713006 0.365840 0.248818
H28   H     H_    0.585299 0.781183 0.391042 0.196994
N10   N     N_3   0.454682 0.282067 0.618877 -0.616752
H29   H     H_    0.506945 0.315019 0.648644 0.231998
H30   H     H_    0.475856 0.229657 0.609224 0.221701
N11   N     N_3   0.355333 0.559005 0.409039 -0.583497
H31   H     H_    0.332550 0.616734 0.410503 0.201877
H32   H     H_    0.298654 0.486889 0.416734 0.237449
N12   N     N_3   0.639922 0.420007 0.583865 -0.618288
H33   H     H_    0.649718 0.444972 0.617798 0.240671
H34   H     H_    0.638309 0.346231 0.591320 0.209957
C75   C     C_3   0.971346 0.296341 0.765115 -0.356974
C76   C     C_3   0.074479 0.286817 0.779834 -0.334408
C77   C     C_3   0.067069 0.189963 0.816774 -0.863235
H35   H     H_    0.042151 0.190680 0.851680 0.252519
H36   H     H_    0.012278 0.122070 0.799808 0.261160
H37   H     H_    0.142631 0.184976 0.826547 0.245448
H38   H     H_    0.102397 0.285564 0.745956 0.235257
H39   H     H_    0.130681 0.353215 0.797538 0.242663
H40   H     H_    0.942344 0.291965 0.799631 0.190405
H41   H     H_    0.914868 0.230299 0.747192 0.218638
C78   C     C_3   0.007752 0.680311 0.229903 -0.358490
C79   C     C_3   0.901868 0.683580 0.215435 -0.332498
C80   C     C_3   0.902433 0.774472 0.175254 -0.864366
H42   H     H_    0.955652 0.846510 0.189098 0.261203
H43   H     H_    0.925591 0.769394 0.140735 0.251953
H44   H     H_    0.825056 0.775133 0.165799 0.245902
H45   H     H_    0.847203 0.612906 0.200760 0.243886
H46   H     H_    0.875372 0.688783 0.248896 0.236361
H47   H     H_    0.062449 0.750292 0.245247 0.218293
H48   H     H_    0.035475 0.681632 0.195530 0.189254
C81   C     C_3   0.702186 0.326364 0.861825 -0.326774
C82   C     C_3   0.612443 0.265544 0.891650 -0.424036
C83   C     C_3   0.517160 0.207643 0.857974 -0.820463
H49   H     H_    0.495219 0.261318 0.827114 0.257476
H50   H     H_    0.530434 0.152506 0.841761 0.255826
H51   H     H_    0.453618 0.165170 0.880355 0.241788
H52   H     H_    0.631552 0.209733 0.922312 0.227701
H53   H     H_    0.595194 0.318083 0.907899 0.221025
H54   H     H_    0.680367 0.382416 0.832530 0.238675
H55   H     H_    0.711861 0.271483 0.843673 0.226067
C84   C     C_3   0.288113 0.643694 0.139594 -0.322269
C85   C     C_3   0.378654 0.700190 0.110000 -0.428918
C86   C     C_3   0.474795 0.756848 0.143583 -0.811863
H56   H     H_    0.463846 0.814412 0.159015 0.256486
H57   H     H_    0.494584 0.702739 0.175003 0.260673
H58   H     H_    0.538820 0.796345 0.121358 0.240087
H59   H     H_    0.393512 0.644960 0.094594 0.221788
H60   H     H_    0.361899 0.756405 0.078743 0.227159
H61   H     H_    0.279987 0.701291 0.156396 0.227677
H62   H     H_    0.308251 0.588003 0.169883 0.241769
C87   C     C_3   0.988871 0.316136 0.378452 -0.359627
C88   C     C_3   0.967315 0.219452 0.357709 -0.362849
C89   C     C_3   0.952777 0.128473 0.399694 -0.846826
H63   H     H_    0.021548 0.143439 0.428391 0.260533
H64   H     H_    0.886240 0.112784 0.417806 0.255118
H65   H     H_    0.939376 0.060112 0.383967 0.243998
H66   H     H_    0.897182 0.202242 0.329815 0.229653
H67   H     H_    0.032161 0.230637 0.339392 0.225242
H68   H     H_    0.061057 0.333117 0.404853 0.218909
H69   H     H_    0.926606 0.299073 0.400054 0.194489
C90   C     C_3   0.018913 0.679981 0.627672 -0.366472
C91   C     C_3   0.039043 0.772515 0.651605 -0.355522
C92   C     C_3   0.061497 0.868849 0.612730 -0.851454
H70   H     H_    0.132231 0.886458 0.597780 0.258003
H71   H     H_    0.997728 0.859200 0.581330 0.256609
H72   H     H_    0.071915 0.933805 0.630437 0.245171
H73   H     H_    0.971236 0.759899 0.667924 0.225135
H74   H     H_    0.105489 0.784146 0.681669 0.228960
H75   H     H_    0.084722 0.698276 0.608330 0.194176
H76   H     H_    0.950513 0.668847 0.598877 0.221595
N13   N     N_3   0.718075 0.420490 0.102218 -0.591288
H77   H     H_    0.699867 0.349442 0.124915 0.264277
H78   H     H_    0.721153 0.475104 0.121655 0.247707
N14   N     N_3   0.271330 0.546654 0.900121 -0.591801
H79   H     H_    0.290471 0.618078 0.877748 0.263953
H80   H     H_    0.267567 0.492170 0.880390 0.247893
C93   C     C_3   0.733610 0.492380 0.998255 -0.391116
C94   C     C_3   0.732764 0.592079 0.006640 -0.332658
C95   C     C_3   0.649625 0.618873 0.970192 -0.846996
H81   H     H_    0.662131 0.629100 0.930853 0.256327
H82   H     H_    0.573930 0.557798 0.975592 0.256933
H83   H     H_    0.650775 0.690930 0.977123 0.242535
H84   H     H_    0.719629 0.586569 0.045264 0.232417
H85   H     H_    0.807521 0.654844 0.000989 0.216595
H86   H     H_    0.745060 0.506499 0.958665 0.203621
H87   H     H_    0.658599 0.429140 0.002627 0.208795
C96   C     C_3   0.255422 0.475068 0.004059 -0.391213
C97   C     C_3   0.256056 0.375236 0.995745 -0.332142
C98   C     C_3   0.338986 0.348253 0.032287 -0.846605
H88   H     H_    0.414779 0.409180 0.026934 0.256873
H89   H     H_    0.326367 0.338135 0.071596 0.256670
H90   H     H_    0.337692 0.276094 0.025411 0.242538
H91   H     H_    0.181197 0.312616 0.001350 0.216789
H92   H     H_    0.269297 0.380670 0.957148 0.232482
H93   H     H_    0.330532 0.538164 0.999723 0.208589
H94   H     H_    0.243843 0.461114 0.043626 0.203559

loop_
_geom_bond_atom_site_label_1
_geom_bond_atom_site_label_2
_ccdc_geom_bond_type
C51   N3    A    
C66   C68   A    
C95   H81   S    
Cu2   O6    S    
C84   C85   S    
C16   C25   A    
C8    C26   A    
C93   C94   S    
C14   C18   A    
C80   H42   S    
C42   H6    S    
C90   H76   S    
C1    O1    A    
N6    H21   S    
C90   C91   S    
C75   C76   S    
C86   H57   S    
C98   H88   S    
C27   C33   A    
C85   H60   S    
C96   H94   S    
C12   C68   A    
C83   H49   S    
C30   N8    S    
C87   H68   S    
C82   C83   S    
C35   C37   A    
C79   C80   S    
N7    H24   S    
C34   H1    S    
C71   C75   S    
N13   H78   S    
C9    C22   A    
N9    H28   S    
C97   H91   S    
C2    O4    A    
C84   H61   S    
C72   C78   S    
C23   O7    A    
C63   N1    A    
C19   C93   S    
C65   C73   A    
C30   C38   A    
C3    C18   A    
C60   C62   A    
C20   C96   S    
C62   N10   S    
C91   H73   S    
C69   C71   A    
C92   H72   S    
C76   H39   S    
C50   H9    S    
C33   C35   A    
C23   O5    A    
N5    H19   S    
C11   C67   A    
N12   H33   S    
C89   H64   S    
C46   O10   S    
Cu1   O4    S    
C48   H12   S    
N14   H80   S    
C88   C89   S    
N14   H79   S    
C66   H13   S    
C61   N9    S    
C3    C5    A    
C78   H47   S    
C53   C55   A    
C82   H53   S    
C85   H59   S    
C83   H50   S    
C94   H85   S    
Cu1   O5    S    
C41   C43   A    
C60   N12   S    
C65   H14   S    
C42   C44   A    
C93   H86   S    
C77   H37   S    
C68   C87   S    
C52   C54   A    
C78   C79   S    
C39   C42   A    
C5    C7    A    
C98   H89   S    
C10   C21   A    
C88   H66   S    
C95   H83   S    
C54   C56   A    
C25   H15   S    
C59   C61   A    
C94   C95   S    
C13   C19   A    
C27   C31   A    
C14   C20   A    
N9    H27   S    
C80   H44   S    
C64   N2    A    
C72   C74   A    
C50   N4    A    
C86   H56   S    
C71   C73   A    
C53   C57   A    
C2    C28   S    
C15   C26   A    
C6    C8    A    
C65   C67   A    
C84   H62   S    
C29   N7    S    
C70   C72   A    
Cu1   N4    S    
C70   N6    S    
N13   H77   S    
C24   O6    A    
C47   H11   S    
C37   C43   A    
C52   H7    S    
C35   C39   A    
Cu1   Cu2   S    
C38   C44   A    
C76   H38   S    
C3    C9    A    
C74   N2    S    
C95   H82   S    
C96   C97   S    
C28   C32   A    
C89   H65   S    
C41   H5    S    
Cu1   O1    S    
C7    C81   S    
N5    H20   S    
C16   C18   A    
C21   N13   S    
C48   C50   A    
C77   H36   S    
C79   H46   S    
C86   H58   S    
C4    C6    A    
C75   H41   S    
C20   C22   A    
C82   H52   S    
C83   H51   S    
C64   O11   S    
C94   H84   S    
C85   C86   S    
C56   C62   A    
C58   C59   A    
C24   O8    A    
C4    C17   A    
C4    C10   A    
C45   N1    A    
C1    O3    A    
C93   H87   S    
C39   C40   A    
C36   C40   A    
C96   H93   S    
N8    H25   S    
N8    H26   S    
C47   C55   A    
N11   H31   S    
C54   C58   A    
C98   H90   S    
Cu2   O3    S    
C48   C56   A    
C12   C70   A    
C59   N11   S    
N10   H30   S    
C6    C46   A    
C19   C21   A    
C9    C63   A    
C49   H10   S    
C22   N14   S    
C10   C64   A    
C11   C23   S    
C90   H75   S    
C76   C77   S    
C57   C60   A    
N6    H22   S    
C11   C69   A    
C15   C17   A    
C81   H55   S    
Cu2   O2    S    
C80   H43   S    
C77   H35   S    
C12   C24   S    
C7    C25   A    
C13   C17   A    
C5    C45   A    
C81   H54   S    
C63   O12   S    
C36   C38   A    
Cu2   N3    S    
C92   H70   S    
C29   C31   A    
C87   C88   S    
C47   C49   A    
C32   H3    S    
C30   C32   A    
C69   N5    S    
C31   H4    S    
C57   C58   A    
C97   H92   S    
N10   H29   S    
C55   C61   A    
C52   N4    A    
C75   H40   S    
C43   H17   S    
C34   C36   A    
C28   C34   A    
C91   H74   S    
C33   H2    S    
C92   H71   S    
C49   N3    A    
C44   H18   S    
C8    C84   S    
C88   H67   S    
C51   C53   A    
C2    O2    A    
C79   H45   S    
C67   C90   S    
C46   N2    A    
C97   C98   S    
Cu1   O8    S    
N12   H34   S    
C89   H63   S    
C13   C16   A    
C29   C37   A    
C81   C82   S    
C1    C27   S    
C73   N1    S    
C14   C15   A    
C40   C41   A    
C78   H48   S    
C91   C92   S    
N7    H23   S    
C26   H16   S    
C51   H8    S    
Cu2   O7    S    
C45   O9    S    
C87   H69   S    
N11   H32   S    
C66   C74   A    
