data_mof_unit_22052.cif
_audit_creation_date              2012-10-26T21:02:40-0400
_audit_creation_method            fapswitch 2.2
_symmetry_space_group_name_H-M    P1
_symmetry_Int_Tables_number       1
_space_group_crystal_system       triclinic
_cell_length_a                    12.350277
_cell_length_b                    13.22243
_cell_length_c                    15.016122
_cell_angle_alpha                 79.368748
_cell_angle_beta                  101.345546
_cell_angle_gamma                 116.475642
_cell_volume                      2138.95289624

loop_
_atom_site_label
_atom_site_type_symbol
_atom_type_description
_atom_site_fract_x
_atom_site_fract_y
_atom_site_fract_z
_atom_type_partial_charge
C1    C     C_R   0.853110 0.286839 0.504769 0.615507
C2    C     C_R   0.968284 0.397055 0.824461 0.057545
C3    C     C_R   0.000686 0.499887 0.767353 -0.003877
C4    C     C_R   0.000368 0.501094 0.670634 0.569057
C5    C     C_R   0.041455 0.603027 0.803018 -0.080178
C6    C     C_R   0.251374 0.020872 0.388453 0.126263
C7    C     C_R   0.225109 0.833026 0.462082 -0.010526
C8    C     C_R   0.809222 0.083377 0.508678 -0.028878
C9    C     C_R   0.733600 0.971546 0.494552 0.106886
C10   C     C_R   0.608238 0.935550 0.477980 -0.087213
C11   C     C_R   0.557654 0.015058 0.464605 0.009015
C12   C     C_R   0.046072 0.603080 0.084283 0.003754
C13   C     C_R   0.637381 0.132126 0.459511 0.025018
C14   C     C_R   0.429854 0.981080 0.448814 0.005763
C15   C     C_R   0.380878 0.059958 0.404292 0.058111
C16   C     C_R   0.144997 0.712932 0.485032 0.539678
C17   C     C_R   0.465006 0.172285 0.378437 0.095862
C18   C     C_R   0.588229 0.208043 0.412063 -0.052266
C19   C     C_R   0.350741 0.869889 0.478650 -0.107537
C20   C     C_R   0.176386 0.908542 0.417191 -0.092496
C21   C     C_R   0.764879 0.166390 0.492696 0.030947
C22   C     C_R   0.370471 0.361740 0.656464 0.110914
C23   C     C_R   0.967737 0.299780 0.071965 -0.056258
C24   C     C_R   0.745972 0.617130 0.362802 0.030298
C25   C     C_R   0.639718 0.628502 0.323578 -0.098485
C26   C     C_R   0.536413 0.580759 0.369237 0.257791
C27   C     C_R   0.547407 0.534692 0.462882 -0.021666
C28   C     C_R   0.001142 0.500578 0.329135 0.591663
C29   C     C_R   0.662190 0.529172 0.500562 0.133297
C30   C     C_R   0.451657 0.487605 0.521485 -0.023706
C31   C     C_R   0.465965 0.418080 0.602906 0.005711
C32   C     C_R   0.575385 0.406414 0.627512 0.070862
C33   C     C_R   0.678364 0.492186 0.593734 0.231323
C34   C     C_R   0.964244 0.299549 0.979250 -0.089229
C35   C     C_R   0.344148 0.506266 0.506479 0.091434
C36   C     C_R   0.255215 0.353581 0.618069 0.356700
C37   C     C_R   0.042793 0.601239 0.176874 -0.139974
C38   C     C_R   0.002074 0.498006 0.232745 0.007935
C39   C     C_R   0.965230 0.394217 0.197143 0.232180
C40   C     C_R   0.982440 0.397149 0.106634 0.018787
C41   C     C_R   0.015630 0.500918 0.048776 0.027724
C42   C     C_R   0.981939 0.398576 0.919101 0.028766
C43   C     C_R   0.015476 0.501883 0.954812 0.032373
C44   C     C_R   0.045710 0.605240 0.896500 0.036008
C45   C     C_R   0.078917 0.707449 0.933424 0.116401
C46   C     C_R   0.079118 0.705484 0.026794 -0.071683
Cu1   Cu    Cu3+1 0.098270 0.475420 0.521130 1.118577
Cu2   Cu    Cu3+1 0.901730 0.524580 0.478870 1.037383
H1    H     H_    0.069396 0.679872 0.205458 0.120897
H2    H     H_    0.949424 0.221250 0.955968 0.168749
H3    H     H_    0.068039 0.680558 0.756712 0.182117
H4    H     H_    0.103425 0.784205 0.054248 0.145107
H5    H     H_    0.078300 0.879726 0.403957 0.168879
H6    H     H_    0.071968 0.155009 0.730194 0.376787
H7    H     H_    0.753584 0.089918 0.242178 0.379926
H8    H     H_    0.217984 0.429486 0.274368 0.381606
H9    H     H_    0.762535 0.471296 0.774483 0.338430
H10   H     H_    0.386216 0.811302 0.517554 0.141753
H11   H     H_    0.903818 0.105174 0.526508 0.252616
H12   H     H_    0.552759 0.847113 0.468028 0.140747
H13   H     H_    0.645013 0.294326 0.389111 0.203410
H14   H     H_    0.337400 0.574467 0.458317 0.199142
H15   H     H_    0.821127 0.650408 0.323172 0.147295
H16   H     H_    0.636191 0.668793 0.254103 0.171112
H17   H     H_    0.961541 0.223599 0.116012 0.207963
I1    I     I_    0.433826 0.294724 0.275885 -0.172050
I2    I     I_    0.147250 0.114486 0.330666 -0.132763
I3    I     I_    0.812880 0.862795 0.486739 -0.179982
I4    I     I_    0.572470 0.242434 0.658767 -0.228287
I5    I     I_    0.392762 0.294165 0.795842 -0.142083
I6    I     I_    0.882967 0.239839 0.765895 -0.253016
I7    I     I_    0.126133 0.868228 0.853426 -0.164102
N1    N     N_R   0.246280 0.438190 0.553160 -0.258215
N2    N     N_R   0.754320 0.561190 0.447410 -0.245255
O1    O     O_R   0.972510 0.318130 0.526570 -0.408703
O2    O     O_2   0.212018 0.133031 0.633334 -0.237617
O3    O     O_3   0.037155 0.171259 0.666865 -0.512253
O4    O     O_2   0.959527 0.234082 0.336763 -0.243699
O5    O     O_2   0.787318 0.285412 0.300027 -0.323904
O6    O     O_3   0.796364 0.154971 0.197972 -0.516678
O7    O     O_2   0.369202 0.664316 0.306575 -0.318689
O8    O     O_2   0.410699 0.570680 0.200680 -0.253563
O9    O     O_3   0.281566 0.442547 0.328183 -0.478135
O10   O     O_2   0.873480 0.685848 0.641708 -0.219953
O11   O     O_2   0.671270 0.663557 0.658449 -0.237476
O12   O     O_R   0.806530 0.359650 0.490890 -0.527339
O13   O     O_3   0.764870 0.546614 0.776590 -0.470182
O14   O     O_R   0.082980 0.479210 0.647590 -0.491220
O15   O     O_R   0.917000 0.520730 0.611900 -0.464631
O16   O     O_R   0.193470 0.640350 0.509110 -0.535641
O17   O     O_R   0.027490 0.681870 0.473430 -0.495681
O18   O     O_R   0.083000 0.479270 0.388100 -0.450576
O19   O     O_R   0.917020 0.520790 0.352410 -0.518218
O20   O     O_2   0.104760 0.206835 0.504637 -0.205769
S1    S     S_3+6 0.151154 0.212508 0.604476 0.073293
S2    S     S_3+6 0.876961 0.264731 0.260638 0.004766
S3    S     S_3+6 0.397426 0.567048 0.298829 -0.001429
S4    S     S_3+6 0.750388 0.601877 0.666922 0.066954

loop_
_geom_bond_atom_site_label_1
_geom_bond_atom_site_label_2
_ccdc_geom_bond_type
C1    C21   S    
C46   H4    S    
C27   C29   A    
Cu1   O18   S    
C34   C42   A    
C45   C46   A    
C16   O16   A    
C26   C27   A    
C37   C38   A    
C13   C18   A    
C8    H11   S    
C30   C31   A    
C11   C14   A    
C23   C40   A    
C29   C33   A    
C33   S4    S    
C12   C37   A    
O11   S4    D    
C6    C15   A    
Cu1   Cu2   S    
O4    S2    D    
C8    C9    A    
Cu2   O17   S    
O6    S2    S    
C9    C10   A    
O13   S4    S    
C45   I7    S    
C41   C43   A    
C17   C18   A    
C19   H10   S    
C34   H2    S    
Cu2   O19   S    
C1    O1    A    
Cu2   N2    S    
C24   C25   A    
Cu1   N1    S    
C12   C46   A    
C22   C31   A    
C39   C40   A    
H6    O3    S    
C29   N2    A    
C25   C26   A    
O3    S1    S    
H9    O13   S    
C28   O19   A    
C25   H16   S    
C10   H12   S    
C43   C44   A    
C12   C41   A    
C37   H1    S    
C31   C32   A    
C28   C38   S    
C23   C34   A    
C8    C21   A    
C17   I1    S    
C13   C21   A    
C28   O18   A    
C30   C35   A    
C6    I2    S    
C5    C44   A    
C24   H15   S    
C7    C19   A    
Cu2   O15   S    
O8    S3    D    
Cu2   O12   S    
C42   C43   A    
C2    I6    S    
C22   C36   A    
C44   C45   A    
H8    O9    S    
C4    O15   A    
C1    O12   A    
C15   C17   A    
C35   N1    A    
C14   C19   A    
C7    C16   S    
C20   H5    S    
C3    C5    A    
C18   H13   S    
C32   I4    S    
C4    O14   A    
C6    C20   A    
O10   S4    D    
Cu1   O14   S    
C23   H17   S    
C2    C3    A    
C9    I3    S    
Cu1   O1    S    
O5    S2    D    
O2    S1    D    
C32   C33   A    
H7    O6    S    
C11   C13   A    
C36   S1    S    
C24   N2    A    
C38   C39   A    
O7    S3    D    
C2    C42   A    
Cu1   O16   S    
C35   H14   S    
O20   S1    D    
C39   S2    S    
C10   C11   A    
C26   S3    S    
C16   O17   A    
C7    C20   A    
O9    S3    S    
C14   C15   A    
C5    H3    S    
C40   C41   A    
C36   N1    A    
C22   I5    S    
C3    C4    S    
C27   C30   A    
