data_mof_unit_55383.cif
_audit_creation_date              2012-12-10T18:26:18-0500
_audit_creation_method            fapswitch 2.2
_symmetry_space_group_name_H-M    P1
_symmetry_Int_Tables_number       1
_space_group_crystal_system       triclinic
_cell_length_a                    15.046588
_cell_length_b                    14.005992
_cell_length_c                    23.511539
_cell_angle_alpha                 89.83816
_cell_angle_beta                  89.891328
_cell_angle_gamma                 88.842719
_cell_volume                      4953.83910405

loop_
_atom_site_label
_atom_site_type_symbol
_atom_type_description
_atom_site_fract_x
_atom_site_fract_y
_atom_site_fract_z
_atom_type_partial_charge
C1    C     C_R   0.325728 0.500853 0.500105 1.010539
C2    C     C_R   0.673581 0.498798 0.499694 1.027772
C3    C     C_R   0.543112 0.455268 0.232617 0.627417
C4    C     C_R   0.467712 0.446177 0.767682 0.636548
C5    C     C_R   0.547685 0.444611 0.291531 0.146057
C6    C     C_R   0.462477 0.437823 0.708713 0.143354
C7    C     C_R   0.494680 0.505606 0.326371 -0.406875
C8    C     C_R   0.506568 0.505269 0.673956 -0.405249
C9    C     C_R   0.442260 0.579877 0.300733 0.254939
C10   C     C_R   0.548989 0.584416 0.700238 0.315677
C11   C     C_R   0.455517 0.602012 0.242940 0.215509
C12   C     C_R   0.533076 0.602682 0.758340 0.220387
C13   C     C_R   0.500211 0.534789 0.208571 -0.084622
C14   C     C_R   0.499499 0.529154 0.792285 -0.091294
C15   C     C_R   0.819709 0.414364 0.511626 0.403239
C16   C     C_R   0.177127 0.586710 0.499291 0.263691
C17   C     C_R   0.769560 0.496130 0.495825 -0.342307
C18   C     C_R   0.228607 0.501546 0.495332 -0.293357
C19   C     C_R   0.811492 0.576238 0.473820 0.590840
C20   C     C_R   0.186562 0.414838 0.484363 0.662984
C21   C     C_R   0.903440 0.582339 0.477088 -0.156192
C22   C     C_R   0.094151 0.409772 0.487769 -0.161817
C23   C     C_R   0.499183 0.500594 0.389046 1.033930
C24   C     C_R   0.502188 0.500491 0.611060 1.052752
C25   C     C_R   0.952635 0.495935 0.484159 -0.067641
C26   C     C_R   0.044970 0.496665 0.483477 -0.059893
C27   C     C_R   0.908959 0.409139 0.494281 -0.149288
C28   C     C_R   0.088434 0.585012 0.481108 -0.113226
C29   C     C_R   0.947053 0.670512 0.470978 0.243383
C30   C     C_R   0.049869 0.321318 0.492869 0.221795
C31   C     C_R   0.040178 0.669431 0.466591 0.354668
C32   C     C_R   0.956412 0.321408 0.489825 0.343771
C33   C     C_R   0.553343 0.796683 0.462528 0.781978
C34   C     C_R   0.437449 0.202706 0.530566 0.786893
C35   C     C_R   0.450347 0.799113 0.539096 0.770385
C36   C     C_R   0.561732 0.200733 0.468527 0.767500
C37   C     C_R   0.445252 0.899738 0.537928 -0.282088
C38   C     C_R   0.561167 0.100000 0.465671 -0.301847
C39   C     C_R   0.557509 0.897436 0.463004 -0.286279
C40   C     C_R   0.439203 0.102072 0.533940 -0.308215
C41   C     C_R   0.500907 0.949181 0.500164 -0.148564
C42   C     C_R   0.500459 0.050419 0.499931 -0.159272
C43   C     C_R   0.386297 0.951989 0.573206 0.678847
C44   C     C_R   0.619368 0.047707 0.429857 0.668166
C45   C     C_R   0.616150 0.947731 0.427611 0.660489
C46   C     C_R   0.381810 0.051936 0.570245 0.673777
C47   C     C_R   0.579264 0.536276 0.880939 0.667167
C48   C     C_R   0.419861 0.532121 0.120057 0.683302
C49   C     C_R   0.420543 0.540840 0.881170 0.688957
C50   C     C_R   0.576329 0.557262 0.119606 0.685646
C51   C     C_R   0.418980 0.542892 0.940402 -0.092021
C52   C     C_R   0.577828 0.556655 0.060348 -0.072384
C53   C     C_R   0.499606 0.547083 0.970412 -0.026018
C54   C     C_R   0.497509 0.548803 0.030355 -0.040070
C55   C     C_R   0.582038 0.547774 0.940585 -0.141294
C56   C     C_R   0.415622 0.540869 0.060259 -0.158305
C57   C     C_R   0.338080 0.540965 0.969619 -0.156597
C58   C     C_R   0.658409 0.562972 0.031094 -0.164812
C59   C     C_R   0.334515 0.539864 0.028897 0.434526
C60   C     C_R   0.662440 0.558377 0.971889 0.331294
H1    H     H_    0.276693 0.539027 0.945793 0.243138
H2    H     H_    0.719409 0.569980 0.054883 0.237347
N1    N     N_R   0.499686 0.536729 0.852968 -0.310615
N2    N     N_R   0.498557 0.543624 0.147941 -0.309786
N3    N     N_R   0.500000 0.750030 0.500000 -0.253112
N4    N     N_R   0.500000 0.249970 0.500000 -0.262132
O1    O     O_R   0.367850 0.580280 0.500010 -0.610146
O2    O     O_R   0.632150 0.419720 0.499990 -0.543695
O3    O     O_R   0.632150 0.580280 0.499990 -0.543570
O4    O     O_R   0.367850 0.419720 0.500010 -0.516413
O5    O     O_R   0.499970 0.580290 0.416160 -0.563819
O6    O     O_R   0.500030 0.419710 0.583840 -0.563899
O7    O     O_R   0.500030 0.580290 0.583840 -0.551335
O8    O     O_R   0.499970 0.419710 0.416160 -0.566692
O9    O     O_2   0.654299 0.522204 0.850609 -0.414172
O10   O     O_2   0.347579 0.509164 0.150587 -0.451527
O11   O     O_2   0.343613 0.542546 0.851637 -0.484419
O12   O     O_2   0.652128 0.570139 0.149042 -0.497096
Zn1   Zn    Zn3+2 0.500000 0.607200 0.500000 1.163904
Zn2   Zn    Zn3+2 0.500000 0.392800 0.500000 1.181068
S1    S     S_3+6 0.092901 0.761423 0.427202 0.133883
O13   O     O_2   0.115201 0.843747 0.465062 -0.137803
O14   O     O_2   0.176425 0.722744 0.400093 -0.227220
O15   O     O_3   0.024846 0.801121 0.375301 -0.509491
H3    H     H_    0.056982 0.853974 0.356885 0.417857
S2    S     S_3+6 0.901482 0.219361 0.462605 0.168384
O16   O     O_2   0.876379 0.152825 0.509962 -0.145302
O17   O     O_2   0.819023 0.250406 0.431042 -0.141835
O18   O     O_3   0.969031 0.160353 0.417132 -0.515775
H4    H     H_    0.936490 0.102155 0.406763 0.428587
F1    F     F_    0.603390 0.744633 0.425455 -0.523439
F2    F     F_    0.372367 0.253605 0.556870 -0.481691
F3    F     F_    0.407150 0.749736 0.579828 -0.517110
F4    F     F_    0.624830 0.249948 0.440837 -0.482701
F5    F     F_    0.330947 0.906711 0.609615 -0.479818
F6    F     F_    0.678165 0.092955 0.395765 -0.493930
F7    F     F_    0.671378 0.900595 0.391089 -0.508582
F8    F     F_    0.322857 0.099262 0.604298 -0.476923
S3    S     S_3+6 0.226425 0.541580 0.059980 0.140485
O19   O     O_2   0.219080 0.620779 0.102838 -0.177495
O20   O     O_2   0.156085 0.557387 0.015396 -0.223995
O21   O     O_3   0.208848 0.436190 0.092154 -0.458962
H5    H     H_    0.150962 0.444505 0.111846 0.406770
S4    S     S_3+6 0.769817 0.569940 0.940799 0.166174
O22   O     O_2   0.767385 0.647973 0.896814 -0.109424
O23   O     O_2   0.837873 0.594491 0.984882 -0.226952
O24   O     O_3   0.801186 0.466552 0.909775 -0.410127
H6    H     H_    0.797159 0.417945 0.940307 0.365150
F9    F     F_    0.582817 0.390001 0.197726 -0.561148
F10   F     F_    0.438041 0.375585 0.802151 -0.554092
S5    S     S_3+6 0.621215 0.355922 0.319364 0.202989
O25   O     O_2   0.567338 0.271273 0.336222 -0.155101
O26   O     O_2   0.689048 0.324415 0.275922 -0.126487
O27   O     O_3   0.675323 0.398233 0.376165 -0.472269
H7    H     H_    0.705809 0.455751 0.362127 0.339377
S6    S     S_3+6 0.395692 0.346356 0.680739 0.209606
O28   O     O_2   0.455743 0.268916 0.657395 -0.184947
O29   O     O_2   0.337001 0.303808 0.725565 -0.102017
O30   O     O_3   0.330472 0.391686 0.628860 -0.459045
H8    H     H_    0.296990 0.445243 0.646844 0.353826
S7    S     S_3+6 0.351381 0.633886 0.338234 0.133467
O31   O     O_2   0.312998 0.563261 0.379146 -0.352843
O32   O     O_2   0.382931 0.718894 0.370799 -0.211424
O33   O     O_3   0.270021 0.669527 0.293628 -0.387847
H9    H     H_    0.247454 0.609808 0.277005 0.380302
S8    S     S_3+6 0.630400 0.652753 0.663516 0.160992
O34   O     O_2   0.586181 0.736162 0.633950 -0.225265
O35   O     O_2   0.698520 0.689075 0.704324 -0.154053
O36   O     O_3   0.683912 0.584991 0.615272 -0.548031
H10   H     H_    0.732474 0.625244 0.600844 0.396263
S9    S     S_3+6 0.424981 0.715699 0.213816 0.156997
O37   O     O_2   0.335195 0.710727 0.186353 -0.144680
O38   O     O_2   0.421953 0.791051 0.259194 -0.159765
O39   O     O_3   0.498956 0.748150 0.164051 -0.503928
H11   H     H_    0.555976 0.753280 0.184701 0.383575
S10   S     S_3+6 0.547146 0.718227 0.788558 0.170951
O40   O     O_2   0.638579 0.724637 0.813566 -0.121097
O41   O     O_2   0.535283 0.795045 0.744313 -0.160216
O42   O     O_3   0.472391 0.738372 0.840618 -0.511915
H12   H     H_    0.413904 0.738315 0.821348 0.387162
S11   S     S_3+6 0.781934 0.337387 0.567081 0.132102
O43   O     O_2   0.859989 0.294344 0.598497 -0.205703
O44   O     O_2   0.725683 0.393289 0.608581 -0.260211
O45   O     O_3   0.720668 0.249447 0.540268 -0.458289
H13   H     H_    0.697539 0.214941 0.573835 0.380897
S12   S     S_3+6 0.208919 0.679938 0.546056 0.181463
O46   O     O_2   0.127480 0.725278 0.572527 -0.162567
O47   O     O_2   0.265958 0.639175 0.592961 -0.217567
O48   O     O_3   0.264456 0.765054 0.511114 -0.416405
H14   H     H_    0.292327 0.733309 0.477905 0.376014
F11   F     F_    0.762707 0.645491 0.447124 -0.574445
F12   F     F_    0.235466 0.336903 0.468405 -0.588899
S13   S     S_3+6 0.888375 0.782243 0.480284 0.204717
O49   O     O_2   0.812997 0.770793 0.521669 -0.206654
O50   O     O_2   0.948862 0.856333 0.503769 -0.132653
O51   O     O_3   0.847158 0.821997 0.417869 -0.358308
H15   H     H_    0.851338 0.767045 0.391542 0.400017
S14   S     S_3+6 0.108342 0.214438 0.514444 0.227734
O52   O     O_2   0.178477 0.239143 0.557082 -0.092646
O53   O     O_2   0.046987 0.144981 0.542134 -0.123578
O54   O     O_3   0.157558 0.160889 0.458247 -0.408061
H16   H     H_    0.140911 0.200266 0.424739 0.383311

loop_
_geom_bond_atom_site_label_1
_geom_bond_atom_site_label_2
_ccdc_geom_bond_type
C16   C28   A    
C58   H2    S    
S8    O34   D    
C49   N1    A    
C59   S3    S    
C41   C42   A    
C48   O10   S    
S5    O25   D    
C48   C56   A    
S9    O39   S    
C34   N4    A    
S4    O23   D    
O27   H7    S    
C33   N3    A    
C9    S7    S    
C39   C41   A    
C53   C54   A    
C40   C46   A    
C1    C18   S    
C33   C39   A    
C37   C41   A    
N3    Zn1   S    
C29   S13   S    
O51   H15   S    
C35   C37   A    
C38   C42   A    
C2    O2    A    
S11   O44   D    
C47   N1    A    
C10   C12   A    
S2    O17   D    
C24   O7    A    
C57   C59   A    
O48   H14   S    
C35   N3    A    
C58   C60   A    
C50   N2    A    
S6    O28   D    
C16   S12   S    
S7    O33   S    
C4    F10   S    
S14   O54   S    
C1    O1    A    
C15   S11   S    
C15   C27   A    
C49   O11   S    
C49   C51   A    
C43   F5    S    
O24   H6    S    
C51   C57   A    
S13   O50   D    
C2    O3    A    
C18   C20   A    
C3    C13   A    
C39   C45   A    
C40   C42   A    
C46   F8    S    
O8    Zn2   S    
C55   C60   A    
C2    C17   S    
S14   O53   D    
S10   O42   S    
C50   O12   S    
O5    Zn1   S    
S4    O22   D    
S1    O14   D    
C52   C54   A    
O54   H16   S    
S12   O47   D    
C53   C55   A    
C54   C56   A    
O4    Zn2   S    
C23   O5    A    
O1    Zn1   S    
O15   H3    S    
S10   O41   D    
S11   O45   S    
C5    C7    A    
S2    O16   D    
O45   H13   S    
C6    C8    A    
C5    S5    S    
S8    O36   S    
S9    O38   D    
C25   C26   A    
C21   C29   A    
S1    O13   D    
C20   F12   S    
C51   C53   A    
C37   C43   A    
C38   C44   A    
C44   F6    S    
S12   O48   S    
C35   F3    S    
C50   C52   A    
S3    O19   D    
C30   S14   S    
O30   H8    S    
C32   S2    S    
C7    C9    A    
O7    Zn1   S    
S5    O26   D    
C16   C18   A    
S13   O51   S    
C9    C11   A    
C6    S6    S    
S7    O31   D    
C52   C58   A    
C4    C6    A    
S3    O20   D    
C12   C14   A    
C22   C26   A    
S14   O52   D    
C34   C40   A    
O3    Zn1   S    
C23   O8    A    
S9    O37   D    
O18   H4    S    
S1    O15   S    
C44   C45   A    
C24   O6    A    
C47   C55   A    
S12   O46   D    
C15   C17   A    
C21   C25   A    
S8    O35   D    
C22   C30   A    
C19   C21   A    
C27   C32   A    
C29   C31   A    
C19   F11   S    
C28   C31   A    
C20   C22   A    
S10   O40   D    
C3    C5    A    
S2    O18   S    
C11   S9    S    
O42   H12   S    
C56   C59   A    
C57   H1    S    
O39   H11   S    
C25   C27   A    
N4    Zn2   S    
C26   C28   A    
C1    O4    A    
C31   S1    S    
S6    O30   S    
C33   F1    S    
O36   H10   S    
C47   O9    S    
O6    Zn2   S    
C10   S8    S    
S11   O43   D    
O2    Zn2   S    
C30   C32   A    
C11   C13   A    
C13   N2    S    
C3    F9    S    
C7    C23   S    
C14   N1    S    
C36   C38   A    
C17   C19   A    
S6    O29   D    
S5    O27   S    
C36   N4    A    
C4    C14   A    
O21   H5    S    
C43   C46   A    
C34   F2    S    
S7    O32   D    
C48   N2    A    
C36   F4    S    
S3    O21   S    
C8    C24   S    
C8    C10   A    
C12   S10   S    
C45   F7    S    
S13   O49   D    
C60   S4    S    
S4    O24   S    
O33   H9    S    
