data_mof_unit_37271.cif
_audit_creation_date              2012-12-10T18:18:17-0500
_audit_creation_method            fapswitch 2.2
_symmetry_space_group_name_H-M    P1
_symmetry_Int_Tables_number       1
_space_group_crystal_system       triclinic
_cell_length_a                    14.10223
_cell_length_b                    14.978651
_cell_length_c                    15.613327
_cell_angle_alpha                 89.184072
_cell_angle_beta                  68.680613
_cell_angle_gamma                 90.393057
_cell_volume                      3071.78156798

loop_
_atom_site_label
_atom_site_type_symbol
_atom_type_description
_atom_site_fract_x
_atom_site_fract_y
_atom_site_fract_z
_atom_type_partial_charge
C1    C     C_R   0.501370 0.672993 0.497346 0.883008
C2    C     C_R   0.502905 0.768604 0.494725 -0.115782
C3    C     C_R   0.579247 0.188469 0.445008 -0.295900
C4    C     C_R   0.419465 0.811279 0.556940 -0.287248
C5    C     C_R   0.580962 0.096609 0.442242 0.134542
C6    C     C_R   0.417779 0.903281 0.560228 0.128545
C7    C     C_R   0.498143 0.046629 0.502945 0.048258
C8    C     C_R   0.500575 0.953380 0.499626 0.051732
C9    C     C_R   0.412926 0.089743 0.566580 0.071294
C10   C     C_R   0.585271 0.910398 0.435210 0.074715
C11   C     C_R   0.664250 0.054400 0.378707 -0.217990
C12   C     C_R   0.498209 0.327023 0.503118 0.880341
C13   C     C_R   0.334571 0.945574 0.623903 -0.220814
C14   C     C_R   0.666281 0.962195 0.374635 -0.218946
C15   C     C_R   0.332170 0.037914 0.627477 -0.219432
C16   C     C_R   0.436664 0.499816 0.675330 0.875695
C17   C     C_R   0.563334 0.499113 0.324589 0.869104
C18   C     C_R   0.170343 0.474468 0.577513 -0.183800
C19   C     C_R   0.829086 0.529717 0.424056 -0.186582
C20   C     C_R   0.231023 0.533276 0.424732 0.544925
C21   C     C_R   0.768882 0.463776 0.573996 0.570510
C22   C     C_R   0.131834 0.529474 0.421723 -0.064841
C23   C     C_R   0.383611 0.548299 0.097522 -0.247881
C24   C     C_R   0.867425 0.473131 0.579488 -0.104776
C25   C     C_R   0.050066 0.502155 0.500800 0.046932
C26   C     C_R   0.949140 0.501633 0.500774 0.060465
C27   C     C_R   0.068978 0.476446 0.580210 0.026961
C28   C     C_R   0.930264 0.528513 0.421647 0.028453
C29   C     C_R   0.112350 0.553741 0.342068 -0.191528
C30   C     C_R   0.886649 0.453636 0.660534 -0.215400
C31   C     C_R   0.012821 0.553661 0.342197 -0.219984
C32   C     C_R   0.986147 0.454284 0.660519 -0.203510
C33   C     C_R   0.398520 0.506867 0.774935 -0.062905
C34   C     C_R   0.625005 0.524587 0.896348 -0.235967
C35   C     C_R   0.601916 0.501356 0.224351 -0.061635
C36   C     C_R   0.267872 0.541893 0.920406 -0.217342
C37   C     C_R   0.737854 0.508298 0.075407 -0.231727
C38   C     C_R   0.297116 0.527305 0.826333 -0.214032
C39   C     C_R   0.706080 0.501755 0.171013 -0.201066
C40   C     C_R   0.469072 0.500167 0.817708 -0.271943
C41   C     C_R   0.530842 0.505872 0.181909 -0.264338
C42   C     C_R   0.444111 0.522379 0.909211 0.086149
C43   C     C_R   0.560420 0.518877 0.087491 0.082368
C44   C     C_R   0.340833 0.539668 0.962185 0.192849
C45   C     C_R   0.312093 0.554332 0.055839 -0.248261
C46   C     C_R   0.665613 0.516573 0.033247 0.185311
C47   C     C_R   0.519186 0.525051 0.949462 0.071911
C48   C     C_R   0.487243 0.530305 0.045931 0.073435
C49   C     C_3   0.321620 0.663172 0.369640 0.135935
C50   C     C_3   0.284434 0.725683 0.310439 -0.444659
C51   C     C_3   0.314058 0.822503 0.318914 -0.923462
C52   C     C_3   0.715559 0.331231 0.659545 0.011799
C53   C     C_3   0.647179 0.264299 0.636077 -0.289735
C54   C     C_3   0.649979 0.171834 0.677254 -0.975985
C55   C     C_R   0.322399 0.230544 0.633053 0.131170
C56   C     C_R   0.696881 0.521670 0.937929 -0.250858
C57   C     C_R   0.327307 0.266410 0.713918 -0.159722
C58   C     C_R   0.241247 0.304712 0.778439 -0.124392
C59   C     C_R   0.149650 0.306613 0.763079 -0.149220
C60   C     C_R   0.144207 0.270865 0.682736 -0.163656
C61   C     C_R   0.230462 0.233617 0.617468 -0.116542
C62   C     C_R   0.670240 0.770382 0.361527 0.126586
C63   C     C_R   0.764994 0.761532 0.370993 -0.114344
C64   C     C_R   0.847805 0.728037 0.298802 -0.177848
C65   C     C_R   0.836131 0.702184 0.217475 -0.142576
C66   C     C_R   0.741753 0.710615 0.207972 -0.116310
C67   C     C_R   0.411137 0.183482 0.567704 -0.072259
C68   C     C_R   0.658722 0.744061 0.279958 -0.168511
C69   C     C_R   0.586132 0.816797 0.432584 -0.076798
C70   C     C_R   0.495556 0.231404 0.506365 -0.118101
H1    H     H_    0.233747 0.568919 0.097386 0.137532
H2    H     H_    0.543851 0.476588 0.778461 0.204715
H3    H     H_    0.762462 0.497457 0.202948 0.157577
H4    H     H_    0.241153 0.532421 0.793995 0.155142
H5    H     H_    0.188952 0.556254 0.960096 0.130566
H6    H     H_    0.818552 0.507529 0.034592 0.131966
H7    H     H_    0.356091 0.561238 0.169992 0.179608
H8    H     H_    0.654749 0.529755 0.822264 0.165708
H9    H     H_    0.642688 0.227239 0.397981 0.153316
H10   H     H_    0.356350 0.772291 0.604102 0.153807
H11   H     H_    0.727744 0.092815 0.331625 0.146426
H12   H     H_    0.777085 0.521542 0.895226 0.143043
H13   H     H_    0.271194 0.907145 0.671119 0.146287
H14   H     H_    0.731887 0.932359 0.323653 0.166076
H15   H     H_    0.266558 0.067887 0.678348 0.164799
H16   H     H_    0.404623 0.675402 0.350232 0.179773
H17   H     H_    0.283626 0.681581 0.443329 0.138310
H18   H     H_    0.318357 0.706421 0.237208 0.234407
H19   H     H_    0.200278 0.720837 0.333084 0.225472
H20   H     H_    0.280415 0.843739 0.391590 0.266961
H21   H     H_    0.285247 0.866561 0.276231 0.267211
H22   H     H_    0.398208 0.830166 0.294562 0.261430
H23   H     H_    0.185684 0.454523 0.637950 0.177007
H24   H     H_    0.702354 0.324511 0.734002 0.164113
H25   H     H_    0.795937 0.312381 0.620345 0.127482
H26   H     H_    0.567803 0.288399 0.662225 0.228531
H27   H     H_    0.674216 0.258601 0.560274 0.233134
H28   H     H_    0.729013 0.146356 0.651957 0.266065
H29   H     H_    0.601096 0.125040 0.656473 0.275497
H30   H     H_    0.620809 0.174443 0.753511 0.266048
H31   H     H_    0.396653 0.262867 0.728124 0.114773
H32   H     H_    0.245209 0.331813 0.840953 0.143123
H33   H     H_    0.082917 0.335706 0.813438 0.120283
H34   H     H_    0.813489 0.552054 0.364402 0.173376
H35   H     H_    0.073197 0.272101 0.670957 0.139899
H36   H     H_    0.225264 0.205490 0.555780 0.130761
H37   H     H_    0.775197 0.782898 0.433101 0.133101
H38   H     H_    0.921174 0.722870 0.305704 0.137457
H39   H     H_    0.900358 0.676330 0.161586 0.120878
H40   H     H_    0.733182 0.692265 0.144382 0.147484
H41   H     H_    0.586449 0.751902 0.271228 0.115573
H42   H     H_    0.173985 0.572702 0.279125 0.165767
H43   H     H_    0.824987 0.437521 0.724417 0.152904
H44   H     H_    0.000633 0.572841 0.279874 0.132501
H45   H     H_    0.998156 0.437271 0.723426 0.130975
H46   H     H_    0.451811 0.496220 0.223538 0.206803
N1    N     N_R   0.249980 0.499930 0.499960 -0.143401
N2    N     N_R   0.750020 0.500070 0.500040 -0.130837
O1    O     O_R   0.419720 0.632140 0.499980 -0.650056
O2    O     O_3   0.690053 0.419936 0.642934 -0.643587
O3    O     O_R   0.580280 0.367860 0.500020 -0.622640
O4    O     O_R   0.580270 0.632160 0.499970 -0.600330
O5    O     O_R   0.419730 0.367840 0.500030 -0.598902
O6    O     O_R   0.373870 0.499980 0.632250 -0.628433
O7    O     O_R   0.626130 0.500020 0.367750 -0.626550
O8    O     O_R   0.534420 0.500000 0.632240 -0.564507
O9    O     O_R   0.465580 0.500000 0.367760 -0.578200
O10   O     O_3   0.308338 0.572371 0.351344 -0.672702
Zn1   Zn    Zn3+2 0.392800 0.499980 0.500010 0.962880
Zn2   Zn    Zn3+2 0.607200 0.500020 0.499990 0.979213

loop_
_geom_bond_atom_site_label_1
_geom_bond_atom_site_label_2
_ccdc_geom_bond_type
C66   C68   A    
C34   C56   A    
C23   C45   A    
C22   C29   A    
C45   H1    S    
C49   H17   S    
C29   H42   S    
C2    C4    A    
C14   H14   S    
O3    Zn2   S    
C3    H9    S    
C9    C67   A    
C7    C8    A    
C53   C54   S    
C11   H11   S    
C62   C63   A    
C24   C26   A    
C5    C11   A    
C21   O2    S    
C51   H20   S    
C16   C33   S    
C11   C14   A    
O8    Zn2   S    
C52   H25   S    
C1    C2    S    
C1    O1    A    
C1    O4    A    
C51   H21   S    
O7    Zn2   S    
C12   O3    A    
C19   N2    A    
C22   C25   A    
C52   H24   S    
C58   H32   S    
C2    C69   A    
N1    Zn1   S    
C43   C48   A    
C31   H44   S    
C50   H18   S    
C15   H15   S    
C40   C42   A    
C59   C60   A    
O5    Zn1   S    
C53   H26   S    
C41   C43   A    
C54   H30   S    
C42   C44   A    
C20   N1    A    
C64   H38   S    
C33   C40   A    
C18   C27   A    
C20   O10   S    
C3    C70   A    
C4    C6    A    
C10   C14   A    
C5    C7    A    
C17   O9    A    
C6    C8    A    
C53   H27   S    
C25   C26   A    
C66   H40   S    
C62   C69   S    
C60   C61   A    
C68   H41   S    
C35   C39   A    
O9    Zn1   S    
C21   N2    A    
N2    Zn2   S    
C36   H5    S    
C51   H22   S    
C19   H34   S    
C50   H19   S    
C47   C48   A    
C50   C51   S    
C23   H7    S    
C56   H12   S    
C19   C28   A    
C18   N1    A    
C65   H39   S    
C52   O2    S    
C8    C10   A    
C37   H6    S    
C20   C22   A    
C49   C50   S    
C55   C57   A    
C54   H29   S    
C36   C44   A    
C41   H46   S    
C63   H37   S    
C61   H36   S    
C52   C53   S    
C38   H4    S    
C7    C9    A    
C49   O10   S    
C12   C70   S    
C23   C48   A    
C40   H2    S    
C27   C32   A    
C9    C15   A    
C49   H16   S    
C28   C31   A    
C44   C45   A    
C3    C5    A    
C55   C67   S    
C4    H10   S    
C25   C27   A    
C57   H31   S    
C13   H13   S    
C26   C28   A    
C33   C38   A    
C62   C68   A    
C67   C70   A    
C59   H33   S    
C64   C65   A    
C13   C15   A    
C58   C59   A    
C29   C31   A    
C34   H8    S    
C6    C13   A    
C30   C32   A    
C17   O7    A    
C57   C58   A    
C12   O5    A    
C55   C61   A    
C36   C38   A    
O1    Zn1   S    
O6    Zn1   S    
C42   C47   A    
C39   H3    S    
C32   H45   S    
C16   O6    A    
C35   C41   A    
C43   C46   A    
C24   C30   A    
C63   C64   A    
C10   C69   A    
C37   C39   A    
C65   C66   A    
C21   C24   A    
C46   C56   A    
C18   H23   S    
C54   H28   S    
C34   C47   A    
C17   C35   S    
C37   C46   A    
C16   O8    A    
O4    Zn2   S    
C60   H35   S    
C30   H43   S    
