data_mof_unit_21860.cif
_audit_creation_date              2012-10-26T18:47:34-0400
_audit_creation_method            fapswitch 2.2
_symmetry_space_group_name_H-M    P1
_symmetry_Int_Tables_number       1
_space_group_crystal_system       triclinic
_cell_length_a                    10.866403
_cell_length_b                    12.973585
_cell_length_c                    11.756302
_cell_angle_alpha                 101.002945
_cell_angle_beta                  95.395974
_cell_angle_gamma                 92.087494
_cell_volume                      1617.17383676

loop_
_atom_site_label
_atom_site_type_symbol
_atom_type_description
_atom_site_fract_x
_atom_site_fract_y
_atom_site_fract_z
_atom_type_partial_charge
C1    C     C_R   0.503776 0.299187 0.477687 0.590298
C2    C     C_R   0.423144 0.984207 0.630519 -0.110783
C3    C     C_R   0.570346 0.124072 0.373298 0.053279
C4    C     C_R   0.428220 0.875933 0.626431 -0.014826
C5    C     C_R   0.463679 0.137705 0.548985 -0.126941
C6    C     C_R   0.531027 0.861462 0.448172 -0.123532
C7    C     C_R   0.469879 0.030342 0.544144 0.021494
C8    C     C_R   0.523556 0.968634 0.452096 0.016553
C9    C     C_R   0.414670 0.379511 0.013689 -0.149317
C10   C     C_R   0.583821 0.620076 0.986959 -0.153335
C11   C     C_R   0.417123 0.392916 0.136119 0.194518
C12   C     C_R   0.496108 0.700796 0.522249 0.529149
C13   C     C_R   0.580248 0.608367 0.864718 0.209880
C14   C     C_R   0.530735 0.555998 0.160428 0.028630
C15   C     C_R   0.468637 0.443766 0.839400 0.068140
C16   C     C_R   0.261837 0.497223 0.497766 0.577171
C17   C     C_R   0.738378 0.507562 0.502265 0.600942
C18   C     C_R   0.528940 0.544091 0.037188 -0.023512
C19   C     C_R   0.470710 0.454956 0.962827 -0.003677
C20   C     C_R   0.231613 0.732125 0.265333 -0.084753
C21   C     C_R   0.906690 0.596777 0.918738 -0.120525
C22   C     C_R   0.172092 0.689244 0.347296 -0.108407
C23   C     C_R   0.873883 0.518232 0.505053 -0.039465
C24   C     C_R   0.898393 0.530624 0.808954 -0.023427
C25   C     C_R   0.117284 0.586945 0.318079 0.077093
C26   C     C_R   0.942860 0.567156 0.715059 0.088886
C27   C     C_R   0.119201 0.529175 0.204576 -0.019639
C28   C     C_R   0.995329 0.670256 0.732217 -0.071286
C29   C     C_R   0.177299 0.572453 0.121966 -0.116696
C30   C     C_R   0.002759 0.736269 0.841277 -0.050118
C31   C     C_R   0.234936 0.674161 0.151861 0.068047
C32   C     C_R   0.958170 0.700455 0.935858 0.081455
C33   C     C_R   0.929079 0.545085 0.409733 0.021668
C34   C     C_R   0.126873 0.496826 0.492827 -0.032265
C35   C     C_R   0.067527 0.463429 0.582256 0.034814
C36   C     C_2   0.297838 0.720335 0.065299 0.583128
C37   C     C_2   0.965490 0.771272 0.051559 0.578588
C38   C     C_2   0.636405 0.699330 0.824800 0.610928
C39   C     C_2   0.353788 0.307394 0.178705 0.612100
C40   C     C_2   0.855179 0.587301 0.318720 0.617708
C41   C     C_2   0.127578 0.394544 0.656755 0.611689
C42   C     C_2   0.369953 0.831899 0.717860 0.623835
C43   C     C_2   0.638285 0.170685 0.289786 0.613274
C44   C     C_R   0.949403 0.497294 0.601037 -0.055935
C45   C     C_R   0.057378 0.540583 0.406947 -0.072501
C46   C     C_R   0.485024 0.814247 0.534573 -0.041731
C47   C     C_R   0.512617 0.185427 0.464537 -0.004821
C48   C     C_R   0.571931 0.015172 0.366652 -0.098622
Cu1   Cu    Cu3+1 0.509250 0.507730 0.615930 1.061306
Cu2   Cu    Cu3+1 0.490750 0.492270 0.384070 1.051498
H1    H     H_    0.421429 0.375240 0.783204 0.129147
H2    H     H_    0.031744 0.699150 0.660794 0.125862
H3    H     H_    0.177920 0.526083 0.035051 0.162961
H4    H     H_    0.043768 0.815247 0.851469 0.178845
H5    H     H_    0.574401 0.814602 0.377823 0.159096
H6    H     H_    0.421139 0.184618 0.619693 0.122616
H7    H     H_    0.615857 0.967105 0.297579 0.162279
H8    H     H_    0.380336 0.032527 0.700216 0.143219
H9    H     H_    0.410656 0.836885 0.034739 0.399943
H10   H     H_    0.928872 0.792327 0.218988 0.364624
H11   H     H_    0.747707 0.754522 0.719894 0.329065
H12   H     H_    0.576784 0.625173 0.216452 0.159698
H13   H     H_    0.218512 0.261747 0.267476 0.347187
H14   H     H_    0.781668 0.563524 0.152239 0.336893
H15   H     H_    0.234714 0.272193 0.665517 0.318877
H16   H     H_    0.272474 0.714006 0.604895 0.268310
H17   H     H_    0.751616 0.288392 0.262519 0.356245
H18   H     H_    0.367697 0.310092 0.958151 0.128764
H19   H     H_    0.629378 0.689726 0.043352 0.147597
H20   H     H_    0.273957 0.811058 0.290597 0.165952
H21   H     H_    0.873302 0.566381 0.989875 0.149379
H22   H     H_    0.168311 0.736003 0.433346 0.086203
H23   H     H_    0.859575 0.450816 0.797663 0.143520
H24   H     H_    0.075845 0.450567 0.180235 0.176346
N1    N     N_R   0.523180 0.519350 0.790130 -0.244836
N2    N     N_R   0.476820 0.480650 0.209870 -0.255285
O1    O     O_R   0.506570 0.354460 0.582000 -0.525090
O2    O     O_R   0.369987 0.814514 0.100915 -0.681226
O3    O     O_2   0.014271 0.859943 0.066166 -0.479396
O4    O     O_R   0.916972 0.737094 0.144594 -0.699216
O5    O     O_2   0.616820 0.788591 0.872888 -0.484374
O6    O     O_R   0.717072 0.685516 0.738675 -0.682582
O7    O     O_2   0.383629 0.217011 0.148815 -0.477136
O8    O     O_R   0.254709 0.327448 0.245391 -0.687904
O9    O     O_2   0.804658 0.670037 0.344564 -0.538191
O10   O     O_R   0.839341 0.529638 0.204901 -0.696199
O11   O     O_2   0.108614 0.403268 0.758910 -0.529914
O12   O     O_R   0.493430 0.645540 0.418000 -0.525472
O13   O     O_R   0.202893 0.316391 0.607836 -0.694570
O14   O     O_2   0.385279 0.879533 0.818668 -0.419531
O15   O     O_R   0.292567 0.740402 0.691410 -0.638133
O16   O     O_2   0.636720 0.123865 0.188900 -0.449657
O17   O     O_R   0.709081 0.265312 0.327382 -0.683603
O18   O     O_R   0.490940 0.341410 0.386200 -0.455106
O19   O     O_R   0.509060 0.658590 0.613800 -0.455828
O20   O     O_R   0.327460 0.506540 0.597900 -0.463386
O21   O     O_R   0.672540 0.493460 0.402100 -0.464880
O22   O     O_R   0.311830 0.493480 0.402100 -0.469736
O23   O     O_R   0.688170 0.506520 0.597900 -0.472080
O24   O     O_2   0.287525 0.676169 0.962896 -0.469258

loop_
_geom_bond_atom_site_label_1
_geom_bond_atom_site_label_2
_ccdc_geom_bond_type
C15   N1    A    
C27   C29   A    
C33   C45   A    
C14   C18   A    
C5    H6    S    
C41   O13   S    
C2    C7    A    
C6    H5    S    
C26   C44   S    
C7    C8    A    
C4    C46   A    
H15   O13   S    
C30   H4    S    
C3    C43   S    
C17   C23   S    
C29   H3    S    
C21   H21   S    
C24   C26   A    
C39   O8    S    
C34   C35   A    
C11   N2    A    
C24   H23   S    
C40   O10   S    
C14   H12   S    
C3    C48   A    
C1    O1    A    
C42   O15   S    
C22   H22   S    
C16   C34   S    
C9    C19   A    
C13   N1    A    
C1    O18   A    
C23   C33   A    
C22   C25   A    
Cu1   N1    S    
C12   O19   A    
C15   H1    S    
C27   H24   S    
Cu2   O12   S    
C38   O6    S    
C20   H20   S    
C43   O17   S    
H9    O2    S    
H14   O10   S    
C21   C32   A    
C41   O11   D    
C37   O4    S    
C16   O20   A    
C33   C40   S    
Cu2   O22   S    
C12   O12   A    
C48   H7    S    
C12   C46   S    
C5    C7    A    
C1    C47   S    
C6    C8    A    
C23   C44   A    
C42   O14   D    
C14   N2    A    
C40   O9    D    
C15   C19   A    
C8    C48   A    
Cu2   N2    S    
Cu1   O23   S    
C17   O23   A    
C36   O24   D    
C34   C45   A    
C32   C37   S    
Cu1   O19   S    
C11   C39   S    
C35   C44   A    
C9    C11   A    
C13   C38   S    
C20   C22   A    
C38   O5    D    
C25   C45   S    
H10   O4    S    
Cu2   O21   S    
C6    C46   A    
Cu2   O18   S    
C10   C13   A    
C2    H8    S    
H16   O15   S    
C37   O3    D    
C25   C27   A    
C26   C28   A    
C43   O16   D    
H13   O8    S    
H11   O6    S    
C28   C30   A    
C9    H18   S    
C39   O7    D    
C29   C31   A    
C36   O2    S    
C30   C32   A    
C28   H2    S    
C16   O22   A    
C4    C42   S    
C10   C18   A    
C2    C4    A    
C3    C47   A    
C5    C47   A    
Cu1   O1    S    
Cu1   O20   S    
C35   C41   S    
C10   H19   S    
Cu1   Cu2   S    
C21   C24   A    
H17   O17   S    
C18   C19   A    
C31   C36   S    
C17   O21   A    
C20   C31   A    
