data_mof_unit_49424.cif
_audit_creation_date              2012-12-10T19:42:13-0500
_audit_creation_method            fapswitch 2.2
_symmetry_space_group_name_H-M    P1
_symmetry_Int_Tables_number       1
_space_group_crystal_system       triclinic
_cell_length_a                    11.078338
_cell_length_b                    10.991343
_cell_length_c                    9.949
_cell_angle_alpha                 90.676028
_cell_angle_beta                  91.237349
_cell_angle_gamma                 90.947799
_cell_volume                      1210.91033401

loop_
_atom_site_label
_atom_site_type_symbol
_atom_type_description
_atom_site_fract_x
_atom_site_fract_y
_atom_site_fract_z
_atom_type_partial_charge
C1    C     C_R   0.495758 0.266793 0.499530 0.847263
C2    C     C_R   0.821855 0.454111 0.966398 -0.126300
C3    C     C_R   0.839467 0.328374 0.966316 -0.198903
C4    C     C_R   0.262370 0.509096 0.497729 0.777550
C5    C     C_R   0.884852 0.267764 0.853655 0.191065
C6    C     C_R   0.912725 0.335712 0.741437 -0.170956
C7    C     C_R   0.899012 0.461912 0.741584 0.025550
C8    C     C_2   0.470937 0.934945 0.398056 0.113690
C9    C     C_2   0.506326 0.865848 0.504186 -0.217264
C10   C     C_2   0.502221 0.065266 0.398395 -0.163014
C11   C     C_2   0.470456 0.137514 0.499615 -0.351435
C12   C     C_R   0.143501 0.419576 0.983122 0.075822
C13   C     C_2   0.512675 0.405252 0.927782 0.120661
C14   C     C_2   0.472369 0.406227 0.073010 0.221565
C15   C     C_R   0.498652 0.733656 0.500637 0.773604
C16   C     C_R   0.737035 0.508321 0.501753 0.773736
C17   C     C_R   0.171116 0.540883 0.019231 -0.186184
C18   C     C_R   0.145029 0.584312 0.148761 -0.136062
C19   C     C_R   0.089016 0.506161 0.240076 0.112568
C20   C     C_R   0.048895 0.390374 0.196821 -0.208574
C21   C     C_R   0.078974 0.346891 0.070809 -0.184030
C22   C     C_1   0.191245 0.362582 0.865293 0.179240
C23   C     C_R   0.928166 0.556015 0.385069 -0.232741
C24   C     C_3   0.916560 0.134326 0.857997 -0.441559
C25   C     C_3   0.869325 0.063553 0.733823 -0.815012
C26   C     C_3   0.404993 0.880144 0.274372 -0.319842
C27   C     C_3   0.330723 0.970366 0.193724 -0.872689
C28   C     C_1   0.558160 0.917511 0.627899 0.256907
C29   C     C_3   0.556378 0.284277 0.868530 -0.281500
C30   C     C_3   0.606213 0.184099 0.960082 -0.952713
C31   C     C_1   0.457873 0.608920 0.897383 0.392057
C32   C     C_3   0.416718 0.285752 0.121136 -0.331906
C33   C     C_3   0.306034 0.287181 0.205928 -0.731267
C34   C     C_R   0.870540 0.531348 0.505064 -0.094544
C35   C     C_3   0.845207 0.661934 0.852478 -0.393356
C36   C     C_3   0.801298 0.721662 0.981671 -0.851048
C37   C     C_R   0.943122 0.524153 0.622862 0.000387
C38   C     C_R   0.068941 0.537933 0.616701 -0.215298
C39   C     C_R   0.127880 0.532161 0.493732 -0.098765
C40   C     C_R   0.053781 0.544510 0.374832 0.022261
C41   C     C_R   0.853946 0.523904 0.854483 0.207191
Cu1   Cu    Cu3+1 0.500020 0.500020 0.638630 0.962092
Cu2   Cu    Cu3+1 0.499980 0.499980 0.361370 0.928732
H1    H     H_    0.828487 0.280016 0.059284 0.134400
H2    H     H_    0.874127 0.564369 0.293455 0.158819
H3    H     H_    0.120979 0.535860 0.709451 0.166489
H4    H     H_    0.788602 0.495702 0.056974 0.145054
H5    H     H_    0.780041 0.097387 0.700222 0.270205
H6    H     H_    0.932826 0.074255 0.649752 0.236400
H7    H     H_    0.861538 0.965157 0.756922 0.254937
H8    H     H_    0.016339 0.125926 0.862955 0.209794
H9    H     H_    0.880543 0.091647 0.949928 0.196197
H10   H     H_    0.269070 0.020026 0.260764 0.257420
H11   H     H_    0.391346 0.034658 0.142218 0.254394
H12   H     H_    0.951491 0.291299 0.654976 0.155361
H13   H     H_    0.275581 0.920720 0.115580 0.248410
H14   H     H_    0.471455 0.837881 0.206792 0.229706
H15   H     H_    0.339349 0.809339 0.306853 0.205847
H16   H     H_    0.644685 0.220710 0.055523 0.246918
H17   H     H_    0.536488 0.113786 0.981472 0.248172
H18   H     H_    0.676102 0.133212 0.907234 0.291235
H19   H     H_    0.477392 0.239543 0.817407 0.236901
H20   H     H_    0.630178 0.306346 0.798729 0.254490
H21   H     H_    0.317400 0.256793 0.310170 0.250524
H22   H     H_    0.273990 0.379226 0.204149 0.306143
H23   H     H_    0.552209 0.100302 0.314609 0.153275
H24   H     H_    0.239357 0.219514 0.165350 0.199412
H25   H     H_    0.385645 0.233248 0.030693 0.186522
H26   H     H_    0.485219 0.231900 0.172546 0.215989
H27   H     H_    0.708244 0.689903 0.003373 0.245504
H28   H     H_    0.863249 0.701286 0.067480 0.246014
H29   H     H_    0.799854 0.821902 0.969116 0.253757
H30   H     H_    0.936011 0.701017 0.831763 0.198895
H31   H     H_    0.783230 0.687851 0.768687 0.223694
H32   H     H_    0.420445 0.101543 0.583520 0.168245
H33   H     H_    0.214953 0.600120 0.949056 0.147583
H34   H     H_    0.555346 0.564369 0.115736 0.172991
H35   H     H_    0.169126 0.676922 0.177849 0.132564
H36   H     H_    0.001383 0.330439 0.264257 0.140888
H37   H     H_    0.060641 0.252152 0.047313 0.129061
N1    N     N_2   0.498640 0.498660 0.846910 -0.263877
N2    N     N_2   0.498610 0.498630 0.153040 -0.304102
N3    N     N_1   0.228906 0.313465 0.772067 -0.292808
N4    N     N_1   0.597484 0.956505 0.728302 -0.309698
N5    N     N_1   0.425223 0.701473 0.938360 -0.356331
O1    O     O_R   0.500020 0.321960 0.617040 -0.600518
O2    O     O_R   0.499980 0.321920 0.382900 -0.570293
O3    O     O_R   0.319660 0.500030 0.617070 -0.561061
O4    O     O_R   0.319620 0.499990 0.382930 -0.583497
O5    O     O_R   0.500020 0.678080 0.617100 -0.570752
O6    O     O_R   0.499980 0.678040 0.382960 -0.593976
O7    O     O_R   0.680380 0.500010 0.617070 -0.585835
O8    O     O_R   0.680340 0.499970 0.382930 -0.586442

loop_
_geom_bond_atom_site_label_1
_geom_bond_atom_site_label_2
_ccdc_geom_bond_type
C1    O2    A    
C29   H20   S    
C35   H31   S    
C24   H9    S    
C31   N5    T    
C13   N1    D    
C28   N4    T    
C34   C37   A    
C8    C26   S    
C19   C20   A    
C1    C11   S    
C6    H12   S    
C27   H11   S    
C33   H22   S    
C16   O8    A    
Cu2   O4    S    
C23   H2    S    
C13   C29   S    
C5    C6    A    
C2    C41   A    
C23   C40   A    
C12   C22   S    
C18   C19   A    
C25   H7    S    
C16   C34   S    
C35   C36   S    
C8    C9    D    
C30   H17   S    
C12   C17   A    
C17   H33   S    
Cu1   O1    S    
C29   C30   S    
C36   H28   S    
C32   H25   S    
C24   H8    S    
C13   C14   S    
Cu1   N1    S    
C36   H27   S    
C10   H23   S    
C3    H1    S    
C24   C25   S    
C10   C11   D    
C39   C40   A    
C27   H13   S    
C12   C21   A    
Cu2   O6    S    
Cu1   O5    S    
C37   C38   A    
C4    C39   S    
C18   H35   S    
C23   C34   A    
C30   H16   S    
C17   C18   A    
C7    C37   S    
C26   H15   S    
C25   H5    S    
C32   H26   S    
C16   O7    A    
C26   C27   S    
Cu1   O3    S    
Cu1   Cu2   S    
C14   N2    D    
C33   H24   S    
C4    O4    A    
C1    O1    A    
C29   H19   S    
C35   H30   S    
C20   H36   S    
C14   C32   S    
C3    C5    A    
C27   H10   S    
C6    C7    A    
C4    O3    A    
C2    H4    S    
C31   N1    S    
Cu2   O2    S    
C22   N3    T    
C2    C3    A    
C9    C15   S    
C11   H32   S    
C32   C33   S    
C15   O5    A    
C38   C39   A    
C5    C24   S    
H34   N2    S    
C33   H21   S    
C21   H37   S    
Cu2   O8    S    
Cu1   O7    S    
C7    C41   A    
C35   C41   S    
C26   H14   S    
C25   H6    S    
C38   H3    S    
C19   C40   S    
C15   O6    A    
C20   C21   A    
C8    C10   S    
C30   H18   S    
Cu2   N2    S    
C36   H29   S    
C9    C28   S    
