data_mof_unit_15901.cif
_audit_creation_date              2013-03-05T16:06:21-0500
_audit_creation_method            fapswitch 2.2
_symmetry_space_group_name_H-M    P1
_symmetry_Int_Tables_number       1
_space_group_crystal_system       triclinic
_cell_length_a                    10.821024
_cell_length_b                    9.578317
_cell_length_c                    27.881144
_cell_angle_alpha                 89.942434
_cell_angle_beta                  93.082358
_cell_angle_gamma                 88.496018
_cell_volume                      2884.61916895

loop_
_atom_site_label
_atom_site_type_symbol
_atom_site_description
_atom_site_fract_x
_atom_site_fract_y
_atom_site_fract_z
_atom_type_partial_charge
O1    O     O_R   0.319640 0.618740 0.500000 -0.591594
O2    O     O_R   0.680360 0.381260 0.500000 -0.543126
O3    O     O_R   0.680360 0.618740 0.500000 -0.574839
O4    O     O_R   0.319640 0.381260 0.500000 -0.533628
C1    C     C_R   0.262057 0.501762 0.500526 0.930449
C2    C     C_R   0.737265 0.498436 0.500655 0.906057
O5    O     O_R   0.500020 0.618770 0.430260 -0.526370
O6    O     O_R   0.499980 0.381230 0.569740 -0.523154
O7    O     O_R   0.499980 0.618770 0.569740 -0.587877
O8    O     O_R   0.500020 0.381230 0.430260 -0.545852
C3    C     C_R   0.505510 0.499517 0.407395 0.843936
C4    C     C_R   0.497797 0.499802 0.592717 0.838661
Cu1   Cu    Cu3+1 0.500000 0.640660 0.500000 0.978020
Cu2   Cu    Cu3+1 0.500000 0.359340 0.500000 1.019650
C5    C     C_R   0.421835 0.485588 0.177029 0.557810
C6    C     C_R   0.607180 0.517632 0.824219 0.566320
O9    O     O_2   0.317659 0.492400 0.201522 -0.493077
O10   O     O_2   0.707661 0.546428 0.799725 -0.499836
N1    N     N_R   0.533975 0.482122 0.201960 -0.470477
N2    N     N_R   0.498130 0.491022 0.799312 -0.456053
C7    C     C_R   0.642485 0.473751 0.179231 0.554809
C8    C     C_R   0.394261 0.458718 0.822305 0.604944
C9    C     C_R   0.555180 0.363544 0.280649 0.145991
C10   C     C_R   0.476023 0.369102 0.721724 0.150647
C11   C     C_R   0.549215 0.368204 0.330905 0.084417
C12   C     C_R   0.472956 0.371379 0.671020 0.045727
C13   C     C_R   0.508044 0.619884 0.326152 0.073105
C14   C     C_R   0.508119 0.622594 0.673338 0.074409
C15   C     C_R   0.516059 0.613335 0.276330 -0.196756
C16   C     C_R   0.507792 0.618340 0.723445 -0.217994
C17   C     C_R   0.536963 0.486476 0.253466 0.268867
C18   C     C_R   0.493546 0.492900 0.747654 0.309308
C19   C     C_R   0.526733 0.467489 0.102226 -0.164588
C20   C     C_R   0.509684 0.473011 0.899131 -0.166382
C21   C     C_R   0.415170 0.481604 0.126394 0.012519
C22   C     C_R   0.614862 0.513454 0.874907 0.011351
C23   C     C_R   0.301376 0.493528 0.099204 0.142428
C24   C     C_R   0.723211 0.549633 0.902099 0.155581
C25   C     C_R   0.641458 0.459105 0.128892 -0.151561
C26   C     C_R   0.399469 0.440765 0.872527 -0.163181
C27   C     C_R   0.520072 0.496237 0.354285 -0.101337
C28   C     C_R   0.493054 0.498197 0.646217 -0.068973
H1    H     H_    0.503923 0.707869 0.255019 0.154269
H2    H     H_    0.519820 0.713694 0.743860 0.156426
C29   C     C_R   0.405745 0.439294 0.974235 -0.014480
C30   C     C_R   0.635228 0.464313 0.027087 -0.014099
C31   C     C_R   0.627697 0.487260 0.976546 0.091688
C32   C     C_R   0.408268 0.459811 0.024787 0.092788
C33   C     C_R   0.514501 0.465652 0.950012 0.005320
C34   C     C_R   0.523519 0.462946 0.051327 0.003065
C35   C     C_R   0.300420 0.390600 0.947135 0.041011
C36   C     C_R   0.748972 0.439637 0.054153 0.043864
C37   C     C_R   0.298835 0.388216 0.896658 0.473711
C38   C     C_R   0.751278 0.433577 0.104646 0.476257
O11   O     O_2   0.286169 0.445730 0.796428 -0.485454
O12   O     O_2   0.750560 0.481410 0.205460 -0.492076
C39   C     C_R   0.299553 0.484536 0.049270 -0.225291
C40   C     C_R   0.727639 0.538063 0.952050 -0.223619
H3    H     H_    0.211664 0.504896 0.030038 0.167029
H4    H     H_    0.808783 0.577021 0.971285 0.168424
C41   C     C_R   0.070960 0.404700 0.530427 0.344845
C42   C     C_R   0.927083 0.590672 0.471041 0.325990
C43   C     C_R   0.941725 0.408645 0.532372 0.334106
C44   C     C_R   0.054714 0.605039 0.475792 0.352293
C45   C     C_R   0.870578 0.496419 0.500694 -0.366377
C46   C     C_R   0.127600 0.504794 0.502370 -0.364937
C47   C     C_R   0.423289 0.078347 0.468421 0.208155
C48   C     C_R   0.581753 0.925277 0.529832 0.195695
C49   C     C_R   0.579288 0.073446 0.530284 0.230846
C50   C     C_R   0.426782 0.928492 0.466886 0.173626
N3    N     N_R   0.500000 0.852070 0.500000 -0.189059
N4    N     N_R   0.500000 0.147930 0.500000 -0.175126
N5    N     N_3   0.487745 0.753419 0.347585 -0.525280
H5    H     H_    0.561211 0.816903 0.339727 0.221343
H6    H     H_    0.406670 0.798278 0.331457 0.229988
N6    N     N_3   0.523731 0.754515 0.650510 -0.576928
H7    H     H_    0.452115 0.822562 0.660132 0.219752
H8    H     H_    0.607349 0.795370 0.663896 0.219638
N7    N     N_3   0.341753 0.159112 0.436442 -0.517523
H9    H     H_    0.250956 0.128463 0.440363 0.171379
H10   H     H_    0.365330 0.141382 0.401128 0.212958
N8    N     N_3   0.683683 0.857667 0.556268 -0.630962
H11   H     H_    0.657655 0.770198 0.574589 0.279589
H12   H     H_    0.752562 0.832206 0.532712 0.243629
N9    N     N_3   0.665651 0.146490 0.560923 -0.473542
H13   H     H_    0.754660 0.115563 0.551792 0.246729
H14   H     H_    0.655054 0.114886 0.596299 0.207471
N10   N     N_3   0.366938 0.857358 0.427217 -0.523484
H15   H     H_    0.309277 0.784312 0.440286 0.304781
H16   H     H_    0.310661 0.922608 0.405009 0.180842
N11   N     N_3   0.186493 0.516947 0.121657 -0.491366
H17   H     H_    0.127832 0.435474 0.111904 0.243972
H18   H     H_    0.145572 0.609977 0.108100 0.217685
N12   N     N_3   0.829193 0.601053 0.879632 -0.502784
H19   H     H_    0.847469 0.700459 0.893307 0.207970
H20   H     H_    0.905227 0.535305 0.889236 0.241576
N13   N     N_3   0.446242 0.245775 0.644828 -0.546878
H21   H     H_    0.510956 0.167740 0.655740 0.200513
H22   H     H_    0.358061 0.213625 0.652770 0.232528
N14   N     N_3   0.576567 0.242863 0.358106 -0.551860
H23   H     H_    0.517601 0.165096 0.345181 0.234141
H24   H     H_    0.667479 0.210310 0.352218 0.232829
N15   N     N_3   0.463193 0.241112 0.747578 -0.593666
H25   H     H_    0.378225 0.198060 0.737108 0.226243
H26   H     H_    0.534446 0.171359 0.738954 0.210521
N16   N     N_3   0.577681 0.232120 0.257634 -0.612314
H27   H     H_    0.659533 0.237804 0.239596 0.234950
H28   H     H_    0.504827 0.214782 0.232358 0.227743
O13   O     O_3   0.195899 0.336957 0.871503 -0.542905
C51   C     C_3   0.221918 0.197421 0.858124 -0.235735
H29   H     H_    0.297430 0.190606 0.832651 0.178714
H30   H     H_    0.137717 0.155022 0.839634 0.194151
H31   H     H_    0.246461 0.129863 0.889849 0.120294
O14   O     O_3   0.863478 0.407384 0.129732 -0.545520
C52   C     C_3   0.872100 0.264365 0.142275 -0.243194
H32   H     H_    0.799974 0.235924 0.167205 0.162942
H33   H     H_    0.963646 0.243033 0.161046 0.200629
H34   H     H_    0.865611 0.195856 0.110134 0.121057
N17   N     N_3   0.199143 0.331132 0.970602 -0.599662
H35   H     H_    0.116739 0.381240 0.957897 0.244376
H36   H     H_    0.194590 0.225223 0.962077 0.234025
N18   N     N_3   0.861149 0.408112 0.030592 -0.603245
H37   H     H_    0.929819 0.475081 0.043731 0.232375
H38   H     H_    0.889993 0.305401 0.038462 0.233290
O15   O     O_3   0.143429 0.316607 0.560526 -0.548306
C53   C     C_3   0.128371 0.176629 0.545918 -0.206719
H39   H     H_    0.121554 0.164580 0.506144 0.118596
H40   H     H_    0.046083 0.132114 0.561759 0.185761
H41   H     H_    0.210684 0.114161 0.559561 0.163866
O16   O     O_3   0.856997 0.677352 0.439806 -0.547738
C54   C     C_3   0.842951 0.609528 0.395069 -0.206026
H42   H     H_    0.794785 0.508879 0.398226 0.120525
H43   H     H_    0.933955 0.591936 0.378952 0.177914
H44   H     H_    0.784945 0.677513 0.370177 0.184903
O17   O     O_3   0.885496 0.326517 0.565141 -0.574121
C55   C     C_3   0.872896 0.403900 0.607682 -0.244949
H45   H     H_    0.813436 0.499399 0.601193 0.125959
H46   H     H_    0.964809 0.432114 0.624187 0.185727
H47   H     H_    0.827021 0.338170 0.633879 0.185271
O18   O     O_3   0.107342 0.712274 0.451731 -0.561657
C56   C     C_3   0.089151 0.837145 0.477821 -0.299735
H48   H     H_    0.143321 0.833333 0.512893 0.152778
H49   H     H_    0.989857 0.860668 0.483674 0.190665
H50   H     H_    0.122490 0.925578 0.456870 0.156271

loop_
_geom_bond_atom_site_label_1
_geom_bond_atom_site_label_2
_geom_bond_distance
_ccdc_geom_bond_type
C43   C45   1.403930 A    
C53   H39   1.113735 S    
C13   C15   1.397815 A    
N5    H5    1.045739 S    
C42   O16   1.384676 S    
C54   H44   1.109266 S    
N1    C17   1.435355 S    
O14   C52   1.412948 S    
C32   C39   1.406432 A    
C31   C33   1.416572 A    
N9    H13   1.044904 S    
C5    N1    1.365251 A    
C19   C25   1.412720 A    
O1    C1    1.296722 A    
N6    H8    1.045809 S    
N1    C7    1.364515 A    
C10   C12   1.412423 A    
C56   H49   1.112693 S    
N2    C18   1.438540 S    
C39   H3    1.079470 S    
C25   C38   1.414380 A    
N16   H27   1.044408 S    
C29   C35   1.422457 A    
C40   H4    1.079258 S    
C52   H32   1.111574 S    
C30   C36   1.422938 A    
C47   N4    1.363858 A    
C14   C28   1.420151 A    
C41   C43   1.401939 A    
O7    Cu1   1.955506 S    
C51   H29   1.111764 S    
C4    C28   1.495359 S    
C24   C40   1.395151 A    
C36   N18   1.436352 S    
C41   C46   1.409838 A    
C2    C45   1.442150 S    
C48   C49   1.418843 A    
C52   H33   1.109218 S    
C35   N17   1.436205 S    
C50   N3    1.380390 A    
C42   C44   1.390779 A    
O3    Cu1   1.957454 S    
C6    N2    1.366634 A    
O3    C2    1.291825 A    
N17   H36   1.043946 S    
C50   N10   1.433355 S    
Cu1   Cu2   2.694572 S    
C15   H1    1.083721 S    
N5    H6    1.045897 S    
C16   H2    1.083709 S    
O2    C2    1.293942 A    
O6    Cu2   1.955923 S    
C55   H47   1.109386 S    
C5    C21   1.410314 A    
N13   H22   1.045165 S    
C36   C38   1.407796 A    
N13   H21   1.044397 S    
N9    H14   1.044488 S    
C23   N11   1.434231 S    
O17   C55   1.410201 S    
C47   N7    1.431795 S    
N6    H7    1.045723 S    
C55   H46   1.113177 S    
O8    Cu2   1.955505 S    
C56   H50   1.107505 S    
C11   C27   1.425377 A    
N11   H17   1.045813 S    
N7    H10   1.043287 S    
O4    C1    1.297661 A    
Cu1   N3    2.024952 S    
C53   H41   1.109585 S    
C19   C34   1.418403 A    
C9    N16   1.434572 S    
C35   C37   1.406754 A    
C9    C17   1.403457 A    
C49   N4    1.358970 A    
O5    C3    1.310208 A    
C10   C18   1.401238 A    
N11   H18   1.045746 S    
C13   C27   1.419115 A    
C11   N14   1.435083 S    
C7    C25   1.410131 A    
C29   C33   1.416183 A    
O6    C4    1.304796 A    
C52   H34   1.111489 S    
C8    C26   1.408526 A    
C24   N12   1.434033 S    
N14   H24   1.045618 S    
N15   H26   1.044946 S    
O18   C56   1.415355 S    
N12   H20   1.045944 S    
C51   H31   1.111844 S    
C44   C46   1.410343 A    
N10   H16   1.040940 S    
C26   C37   1.413767 A    
N8    H12   1.043926 S    
O15   C53   1.412621 S    
C20   C26   1.411606 A    
O1    Cu1   1.968412 S    
N18   H38   1.043797 S    
C54   H42   1.113518 S    
C14   N6    1.432284 S    
C49   N9    1.429075 S    
C12   C28   1.424563 A    
C44   O18   1.378317 S    
C29   C32   1.422203 A    
C37   O13   1.385300 S    
C5    O9    1.349230 S    
C30   C31   1.423622 A    
C20   C33   1.418387 A    
C53   H40   1.109773 S    
C42   C45   1.397944 A    
C21   C23   1.412834 A    
Cu2   N4    2.024953 S    
N2    C8    1.365784 A    
C55   H45   1.113412 S    
C54   H43   1.113144 S    
C7    O12   1.349246 S    
N17   H35   1.046031 S    
C23   C39   1.394063 A    
C8    O11   1.349522 S    
C22   C24   1.412718 A    
C30   C34   1.416621 A    
C10   N15   1.435173 S    
C48   N8    1.432950 S    
C47   C50   1.435601 A    
C14   C16   1.397777 A    
O16   C54   1.409744 S    
C15   C17   1.391635 A    
C56   H48   1.112781 S    
C1    C46   1.458163 S    
C31   C40   1.406847 A    
C16   C18   1.393656 A    
N16   H28   1.045506 S    
C48   N3    1.385898 A    
C38   O14   1.385112 S    
C32   C34   1.416522 A    
N14   H23   1.045271 S    
C19   C21   1.417339 A    
C3    C27   1.497792 S    
C20   C22   1.416637 A    
C9    C11   1.406837 A    
O4    Cu2   1.957454 S    
N12   H19   1.045733 S    
O2    Cu2   1.968412 S    
O7    C4    1.308057 A    
C51   H30   1.109144 S    
O8    C3    1.303751 A    
C12   N13   1.435815 S    
N7    H9    1.044078 S    
O5    Cu1   1.955923 S    
N10   H15   1.028813 S    
C6    O10   1.349035 S    
N8    H11   1.033998 S    
O13   C51   1.413244 S    
N15   H25   1.044937 S    
C41   O15   1.387176 S    
N18   H37   1.045970 S    
C13   N5    1.429054 S    
C6    C22   1.411670 A    
C43   O17   1.381022 S    
