data_mof_unit_65914.cif
_audit_creation_date              2013-03-05T16:38:20-0500
_audit_creation_method            fapswitch 2.2
_symmetry_space_group_name_H-M    P1
_symmetry_Int_Tables_number       1
_space_group_crystal_system       triclinic
_cell_length_a                    16.012753
_cell_length_b                    14.769876
_cell_length_c                    15.939604
_cell_angle_alpha                 89.923959
_cell_angle_beta                  89.983826
_cell_angle_gamma                 89.999425
_cell_volume                      3769.81451016

loop_
_atom_site_label
_atom_site_type_symbol
_atom_site_description
_atom_site_fract_x
_atom_site_fract_y
_atom_site_fract_z
_atom_type_partial_charge
O1    O     O_R   0.380310 0.575320 0.500040 -0.568601
O2    O     O_R   0.380310 0.424680 0.500040 -0.569231
C1    C     C_R   0.340891 0.500000 0.500051 0.830041
O3    O     O_R   0.500000 0.575380 0.379460 -0.561999
O4    O     O_R   0.500000 0.424620 0.379460 -0.558621
C2    C     C_R   0.499937 0.500067 0.339960 0.801775
Cu1   Cu    Cu3+1 0.500000 0.589220 0.500020 1.102506
Cu2   Cu    Cu3+1 0.500000 0.410780 0.500020 1.102300
O5    O     O_R   0.619690 0.575360 0.500000 -0.552689
O6    O     O_R   0.619690 0.424640 0.500000 -0.551947
O7    O     O_R   0.500000 0.575310 0.620580 -0.544931
O8    O     O_R   0.500000 0.424690 0.620580 -0.548867
C3    C     C_R   0.659088 0.500000 0.499998 0.820322
C4    C     C_R   0.499883 0.499929 0.660099 0.808033
C5    C     C_3   0.437678 0.590831 0.050716 0.278358
C6    C     C_3   0.441261 0.407581 0.052291 0.245837
C7    C     C_3   0.428791 0.412896 0.949643 0.280429
C8    C     C_3   0.446579 0.594815 0.948470 0.240617
C9    C     C_1   0.495807 0.499629 0.749207 0.025758
C10   C     C_3   0.485310 0.501038 0.083432 -0.520220
C11   C     C_3   0.483652 0.498240 0.916584 -0.526693
C12   C     C_3   0.575675 0.489043 0.951111 0.962118
C13   C     C_3   0.577177 0.502080 0.047626 0.968952
C14   C     C_1   0.490576 0.498984 0.824314 0.371991
C15   C     C_1   0.491888 0.500735 0.175688 0.362830
C16   C     C_1   0.496448 0.500311 0.250826 0.007352
H1    H     H_    0.078992 0.644789 0.506412 0.203838
H2    H     H_    0.079004 0.355212 0.493729 0.203299
C17   C     C_R   0.956870 0.583134 0.504320 0.304989
C18   C     C_R   0.956877 0.416863 0.495794 0.306609
C19   C     C_R   0.912786 0.499998 0.500048 -0.111996
C20   C     C_R   0.044353 0.418168 0.496864 -0.164698
C21   C     C_R   0.044347 0.581832 0.503270 -0.163339
C22   C     C_R   0.087573 0.500001 0.500069 0.013179
C23   C     C_1   0.823044 0.499999 0.500026 0.159410
C24   C     C_1   0.176942 0.500002 0.500068 0.062517
C25   C     C_1   0.251894 0.500001 0.500062 -0.087833
C26   C     C_1   0.748059 0.499999 0.500010 -0.019148
C27   C     C_R   0.528076 0.951960 0.571045 0.613804
C28   C     C_R   0.528077 0.047834 0.571044 0.611262
C29   C     C_R   0.500192 0.902870 0.500580 -0.205006
C30   C     C_R   0.500193 0.097127 0.500580 -0.204462
C31   C     C_R   0.472377 0.952242 0.430303 -0.186278
C32   C     C_R   0.472377 0.047958 0.430302 -0.184203
H3    H     H_    0.450530 0.916685 0.375112 0.213722
H4    H     H_    0.450531 0.083674 0.375112 0.214244
C33   C     C_1   0.500049 0.802701 0.500214 0.357960
C34   C     C_1   0.500050 0.197298 0.500214 0.358168
N1    N     N_1   0.499980 0.276710 0.500030 -0.135403
N2    N     N_1   0.499980 0.723290 0.500030 -0.135365
N3    N     N_R   0.364805 0.619156 0.910414 0.206030
O9    O     O_R   0.347518 0.596673 0.833526 -0.267623
O10   O     O_R   0.327184 0.691244 0.938495 -0.177224
N4    N     N_R   0.341432 0.425341 0.918937 0.184135
O11   O     O_R   0.276164 0.405740 0.963742 -0.166885
O12   O     O_R   0.329778 0.423525 0.838085 -0.265522
N5    N     N_R   0.350069 0.587549 0.081594 0.186966
O13   O     O_R   0.288243 0.555722 0.038087 -0.202398
O14   O     O_R   0.333385 0.617526 0.156641 -0.244218
N6    N     N_R   0.360836 0.387345 0.095040 0.207826
O15   O     O_R   0.336483 0.431127 0.161397 -0.280231
O16   O     O_R   0.328201 0.307433 0.083637 -0.178823
N7    N     N_R   0.496935 0.331490 0.079777 0.187386
O17   O     O_R   0.495519 0.306292 0.158148 -0.259695
O18   O     O_R   0.550129 0.290695 0.031088 -0.139038
N8    N     N_R   0.471367 0.676300 0.086987 0.209553
O19   O     O_R   0.436918 0.752642 0.064997 -0.184945
O20   O     O_R   0.520062 0.677594 0.152332 -0.251645
N9    N     N_R   0.453912 0.325076 0.911842 0.211351
O21   O     O_R   0.412653 0.252591 0.933131 -0.174606
O22   O     O_R   0.502838 0.319416 0.846858 -0.222730
N10   N     N_R   0.504604 0.667543 0.918466 0.189156
O23   O     O_R   0.497556 0.697384 0.841837 -0.216748
O24   O     O_R   0.566091 0.699491 0.962811 -0.138166
F1    F     F_    0.617791 0.581867 0.066958 -0.517716
F2    F     F_    0.626082 0.435483 0.084499 -0.524245
F3    F     F_    0.628804 0.551021 0.913241 -0.524023
F4    F     F_    0.609654 0.405952 0.930884 -0.514614
N11   N     N_R   0.914438 0.669055 0.509577 0.156257
O25   O     O_R   0.845364 0.677250 0.551915 -0.282543
O26   O     O_R   0.949683 0.741799 0.479971 -0.261341
N12   N     N_R   0.914453 0.330940 0.490536 0.157636
O27   O     O_R   0.845411 0.322737 0.448188 -0.291149
O28   O     O_R   0.949680 0.258201 0.520159 -0.257458
F5    F     F_    0.555416 0.092562 0.640137 -0.542676
F6    F     F_    0.555414 0.907032 0.640138 -0.540721

loop_
_geom_bond_atom_site_label_1
_geom_bond_atom_site_label_2
_geom_bond_distance
_ccdc_geom_bond_type
C5    C8    1.636917 S    
N8    O20   1.301442 A    
N7    O18   1.300667 A    
C7    N9    1.486348 S    
C8    C11   1.626971 S    
C5    N5    1.487331 S    
C13   F2    1.387417 S    
Cu1   Cu2   2.635535 S    
C27   C29   1.410332 A    
H1    C21   1.084011 S    
Cu1   O7    1.932360 S    
O4    C2    1.279184 A    
C24   C25   1.200188 T    
C18   C19   1.418079 A    
O7    C4    1.278484 A    
N5    O14   1.303668 A    
C10   C15   1.474320 S    
C17   C21   1.400973 A    
N6    O16   1.303784 A    
C6    N6    1.486978 S    
N9    O22   1.301316 A    
O5    C3    1.279416 A    
C6    C7    1.650126 S    
C6    N7    1.499549 S    
Cu2   O8    1.932903 S    
C28   C30   1.410341 A    
N8    O19   1.302909 A    
C11   C12   1.578901 S    
C29   C31   1.408220 A    
C30   C32   1.408218 A    
O3    Cu1   1.932790 S    
C32   H4    1.083275 S    
C8    N3    1.487159 S    
C33   N2    1.172900 T    
C8    N10   1.498104 S    
C5    C10   1.615849 S    
N4    O12   1.302561 A    
N3    O9    1.300079 A    
H2    C20   1.084011 S    
C23   C26   1.200716 T    
C12   F4    1.380967 S    
N10   O24   1.301132 A    
C27   C28   1.416047 A    
N11   O26   1.301579 A    
C15   C16   1.199919 T    
C5    N8    1.490299 S    
C7    C11   1.623662 S    
N11   O25   1.301247 A    
N6    O15   1.300214 A    
O1    C1    1.279065 A    
C20   C22   1.393789 A    
C28   F5    1.357633 S    
C18   N12   1.442007 S    
C31   C32   1.413715 A    
C17   N11   1.441996 S    
C10   C13   1.577805 S    
C6    C10   1.628284 S    
C21   C22   1.393789 A    
C29   C33   1.479505 S    
C30   C34   1.479513 S    
C31   H3    1.083273 S    
C3    C26   1.424661 S    
O3    C2    1.278910 A    
C34   N1    1.172904 T    
O8    C4    1.278108 A    
N12   O28   1.301594 A    
C19   C23   1.437025 S    
Cu1   O5    1.927466 S    
N4    O11   1.298134 A    
O1    Cu1   1.927533 S    
C4    C9    1.421836 S    
O2    Cu2   1.927529 S    
C12   F3    1.387218 S    
C13   F1    1.381204 S    
N10   O23   1.302896 A    
O6    C3    1.279418 A    
O4    Cu2   1.932250 S    
O2    C1    1.279065 A    
C17   C19   1.418081 A    
C18   C20   1.400962 A    
N5    O13   1.297416 A    
C2    C16   1.421880 S    
C7    N4    1.493423 S    
C9    C14   1.200108 T    
C22   C24   1.431037 S    
N9    O21   1.302589 A    
N7    O17   1.303186 A    
C1    C25   1.425089 S    
Cu2   O6    1.927470 S    
N12   O27   1.301246 A    
C11   C14   1.474917 S    
Cu1   N2    1.980199 S    
C12   C13   1.550855 S    
C27   F6    1.357642 S    
N3    O10   1.303078 A    
Cu2   N1    1.980199 S    
