data_mof_unit_54782.cif
_audit_creation_date              2013-03-05T15:50:59-0500
_audit_creation_method            fapswitch 2.2
_symmetry_space_group_name_H-M    P1
_symmetry_Int_Tables_number       1
_space_group_crystal_system       triclinic
_cell_length_a                    6.931758
_cell_length_b                    17.599045
_cell_length_c                    19.208288
_cell_angle_alpha                 109.454704
_cell_angle_beta                  89.886842
_cell_angle_gamma                 90.618912
_cell_volume                      2209.34303762

loop_
_atom_site_label
_atom_site_type_symbol
_atom_site_description
_atom_site_fract_x
_atom_site_fract_y
_atom_site_fract_z
_atom_type_partial_charge
O1    O     O_R   0.505810 0.439670 0.562310 -0.598618
O2    O     O_R   0.169070 0.404920 0.411210 -0.594846
O3    O     O_R   0.005550 0.560330 0.437690 -0.593976
C1    C     C_R   0.338986 0.382329 0.382328 0.899917
O4    O     O_R   0.175650 0.430000 0.560110 -0.605520
O5    O     O_R   0.012170 0.585580 0.587650 -0.587372
C2    C     C_R   0.344352 0.414949 0.581892 0.942866
O6    O     O_R   0.499180 0.414420 0.412350 -0.591803
O7    O     O_3   0.341430 0.551020 0.508860 -0.255267
V1    V     V_3+5 0.063930 0.490540 0.498360 1.173723
O8    O     O_R   0.682850 0.595080 0.588790 -0.592006
C3    C     C_R   0.852449 0.618350 0.616858 0.979323
O9    O     O_R   0.676280 0.570000 0.439890 -0.601616
C4    C     C_R   0.846002 0.586719 0.419626 0.998177
V2    V     V_3+5 0.564760 0.509460 0.501640 1.183397
O10   O     O_3   0.837130 0.448980 0.491140 -0.282775
C5    C     C_R   0.749763 0.872553 0.178092 -0.247372
C6    C     C_R   0.912805 0.867240 0.132720 -0.145035
C7    C     C_R   0.064925 0.816474 0.136424 -0.265537
C8    C     C_R   0.054630 0.770961 0.184030 0.155812
C9    C     C_R   0.892102 0.777412 0.230005 0.034370
C10   C     C_R   0.739347 0.828587 0.227173 0.142248
C11   C     C_R   0.203810 0.718670 0.186184 -0.213920
C12   C     C_R   0.193114 0.673834 0.233967 -0.234172
C13   C     C_R   0.034256 0.680609 0.280784 0.141352
C14   C     C_R   0.882115 0.732260 0.278604 0.027779
C15   C     C_R   0.719430 0.738192 0.324345 0.123718
C16   C     C_R   0.569331 0.790113 0.321731 -0.165256
C17   C     C_R   0.579126 0.834853 0.273569 -0.211350
C18   C     C_R   0.023264 0.635126 0.328374 -0.221383
C19   C     C_R   0.859522 0.638833 0.372797 -0.126316
C20   C     C_R   0.708750 0.691270 0.370991 -0.213586
H1    H     H_    0.632148 0.911885 0.176069 0.136708
H2    H     H_    0.190581 0.811569 0.101548 0.141059
H3    H     H_    0.329037 0.712436 0.150925 0.139441
H4    H     H_    0.308781 0.633533 0.234113 0.130671
H5    H     H_    0.139886 0.594777 0.328984 0.129500
H6    H     H_    0.582523 0.695043 0.405342 0.158003
H7    H     H_    0.443228 0.795524 0.356411 0.160262
H8    H     H_    0.460474 0.873929 0.272218 0.144150
C21   C     C_3   0.810916 0.816960 0.741003 -0.163407
C22   C     C_3   0.978260 0.766586 0.697286 0.410021
H9    H     H_    0.752518 0.872089 0.733231 0.182725
C23   C     C_3   0.866713 0.688424 0.687504 -0.236462
C24   C     C_3   0.697358 0.737559 0.732010 -0.104033
C25   C     C_3   0.790201 0.733521 0.804208 -0.113955
C26   C     C_3   0.959790 0.683887 0.759018 -0.188823
C27   C     C_3   0.074557 0.763043 0.768146 -0.187655
C28   C     C_3   0.904177 0.811821 0.812309 -0.159109
H10   H     H_    0.542645 0.726436 0.716962 0.157217
H11   H     H_    0.712129 0.720198 0.849397 0.109034
H12   H     H_    0.019707 0.628707 0.766177 0.122638
H13   H     H_    0.229528 0.774221 0.782787 0.141640
C29   C     C_3   0.445410 0.230582 0.308592 -0.130521
C30   C     C_3   0.283752 0.185734 0.254407 -0.101201
H14   H     H_    0.200229 0.132975 0.257956 0.105162
H15   H     H_    0.493803 0.215120 0.357239 0.115215
C31   C     C_3   0.412720 0.186603 0.188896 -0.094443
C32   C     C_3   0.574433 0.229894 0.242182 -0.162881
C33   C     C_3   0.487619 0.311391 0.244989 0.088638
C34   C     C_3   0.325561 0.267536 0.191231 -0.180281
C35   C     C_3   0.197407 0.267838 0.257785 -0.115046
C36   C     C_3   0.359200 0.312219 0.311171 -0.137919
H16   H     H_    0.728459 0.212446 0.236833 0.108420
H17   H     H_    0.276710 0.282954 0.142593 0.105001
H18   H     H_    0.042639 0.283507 0.265212 0.114893
C37   C     C_R   0.254895 0.124961 0.820970 -0.140975
C38   C     C_R   0.416825 0.132625 0.867093 -0.172852
C39   C     C_R   0.567608 0.185316 0.864014 -0.208381
C40   C     C_R   0.555151 0.231646 0.817195 0.230727
C41   C     C_R   0.392386 0.223381 0.770768 0.025472
C42   C     C_R   0.243273 0.167669 0.770639 -0.031221
C43   C     C_R   0.704181 0.285633 0.815502 -0.208182
C44   C     C_R   0.692595 0.331505 0.768642 -0.225553
C45   C     C_R   0.531068 0.324730 0.722991 0.173855
C46   C     C_R   0.380057 0.270654 0.724110 0.042231
C47   C     C_R   0.217214 0.263831 0.678509 0.093729
C48   C     C_R   0.072121 0.207393 0.677343 -0.307931
C49   C     C_R   0.085707 0.157316 0.720940 0.332732
C50   C     C_R   0.518437 0.371010 0.676122 -0.250366
C51   C     C_R   0.354989 0.365480 0.631172 -0.153997
C52   C     C_R   0.204248 0.312051 0.633177 -0.214141
H19   H     H_    0.137854 0.085612 0.825083 0.171835
H20   H     H_    0.693116 0.191490 0.899152 0.124821
H21   H     H_    0.830629 0.292029 0.850164 0.121553
H22   H     H_    0.810258 0.372365 0.768128 0.133737
H23   H     H_    0.635256 0.412207 0.675363 0.133853
H24   H     H_    0.078691 0.306663 0.598216 0.140297
H25   H     H_    0.950451 0.200267 0.640261 0.186523
O11   O     O_R   0.271890 0.085690 0.087580 -0.593860
O12   O     O_R   0.595690 0.070020 0.939870 -0.591611
O13   O     O_R   0.758900 0.914390 0.912370 -0.589640
C53   C     C_R   0.427075 0.084829 0.917829 0.964602
O14   O     O_R   0.602020 0.095100 0.088770 -0.599539
O15   O     O_R   0.765280 0.939660 0.062330 -0.600459
C54   C     C_R   0.432315 0.117081 0.117833 0.908825
O16   O     O_R   0.265520 0.060430 0.937620 -0.599544
O17   O     O_3   0.429560 0.949050 0.991100 -0.275138
V3    V     V_3+5 0.707160 0.009450 0.001650 1.156361
O18   O     O_R   0.094540 0.929890 0.060190 -0.602653
C55   C     C_R   0.925073 0.915373 0.082328 0.944096
O19   O     O_R   0.088200 0.904800 0.911290 -0.595826
C56   C     C_R   0.918633 0.881748 0.883043 0.962564
V4    V     V_3+5 0.206300 0.990390 0.998440 1.156056
O20   O     O_3   0.934030 0.050940 0.008900 -0.276566
C57   C     C_R   0.604340 0.376622 0.229705 0.113630
C58   C     C_R   0.775960 0.357014 0.188492 -0.165310
C59   C     C_R   0.876927 0.415428 0.168223 -0.124410
C60   C     C_R   0.805376 0.493392 0.187326 -0.090176
C61   C     C_R   0.634393 0.513188 0.227577 -0.123142
C62   C     C_R   0.533422 0.455206 0.248741 -0.142758
H26   H     H_    0.829699 0.296090 0.169991 0.109476
H27   H     H_    0.008697 0.399820 0.136529 0.109232
H28   H     H_    0.881713 0.538329 0.170511 0.117524
H29   H     H_    0.580836 0.573630 0.242204 0.111297
H30   H     H_    0.399079 0.471207 0.278674 0.088399
N1    N     N_R   0.944178 0.094004 0.710897 0.235394
O21   O     O_R   0.998983 0.021560 0.704758 -0.372456
O22   O     O_R   0.768827 0.103737 0.691583 -0.389322
N2    N     N_R   0.078963 0.784294 0.637780 0.242413
O23   O     O_R   0.263826 0.798480 0.642079 -0.385766
O24   O     O_R   0.984060 0.785690 0.579897 -0.379075

loop_
_geom_bond_atom_site_label_1
_geom_bond_atom_site_label_2
_geom_bond_distance
_ccdc_geom_bond_type
C9    C14   1.414346 A    
C37   H19   1.080779 S    
C10   C17   1.404670 A    
C58   H26   1.081182 S    
C7    C8    1.403297 A    
C4    C19   1.485389 S    
C1    O6    1.287085 A    
C51   C52   1.407192 A    
C47   C48   1.400807 A    
N2    O23   1.300372 A    
C25   C28   1.543188 S    
C14   C15   1.411400 A    
C12   H4    1.076820 S    
C5    H1    1.084239 S    
C33   C36   1.546651 S    
C24   H10   1.109495 S    
C9    C10   1.410221 A    
C16   C17   1.401511 A    
C6    C7    1.406464 A    
C42   C49   1.421760 A    
N1    O22   1.301153 A    
O5    C3    1.291879 A    
C41   C46   1.414627 A    
O19   V4    2.010102 S    
C52   H24   1.084226 S    
C29   C36   1.547505 S    
V2    O10   2.153385 S    
C30   C35   1.551248 S    
O18   V4    1.990097 S    
C59   C60   1.393514 A    
C37   C42   1.411276 A    
C21   C22   1.535946 S    
C31   C54   1.506330 S    
C61   C62   1.398634 A    
C47   C52   1.407369 A    
O13   C56   1.291905 A    
O19   C56   1.298512 A    
C29   C30   1.549259 S    
O8    V2    2.010322 S    
C26   C27   1.555052 S    
C38   C39   1.403983 A    
C58   C59   1.395797 A    
C62   H30   1.082954 S    
O1    V2    1.993578 S    
C20   H6    1.084047 S    
O7    V1    2.165180 S    
C23   C26   1.545069 S    
C57   C62   1.401844 A    
C31   C34   1.540044 S    
C32   C33   1.545700 S    
O9    C4    1.299684 A    
C21   H9    1.110262 S    
C39   C40   1.404029 A    
C22   C23   1.526702 S    
C40   C43   1.403640 A    
C21   C28   1.545758 S    
V4    O20   2.153414 S    
N2    O24   1.300385 A    
C29   C32   1.553279 S    
C48   H25   1.083959 S    
C27   H13   1.109741 S    
V3    O20   1.712886 S    
C44   C45   1.402897 A    
C35   H18   1.107657 S    
C37   C38   1.408574 A    
C12   C13   1.401067 A    
O4    C2    1.301991 A    
C48   C49   1.407325 A    
C16   H7    1.083583 S    
C31   C32   1.533381 S    
C24   C25   1.553266 S    
C25   H11   1.110061 S    
C18   H5    1.084371 S    
C33   C34   1.542349 S    
C6    C55   1.485276 S    
C59   H27   1.082685 S    
O2    C1    1.309087 A    
C45   C46   1.412066 A    
C28   C56   1.501533 S    
C35   C36   1.539958 S    
O12   C53   1.302035 A    
C19   C20   1.409758 A    
C1    C36   1.513218 S    
C8    C11   1.401434 A    
C11   C12   1.396943 A    
O11   V4    2.006258 S    
C30   H14   1.110121 S    
C5    C6    1.410557 A    
C32   H16   1.109235 S    
C22   C27   1.537217 S    
C44   H22   1.083722 S    
O14   C54   1.307089 A    
C43   H21   1.083736 S    
C40   C41   1.415418 A    
O3    C4    1.295828 A    
C60   H28   1.081747 S    
C27   C28   1.544102 S    
C2    C51   1.486607 S    
O6    V2    2.005397 S    
C11   H3    1.083724 S    
O9    V2    1.989977 S    
O2    V1    1.985606 S    
C43   C44   1.397892 A    
C53   O16   1.296012 A    
C33   C57   1.504062 S    
C23   C24   1.543442 S    
C45   C50   1.404206 A    
C13   C18   1.402844 A    
C25   C26   1.552905 S    
C15   C20   1.407646 A    
O1    C2    1.296214 A    
C38   C53   1.486602 S    
C50   C51   1.408594 A    
C7    H2    1.084297 S    
O5    V1    1.991879 S    
O8    C3    1.298267 A    
O11   C54   1.286439 A    
C26   H12   1.110122 S    
C50   H23   1.084384 S    
C5    C10   1.406111 A    
C13   C14   1.409421 A    
C41   C42   1.416402 A    
C3    C23   1.501738 S    
O3    V1    1.999117 S    
V1    O10   1.712958 S    
N1    O21   1.301469 A    
C46   C47   1.409511 A    
C22   N2    1.456117 S    
C18   C19   1.407602 A    
O14   V3    1.985520 S    
O17   V4    1.702747 S    
C49   N1    1.440532 S    
C17   H8    1.083626 S    
O18   C55   1.299979 A    
O15   V3    1.998890 S    
O7    V2    1.704925 S    
C34   C35   1.553886 S    
O16   V4    1.999777 S    
C34   H17   1.110506 S    
O4    V1    2.001250 S    
C8    C9    1.412105 A    
O17   V3    2.165092 S    
C57   C58   1.408604 A    
C30   C31   1.546277 S    
C15   C16   1.404039 A    
C39   H20   1.084285 S    
C21   C24   1.555028 S    
O12   V3    2.001402 S    
C60   C61   1.396328 A    
C61   H29   1.075786 S    
O15   C55   1.295535 A    
O13   V3    1.991937 S    
C29   H15   1.110096 S    
