data_mof_unit_36225.cif
_audit_creation_date              2012-12-10T20:51:41-0500
_audit_creation_method            fapswitch 2.2
_symmetry_space_group_name_H-M    P1
_symmetry_Int_Tables_number       1
_space_group_crystal_system       triclinic
_cell_length_a                    8.105158
_cell_length_b                    8.911211
_cell_length_c                    16.582571
_cell_angle_alpha                 89.140955
_cell_angle_beta                  95.146533
_cell_angle_gamma                 90.066534
_cell_volume                      1192.7429984

loop_
_atom_site_label
_atom_site_type_symbol
_atom_type_description
_atom_site_fract_x
_atom_site_fract_y
_atom_site_fract_z
_atom_type_partial_charge
C1    C     C_R   0.499836 0.218027 0.499301 0.909121
C2    C     C_R   0.500088 0.781981 0.499995 0.929808
C3    C     C_R   0.522453 0.492668 0.654479 0.906167
C4    C     C_R   0.477573 0.500175 0.345595 0.910463
C5    C     C_R   0.539745 0.455961 0.741231 -0.136960
C6    C     C_R   0.458626 0.475877 0.258456 -0.134701
C7    C     C_R   0.462365 0.324645 0.769877 0.109330
C8    C     C_R   0.519567 0.340271 0.228732 0.093955
C9    C     C_R   0.468489 0.296050 0.853863 0.174464
C10   C     C_R   0.482786 0.305948 0.146616 0.187495
C11   C     C_R   0.563074 0.391875 0.906978 0.169065
C12   C     C_R   0.402003 0.414358 0.093966 0.164607
C13   C     C_R   0.663071 0.505873 0.877548 0.123204
C14   C     C_R   0.327188 0.541339 0.124544 0.113039
C15   C     C_R   0.642589 0.545629 0.794573 0.078005
C16   C     C_R   0.359426 0.575345 0.207307 0.085303
C17   C     C_1   0.499874 0.065227 0.499574 -0.198399
C18   C     C_1   0.500085 0.934764 0.499803 -0.193985
N1    N     N_1   0.073640 0.500030 0.499990 -0.030025
N2    N     N_1   0.926360 0.499970 0.500010 -0.033163
N3    N     N_2   0.553031 0.381270 0.991198 -0.152644
N4    N     N_2   0.410113 0.407723 0.009412 -0.168949
O1    O     O_R   0.636850 0.285340 0.500000 -0.610016
O2    O     O_R   0.363150 0.714660 0.500000 -0.613520
O3    O     O_R   0.363100 0.285350 0.500000 -0.619584
O4    O     O_R   0.636900 0.714650 0.500000 -0.611573
O5    O     O_R   0.652140 0.498630 0.616140 -0.609489
O6    O     O_R   0.347860 0.501370 0.383860 -0.606800
O7    O     O_R   0.378390 0.498650 0.616130 -0.611379
O8    O     O_R   0.621610 0.501350 0.383870 -0.618136
Zn1   Zn    Zn3+2 0.682780 0.499990 0.500010 0.977941
Zn2   Zn    Zn3+2 0.317220 0.500010 0.499990 0.981476
C19   C     C_3   0.619279 0.231942 0.285769 -0.831063
H1    H     H_    0.732008 0.288395 0.313469 0.256263
H2    H     H_    0.542032 0.192491 0.333707 0.221783
H3    H     H_    0.664692 0.131344 0.256419 0.237491
C20   C     C_3   0.378674 0.211426 0.712228 -0.847524
H4    H     H_    0.397463 0.233085 0.648482 0.243363
H5    H     H_    0.432435 0.098208 0.725520 0.228781
H6    H     H_    0.243285 0.209606 0.718089 0.246768
C21   C     C_3   0.520406 0.151917 0.115595 -0.892046
H7    H     H_    0.455510 0.131643 0.055426 0.249556
H8    H     H_    0.655785 0.138488 0.112272 0.247683
H9    H     H_    0.473705 0.063650 0.155690 0.231645
C22   C     C_3   0.383902 0.160010 0.888391 -0.884532
H10   H     H_    0.290927 0.195065 0.929400 0.247200
H11   H     H_    0.315057 0.088778 0.842958 0.242021
H12   H     H_    0.478915 0.087236 0.921586 0.233641
C23   C     C_3   0.796177 0.577565 0.935187 -0.375667
C24   C     C_3   0.730773 0.710029 0.980187 -0.874319
H13   H     H_    0.836449 0.772361 0.011040 0.244298
H14   H     H_    0.658525 0.788205 0.937898 0.262193
H15   H     H_    0.651739 0.669143 0.027130 0.278643
H16   H     H_    0.847770 0.492622 0.980331 0.199946
H17   H     H_    0.903622 0.613639 0.902585 0.210203
C25   C     C_3   0.210788 0.637274 0.067875 -0.366894
C26   C     C_3   0.302658 0.755101 0.021266 -0.876158
H18   H     H_    0.392624 0.817786 0.062472 0.261238
H19   H     H_    0.368535 0.701092 0.973601 0.278011
H20   H     H_    0.212227 0.836081 0.991069 0.248164
H21   H     H_    0.138927 0.564202 0.023846 0.200765
H22   H     H_    0.116488 0.693767 0.101296 0.210964
C27   C     C_3   0.725263 0.684387 0.762270 -0.865065
H23   H     H_    0.769919 0.763638 0.810109 0.245290
H24   H     H_    0.831697 0.650758 0.728881 0.255576
H25   H     H_    0.635347 0.749116 0.720907 0.222789
C28   C     C_3   0.292718 0.719716 0.239647 -0.866163
H26   H     H_    0.317853 0.815858 0.199312 0.240046
H27   H     H_    0.157153 0.709502 0.243535 0.242309
H28   H     H_    0.351260 0.749412 0.300266 0.228686

loop_
_geom_bond_atom_site_label_1
_geom_bond_atom_site_label_2
_ccdc_geom_bond_type
C24   H14   S    
O7    Zn2   S    
C27   H24   S    
C9    C22   S    
C20   H4    S    
C2    C18   S    
C11   C13   A    
C21   H7    S    
C24   H13   S    
C14   C25   S    
N1    N2    T    
C9    C11   A    
C28   H28   S    
C23   C24   S    
O3    Zn2   S    
C3    O5    A    
C19   H1    S    
C7    C20   S    
C27   H25   S    
O4    Zn1   S    
C2    O4    A    
C16   C28   S    
C23   H17   S    
C22   H10   S    
C10   C21   S    
C1    O3    A    
C21   H8    S    
C3    O7    A    
C26   H18   S    
C1    C17   S    
C10   C12   A    
C13   C23   S    
N1    Zn2   S    
C8    C10   A    
C19   H2    S    
C12   C14   A    
C17   C18   T    
C20   H6    S    
C14   C16   A    
C8    C19   S    
C13   C15   A    
C2    O2    A    
O8    Zn1   S    
C20   H5    S    
C21   H9    S    
C25   H22   S    
C5    C15   A    
C24   H15   S    
C26   H19   S    
O5    Zn1   S    
C28   H26   S    
C3    C5    S    
C12   N4    S    
O6    Zn2   S    
C19   H3    S    
C25   C26   S    
C7    C9    A    
C4    C6    S    
C22   H11   S    
O2    Zn2   S    
C5    C7    A    
C15   C27   S    
C25   H21   S    
C26   H20   S    
C6    C8    A    
C1    O1    A    
C22   H12   S    
C4    O6    A    
N3    N4    D    
C6    C16   A    
C11   N3    S    
C4    O8    A    
C23   H16   S    
C27   H23   S    
C28   H27   S    
N2    Zn1   S    
O1    Zn1   S    
