data_mof_unit_33012.cif
_audit_creation_date              2012-12-10T18:43:08-0500
_audit_creation_method            fapswitch 2.2
_symmetry_space_group_name_H-M    P1
_symmetry_Int_Tables_number       1
_space_group_crystal_system       triclinic
_cell_length_a                    8.721118
_cell_length_b                    19.415477
_cell_length_c                    18.123187
_cell_angle_alpha                 89.992908
_cell_angle_beta                  97.962151
_cell_angle_gamma                 89.715158
_cell_volume                      3039.08106554

loop_
_atom_site_label
_atom_site_type_symbol
_atom_type_description
_atom_site_fract_x
_atom_site_fract_y
_atom_site_fract_z
_atom_type_partial_charge
C1    C     C_R   0.500485 0.367411 0.500047 0.787329
C2    C     C_R   0.499766 0.632582 0.499960 0.785350
C3    C     C_R   0.383499 0.962435 0.520739 -0.249505
C4    C     C_R   0.630698 0.037528 0.480225 -0.248925
C5    C     C_R   0.373808 0.034280 0.519129 0.112766
C6    C     C_R   0.638301 0.965502 0.479822 0.110602
C7    C     C_R   0.500637 0.072031 0.499830 0.034438
C8    C     C_R   0.512614 0.927873 0.500629 0.032091
C9    C     C_R   0.388189 0.535198 0.714053 0.076698
C10   C     C_R   0.607922 0.462333 0.285887 0.079788
C11   C     C_R   0.386732 0.535631 0.791547 -0.296699
C12   C     C_R   0.609131 0.461450 0.208403 -0.308979
C13   C     C_R   0.502579 0.500508 0.838771 0.110639
C14   C     C_R   0.496874 0.498646 0.161217 0.126544
C15   C     C_R   0.616114 0.464532 0.806216 -0.279921
C16   C     C_R   0.388238 0.537685 0.193925 -0.289569
C17   C     C_R   0.612443 0.464750 0.728433 0.075342
C18   C     C_R   0.391711 0.537605 0.271708 0.081031
C19   C     C_R   0.621026 0.533912 0.970989 0.107351
C20   C     C_R   0.377863 0.465530 0.028946 0.104220
C21   C     C_R   0.616242 0.531238 0.048528 -0.242655
C22   C     C_R   0.384088 0.467199 0.951488 -0.257889
C23   C     C_R   0.203476 0.500031 0.480986 0.892423
C24   C     C_R   0.796524 0.499984 0.519015 0.892438
C25   C     C_R   0.496139 0.497890 0.078454 0.057792
C26   C     C_R   0.503810 0.500832 0.921550 0.055981
C27   C     C_2   0.037756 0.499994 0.470416 -0.374638
C28   C     C_2   0.962243 0.500039 0.529586 -0.374565
C29   C     C_R   0.489928 0.744736 0.432509 -0.190461
C30   C     C_R   0.500194 0.255284 0.432984 -0.191638
C31   C     C_R   0.493222 0.816435 0.432659 -0.170986
C32   C     C_R   0.500543 0.183542 0.433031 -0.182207
C33   C     C_R   0.509795 0.852376 0.500207 0.129050
C34   C     C_R   0.501548 0.147515 0.499981 0.107499
C35   C     C_R   0.516909 0.816385 0.567526 -0.196347
C36   C     C_R   0.505064 0.183486 0.567120 -0.161817
C37   C     C_R   0.513027 0.744689 0.567517 -0.189678
C38   C     C_R   0.504593 0.255210 0.567207 -0.195445
C39   C     C_R   0.500742 0.708241 0.499998 -0.027167
C40   C     C_R   0.501602 0.291732 0.500074 -0.031286
Cu1   Cu    Cu3+1 0.499960 0.500000 0.573360 0.931809
Cu2   Cu    Cu3+1 0.500040 0.500000 0.426640 0.932178
H1    H     H_    0.706250 0.436126 0.840679 0.130362
H2    H     H_    0.301680 0.568138 0.159542 0.126811
H3    H     H_    0.699917 0.436517 0.703927 0.118680
H4    H     H_    0.307485 0.567809 0.296359 0.115845
H5    H     H_    0.705117 0.557209 0.086043 0.143276
H6    H     H_    0.294458 0.441877 0.913798 0.146682
H7    H     H_    0.478555 0.717970 0.379621 0.147093
H8    H     H_    0.498448 0.282114 0.380472 0.150347
H9    H     H_    0.482980 0.843957 0.380195 0.120231
H10   H     H_    0.498686 0.156046 0.380902 0.130631
H11   H     H_    0.527108 0.843901 0.619966 0.128303
H12   H     H_    0.508526 0.155979 0.619300 0.127843
H13   H     H_    0.287566 0.932936 0.535817 0.152630
H14   H     H_    0.726941 0.067242 0.465441 0.139395
H15   H     H_    0.299677 0.563228 0.678275 0.118166
H16   H     H_    0.693388 0.432636 0.321646 0.117448
H17   H     H_    0.296897 0.563799 0.814551 0.137345
H18   H     H_    0.695703 0.431201 0.185330 0.132826
N1    N     N_R   0.499980 0.500020 0.683620 -0.169477
N2    N     N_R   0.500020 0.499980 0.316380 -0.168636
O1    O     O_R   0.499930 0.400180 0.561970 -0.588064
O2    O     O_R   0.500070 0.599820 0.438030 -0.589361
O3    O     O_R   0.500010 0.400190 0.438070 -0.589248
O4    O     O_R   0.499990 0.599810 0.561930 -0.588553
O5    O     O_R   0.274810 0.500000 0.547650 -0.583732
O6    O     O_R   0.725190 0.500000 0.452350 -0.583210
O7    O     O_R   0.274880 0.500000 0.423750 -0.595184
O8    O     O_R   0.725120 0.500000 0.576250 -0.596542
H19   H     H_    0.977686 0.499902 0.413678 0.169088
H20   H     H_    0.022310 0.500131 0.586325 0.168417
C41   C     C_3   0.746370 0.576541 0.943251 -0.406452
C42   C     C_3   0.906136 0.542543 0.961849 -0.348913
C43   C     C_3   0.030621 0.586044 0.933100 -0.869311
H21   H     H_    0.008763 0.589637 0.871357 0.251307
H22   H     H_    0.032309 0.638647 0.957283 0.253536
H23   H     H_    0.145732 0.562052 0.949592 0.250741
H24   H     H_    0.935943 0.536521 0.023157 0.212035
H25   H     H_    0.905099 0.490631 0.935977 0.212030
H26   H     H_    0.721989 0.585449 0.882260 0.209232
H27   H     H_    0.747845 0.628243 0.969754 0.190205
C44   C     C_3   0.244481 0.428487 0.056677 -0.411731
C45   C     C_3   0.295510 0.358275 0.090504 -0.325109
C46   C     C_3   0.161016 0.321537 0.119035 -0.865105
H28   H     H_    0.117007 0.352679 0.163135 0.255057
H29   H     H_    0.065543 0.312870 0.072712 0.250132
H30   H     H_    0.201003 0.270858 0.142999 0.239788
H31   H     H_    0.339481 0.325630 0.047513 0.214367
H32   H     H_    0.390084 0.364648 0.137646 0.227685
H33   H     H_    0.194488 0.460813 0.097923 0.197175
H34   H     H_    0.149471 0.420177 0.009919 0.187997
H35   H     H_    0.520583 0.717882 0.620313 0.150075
H36   H     H_    0.506766 0.281968 0.619770 0.150388
C47   C     C_3   0.222982 0.067979 0.532763 -0.413957
C48   C     C_3   0.196834 0.061221 0.614396 -0.351609
C49   C     C_3   0.045298 0.095804 0.627415 -0.853936
H37   H     H_    0.048215 0.151678 0.614517 0.258182
H38   H     H_    0.945862 0.071857 0.591789 0.253334
H39   H     H_    0.028509 0.089622 0.686667 0.239064
H40   H     H_    0.192342 0.005979 0.629958 0.212954
H41   H     H_    0.293992 0.085613 0.651161 0.216308
H42   H     H_    0.218820 0.123235 0.516915 0.210401
H43   H     H_    0.126053 0.042830 0.496361 0.192712
C50   C     C_3   0.779862 0.930603 0.456470 -0.411495
C51   C     C_3   0.885343 0.899842 0.523265 -0.338408
C52   C     C_3   0.008283 0.852853 0.497446 -0.851201
H44   H     H_    0.952837 0.807047 0.468491 0.260355
H45   H     H_    0.074310 0.880761 0.458695 0.251322
H46   H     H_    0.089810 0.835065 0.546350 0.240580
H47   H     H_    0.943112 0.942219 0.557563 0.215466
H48   H     H_    0.817451 0.869339 0.559017 0.230652
H49   H     H_    0.743423 0.890295 0.414419 0.201610
H50   H     H_    0.848747 0.968120 0.428463 0.180147

loop_
_geom_bond_atom_site_label_1
_geom_bond_atom_site_label_2
_ccdc_geom_bond_type
C22   H6    S    
C48   H41   S    
C35   H11   S    
C41   C42   S    
C23   O7    A    
C47   C48   S    
Cu1   N1    S    
C49   H37   S    
C24   O8    A    
Cu1   O5    S    
C29   H7    S    
C46   H28   S    
C44   H34   S    
C9    N1    A    
C50   H49   S    
C19   C21   A    
C17   H3    S    
C20   C22   A    
C33   C35   A    
C20   C25   A    
C18   H4    S    
Cu1   Cu2   S    
C23   O5    A    
C19   C26   A    
C32   H10   S    
C21   C25   A    
C1    C40   S    
C5    C47   S    
C3    H13   S    
C2    C39   S    
C47   H42   S    
Cu2   O3    S    
C1    O3    A    
C52   H44   S    
C31   C33   A    
C23   C27   S    
Cu2   N2    S    
C9    H15   S    
C17   N1    A    
C30   H8    S    
C38   C40   A    
C42   H25   S    
C48   H40   S    
C4    H14   S    
Cu2   O6    S    
C52   H45   S    
C29   C39   A    
C10   N2    A    
C45   H32   S    
C4    C7    A    
C11   H17   S    
C1    O1    A    
C41   H26   S    
C49   H38   S    
C2    O2    A    
C51   H47   S    
C46   H29   S    
C42   C43   S    
C37   H35   S    
C50   H50   S    
C19   C41   S    
C45   C46   S    
C4    C6    A    
C3    C8    A    
C5    C7    A    
C18   N2    A    
C51   H48   S    
C3    C5    A    
Cu2   O7    S    
C32   C34   A    
C43   H21   S    
C9    C11   A    
C44   C45   S    
C48   C49   S    
C38   H36   S    
C30   C40   A    
C51   C52   S    
C43   H22   S    
C10   C12   A    
C16   C18   A    
C12   C14   A    
C42   H24   S    
C13   C15   A    
C7    C34   S    
C14   C16   A    
C13   C26   S    
C45   H31   S    
Cu1   O1    S    
Cu2   O2    S    
C41   H27   S    
C49   H39   S    
C27   H19   S    
C47   H43   S    
C35   C37   A    
C46   H30   S    
C15   C17   A    
C16   H2    S    
C10   H16   S    
C24   C28   S    
C31   H9    S    
C2    O4    A    
C6    C8    A    
Cu1   O4    S    
C44   H33   S    
C50   C51   S    
C36   C38   A    
C15   H1    S    
C37   C39   A    
C28   H20   S    
C30   C32   A    
C11   C13   A    
C52   H46   S    
C6    C50   S    
C34   C36   A    
C8    C33   S    
C14   C25   S    
C43   H23   S    
C36   H12   S    
C24   O6    A    
C12   H18   S    
C29   C31   A    
C22   C26   A    
C20   C44   S    
C27   C28   D    
Cu1   O8    S    
C21   H5    S    
