data_mof_unit_64079.cif
_audit_creation_date              2012-12-10T19:44:19-0500
_audit_creation_method            fapswitch 2.2
_symmetry_space_group_name_H-M    P1
_symmetry_Int_Tables_number       1
_space_group_crystal_system       triclinic
_cell_length_a                    18.310306
_cell_length_b                    18.310144
_cell_length_c                    34.346201
_cell_angle_alpha                 90.032942
_cell_angle_beta                  89.966579
_cell_angle_gamma                 89.896368
_cell_volume                      11515.0336894

loop_
_atom_site_label
_atom_site_type_symbol
_atom_type_description
_atom_site_fract_x
_atom_site_fract_y
_atom_site_fract_z
_atom_type_partial_charge
C1    C     C_R   0.000014 0.500112 0.894280 0.808488
C2    C     C_R   0.499888 0.999987 0.894280 0.808471
C3    C     C_R   0.500020 0.000009 0.394283 0.807678
C4    C     C_R   0.999991 0.499980 0.394282 0.808068
C5    C     C_R   0.559041 0.031048 0.791271 0.069787
C6    C     C_R   0.031144 0.559974 0.791356 0.070342
C7    C     C_R   0.440024 0.968851 0.791357 0.070347
C8    C     C_R   0.968957 0.440959 0.791271 0.069800
C9    C     C_R   0.048822 0.453795 0.291330 0.067367
C10   C     C_R   0.455008 0.049961 0.291394 0.068587
C11   C     C_R   0.951051 0.546073 0.291393 0.068324
C12   C     C_R   0.545120 0.950156 0.291332 0.067571
C13   C     C_R   0.499499 0.999904 0.770737 0.031794
C14   C     C_R   0.000096 0.500500 0.770737 0.031788
C15   C     C_R   0.999944 0.499947 0.270790 0.033725
C16   C     C_R   0.500051 0.000051 0.270788 0.033477
C17   C     C_R   0.618656 0.060024 0.770560 0.143990
C18   C     C_R   0.060430 0.619503 0.770710 0.144099
C19   C     C_R   0.380494 0.939561 0.770711 0.144094
C20   C     C_R   0.939985 0.381346 0.770561 0.143988
C21   C     C_R   0.098276 0.409472 0.270690 0.144674
C22   C     C_R   0.411779 0.100397 0.270816 0.144356
C23   C     C_R   0.901599 0.590407 0.270815 0.144344
C24   C     C_R   0.588335 0.899715 0.270692 0.144741
C25   C     C_R   0.099555 0.411722 0.230225 -0.167791
C26   C     C_R   0.413895 0.101505 0.230343 -0.167859
C27   C     C_R   0.900366 0.588223 0.230348 -0.167815
C28   C     C_R   0.586153 0.898563 0.230221 -0.167847
C29   C     C_R   0.619527 0.056724 0.730078 -0.164888
C30   C     C_R   0.058071 0.620093 0.730191 -0.167757
C31   C     C_R   0.379903 0.941923 0.730192 -0.167752
C32   C     C_R   0.943280 0.380476 0.730080 -0.164894
C33   C     C_R   0.051204 0.456525 0.209234 0.033897
C34   C     C_R   0.457537 0.052101 0.209285 0.034210
C35   C     C_R   0.948755 0.543470 0.209294 0.033826
C36   C     C_R   0.542463 0.947931 0.209225 0.034313
C37   C     C_R   0.560924 0.026637 0.709158 0.035376
C38   C     C_R   0.028478 0.561347 0.709144 0.038968
C39   C     C_R   0.438650 0.971520 0.709145 0.038976
C40   C     C_R   0.973363 0.439078 0.709159 0.035371
C41   C     C_R   0.999966 0.499979 0.229704 -0.000246
C42   C     C_R   0.500018 0.000029 0.229697 -0.000296
C43   C     C_R   0.499573 0.999582 0.729626 -0.000550
C44   C     C_R   0.000418 0.500427 0.729626 -0.000540
C45   C     C_R   0.053142 0.459015 0.168317 0.095392
C46   C     C_R   0.459839 0.053807 0.168356 0.094729
C47   C     C_R   0.946872 0.541056 0.168375 0.095270
C48   C     C_R   0.540087 0.946174 0.168299 0.094867
C49   C     C_R   0.562364 0.022819 0.668273 0.093089
C50   C     C_R   0.026233 0.562062 0.668151 0.088330
C51   C     C_R   0.437936 0.973768 0.668152 0.088330
C52   C     C_R   0.977176 0.437639 0.668274 0.093081
C53   C     C_R   0.000015 0.500046 0.148194 -0.127317
C54   C     C_R   0.499952 0.999982 0.148186 -0.126435
C55   C     C_R   0.499881 0.999335 0.648120 -0.119857
C56   C     C_R   0.000664 0.500119 0.648120 -0.119848
C57   C     C_R   0.000004 0.500018 0.105774 0.884041
C58   C     C_R   0.499982 0.999995 0.105770 0.884502
C59   C     C_R   0.499971 0.999901 0.605739 0.892150
C60   C     C_R   0.000099 0.500028 0.605739 0.892138
C61   C     C_R   0.860843 0.640905 0.999366 0.848543
C62   C     C_R   0.360726 0.859156 0.000594 0.845558
C63   C     C_R   0.139160 0.359098 0.999345 0.848624
C64   C     C_R   0.639260 0.140836 0.000596 0.845222
C65   C     C_R   0.140843 0.639274 0.000594 0.845524
C66   C     C_R   0.640896 0.860834 0.999348 0.848716
C67   C     C_R   0.859164 0.360739 0.000596 0.845099
C68   C     C_R   0.359089 0.139151 0.999362 0.848654
C69   C     C_R   0.359091 0.139161 0.500671 0.838402
C70   C     C_R   0.860816 0.358986 0.501096 0.843649
C71   C     C_R   0.640925 0.860849 0.500674 0.850305
C72   C     C_R   0.140908 0.639187 0.499367 0.851193
C73   C     C_R   0.641015 0.139183 0.501097 0.843649
C74   C     C_R   0.139150 0.359074 0.500674 0.850311
C75   C     C_R   0.360813 0.859092 0.499368 0.851180
C76   C     C_R   0.860839 0.640909 0.500671 0.838411
C77   C     C_R   0.236779 0.710266 0.968919 0.089108
C78   C     C_R   0.317415 0.264377 0.989639 0.107575
C79   C     C_R   0.763254 0.289703 0.968932 0.089264
C80   C     C_R   0.682558 0.735543 0.989749 0.107297
C81   C     C_R   0.735576 0.682535 0.989772 0.107518
C82   C     C_R   0.710297 0.236747 0.968931 0.089225
C83   C     C_R   0.264410 0.317392 0.989616 0.107390
C84   C     C_R   0.289734 0.763222 0.968919 0.089112
C85   C     C_R   0.756231 0.190912 0.477973 0.106689
C86   C     C_R   0.791980 0.738935 0.469484 0.096040
C87   C     C_R   0.235546 0.817408 0.489535 0.105267
C88   C     C_R   0.208039 0.260973 0.469498 0.094615
C89   C     C_R   0.261050 0.208005 0.469489 0.095948
C90   C     C_R   0.182593 0.764455 0.489534 0.105267
C91   C     C_R   0.739009 0.791944 0.469492 0.094588
C92   C     C_R   0.809089 0.243770 0.477973 0.106692
C93   C     C_R   0.200734 0.690985 0.003060 -0.159257
C94   C     C_R   0.299891 0.191555 0.996220 -0.162932
C95   C     C_R   0.799266 0.309023 0.003065 -0.159026
C96   C     C_R   0.700080 0.808408 0.996188 -0.162759
C97   C     C_R   0.808420 0.700085 0.996237 -0.162714
C98   C     C_R   0.690974 0.200735 0.003065 -0.159074
C99   C     C_R   0.191568 0.299895 0.996172 -0.162910
C100  C     C_R   0.309015 0.799265 0.003060 -0.159294
C101  C     C_R   0.701068 0.190479 0.505835 -0.186941
C102  C     C_R   0.809422 0.701078 0.503340 -0.167459
C103  C     C_R   0.308406 0.799892 0.496242 -0.162959
C104  C     C_R   0.190586 0.298916 0.503352 -0.165237
C105  C     C_R   0.298922 0.190577 0.503342 -0.167455
C106  C     C_R   0.200108 0.691593 0.496241 -0.162967
C107  C     C_R   0.701081 0.809411 0.503350 -0.165241
C108  C     C_R   0.809518 0.298933 0.505834 -0.186946
C109  C     C_R   0.227725 0.717515 0.039092 0.117918
C110  C     C_R   0.225364 0.170534 0.996261 0.118575
C111  C     C_R   0.772232 0.282528 0.039096 0.118154
C112  C     C_R   0.774601 0.829429 0.996155 0.118633
C113  C     C_R   0.829433 0.774605 0.996181 0.118650
C114  C     C_R   0.717467 0.227769 0.039096 0.118266
C115  C     C_R   0.170539 0.225368 0.996236 0.118736
C116  C     C_R   0.282486 0.772273 0.039091 0.118056
C117  C     C_R   0.707170 0.238180 0.538574 0.125868
C118  C     C_R   0.781362 0.726558 0.539389 0.116598
C119  C     C_R   0.329478 0.725287 0.496498 0.119804
C120  C     C_R   0.218732 0.273577 0.539396 0.120068
C121  C     C_R   0.273451 0.218647 0.539391 0.116611
C122  C     C_R   0.274713 0.670521 0.496498 0.119799
C123  C     C_R   0.726431 0.781277 0.539395 0.120069
C124  C     C_R   0.761816 0.292831 0.538573 0.125865
C125  C     C_3   0.265323 0.793318 0.930662 -0.423435
C126  C     C_3   0.312369 0.371142 0.009938 -0.448444
C127  C     C_3   0.734742 0.206617 0.930655 -0.423553
C128  C     C_3   0.687671 0.628984 0.010264 -0.448483
C129  C     C_3   0.628938 0.687707 0.010238 -0.448348
C130  C     C_3   0.793384 0.265257 0.930655 -0.423557
C131  C     C_3   0.371097 0.312404 0.009963 -0.448278
C132  C     C_3   0.206683 0.734677 0.930662 -0.423391
C133  C     C_3   0.810494 0.248104 0.434540 -0.439675
C134  C     C_3   0.711260 0.769906 0.430330 -0.425221
C135  C     C_3   0.128652 0.812713 0.509663 -0.443775
C136  C     C_3   0.288809 0.229963 0.430314 -0.430804
C137  C     C_3   0.230049 0.288698 0.430327 -0.425323
C138  C     C_3   0.187287 0.871349 0.509664 -0.443783
C139  C     C_3   0.769998 0.711149 0.430317 -0.430998
C140  C     C_3   0.751897 0.189507 0.434540 -0.439674
C141  C     C_R   0.441800 0.967938 0.832094 -0.204806
C142  C     C_R   0.967901 0.442588 0.831995 -0.204427
C143  C     C_R   0.557412 0.032105 0.831995 -0.204419
C144  C     C_R   0.032057 0.558199 0.832094 -0.204780
C145  C     C_R   0.952904 0.546520 0.332070 -0.207156
C146  C     C_R   0.545624 0.952003 0.332016 -0.204864
C147  C     C_R   0.046973 0.453336 0.332009 -0.204878
C148  C     C_R   0.454518 0.048113 0.332077 -0.207352
C149  C     C_R   0.499692 0.999990 0.852061 -0.034638
C150  C     C_R   0.000011 0.500308 0.852061 -0.034659
C151  C     C_R   0.999951 0.499938 0.352066 -0.044871
C152  C     C_R   0.500063 0.000047 0.352070 -0.043943
H1    H     H_    0.243065 0.849704 0.933083 0.214843
H2    H     H_    0.326008 0.418563 0.991111 0.215592
H3    H     H_    0.756997 0.150234 0.933048 0.214786
H4    H     H_    0.674002 0.581382 0.991555 0.215579
H5    H     H_    0.581408 0.673960 0.991515 0.215548
H6    H     H_    0.849766 0.243001 0.933048 0.214756
H7    H     H_    0.418589 0.325966 0.991151 0.215609
H8    H     H_    0.150298 0.756935 0.933083 0.214872
H9    H     H_    0.790981 0.301693 0.423365 0.202046
H10   H     H_    0.654806 0.747663 0.431400 0.208924
H11   H     H_    0.081319 0.826255 0.490728 0.217402
H12   H     H_    0.345247 0.252235 0.431351 0.202320
H13   H     H_    0.252288 0.345154 0.431383 0.208864
H14   H     H_    0.173746 0.918683 0.490730 0.217397
H15   H     H_    0.747730 0.654709 0.431369 0.202246
H16   H     H_    0.698308 0.209021 0.423365 0.202061
H17   H     H_    0.307015 0.785409 0.907491 0.222952
H18   H     H_    0.292236 0.385319 0.039561 0.217046
H19   H     H_    0.693072 0.214507 0.907503 0.223077
H20   H     H_    0.707877 0.615088 0.039888 0.217129
H21   H     H_    0.614930 0.708021 0.039847 0.217290
H22   H     H_    0.785495 0.306928 0.907502 0.223082
H23   H     H_    0.385162 0.292378 0.039600 0.217135
H24   H     H_    0.214593 0.692986 0.907491 0.222944
H25   H     H_    0.863366 0.228985 0.422263 0.222222
H26   H     H_    0.720482 0.812923 0.408042 0.227971
H27   H     H_    0.114330 0.792891 0.539304 0.218710
H28   H     H_    0.279611 0.186891 0.408033 0.229205
H29   H     H_    0.187016 0.279457 0.408051 0.228063
H30   H     H_    0.207106 0.885668 0.539305 0.218712
H31   H     H_    0.813055 0.720336 0.408026 0.229287
H32   H     H_    0.771016 0.136635 0.422263 0.222208
H33   H     H_    0.397949 0.943904 0.848829 0.167677
H34   H     H_    0.943888 0.398635 0.848649 0.167614
H35   H     H_    0.601365 0.056121 0.848648 0.167623
H36   H     H_    0.056088 0.602050 0.848828 0.167686
H37   H     H_    0.916958 0.581523 0.348739 0.175194
H38   H     H_    0.579835 0.915305 0.348645 0.175415
H39   H     H_    0.082927 0.418338 0.348632 0.176147
H40   H     H_    0.420302 0.084804 0.348752 0.174402
H41   H     H_    0.138387 0.376741 0.215659 0.207263
H42   H     H_    0.379780 0.141113 0.215834 0.207415
H43   H     H_    0.861538 0.623215 0.215832 0.207414
H44   H     H_    0.620255 0.858948 0.215663 0.207260
H45   H     H_    0.666305 0.079553 0.715356 0.207756
H46   H     H_    0.080865 0.666988 0.715599 0.206987
H47   H     H_    0.333008 0.919127 0.715600 0.206987
H48   H     H_    0.920452 0.333698 0.715357 0.207758
O1    O     O_3   1.000000 0.500000 0.999990 -0.515970
O2    O     O_3   0.500000 0.000000 0.999990 -0.515964
O3    O     O_3   0.500000 1.000000 0.499990 -0.513552
O4    O     O_3   0.000000 0.500000 0.499990 -0.513515
O5    O     O_R   0.060740 0.500000 0.912560 -0.634848
O6    O     O_R   0.500000 0.060740 0.912560 -0.634667
O7    O     O_R   0.939260 0.500000 0.912560 -0.634627
O8    O     O_R   0.500000 0.939260 0.912560 -0.634842
O9    O     O_R   0.560740 0.000000 0.412560 -0.642421
O10   O     O_R   0.000000 0.560740 0.412560 -0.636636
O11   O     O_R   0.439260 0.000000 0.412560 -0.636356
O12   O     O_R   1.000000 0.439260 0.412560 -0.642673
O13   O     O_R   0.000000 0.560680 0.087420 -0.606938
O14   O     O_R   0.439320 0.000000 0.087420 -0.606941
O15   O     O_R   1.000000 0.439320 0.087420 -0.606954
O16   O     O_R   0.560680 0.000000 0.087420 -0.606976
O17   O     O_R   0.500000 0.060680 0.587420 -0.603678
O18   O     O_R   0.939320 0.500000 0.587420 -0.603677
O19   O     O_R   0.500000 0.939320 0.587420 -0.608402
O20   O     O_R   0.060680 0.500000 0.587420 -0.608402
O21   O     O_R   0.853840 0.585430 0.977070 -0.641059
O22   O     O_R   0.414570 0.853840 0.977070 -0.645262
O23   O     O_R   0.146160 0.414570 0.977070 -0.641216
O24   O     O_R   0.585430 0.146160 0.977070 -0.645154
O25   O     O_R   0.146160 0.585430 0.977070 -0.645283
O26   O     O_R   0.585430 0.853840 0.977070 -0.641157
O27   O     O_R   0.853840 0.414570 0.977070 -0.645164
O28   O     O_R   0.414570 0.146160 0.977070 -0.641079
O29   O     O_R   0.353840 0.085430 0.477070 -0.642575
O30   O     O_R   0.914570 0.353840 0.477070 -0.641276
O31   O     O_R   0.646160 0.914570 0.477070 -0.642138
O32   O     O_R   0.085430 0.646160 0.477070 -0.639436
O33   O     O_R   0.646160 0.085430 0.477070 -0.641287
O34   O     O_R   0.085430 0.353840 0.477070 -0.642140
O35   O     O_R   0.353840 0.914570 0.477070 -0.639449
O36   O     O_R   0.914570 0.646160 0.477070 -0.642576
O37   O     O_R   0.085450 0.353820 0.022910 -0.601247
O38   O     O_R   0.646180 0.085450 0.022910 -0.600724
O39   O     O_R   0.914550 0.646180 0.022910 -0.601391
O40   O     O_R   0.353820 0.914550 0.022910 -0.600846
O41   O     O_R   0.914550 0.353820 0.022910 -0.600688
O42   O     O_R   0.353820 0.085450 0.022910 -0.601471
O43   O     O_R   0.085450 0.646180 0.022910 -0.600795
O44   O     O_R   0.646180 0.914550 0.022910 -0.601342
O45   O     O_R   0.585450 0.853820 0.522910 -0.602534
O46   O     O_R   0.146180 0.585450 0.522910 -0.602904
O47   O     O_R   0.414550 0.146180 0.522910 -0.610568
O48   O     O_R   0.853820 0.414550 0.522910 -0.611660
O49   O     O_R   0.414550 0.853820 0.522910 -0.602909
O50   O     O_R   0.853820 0.585450 0.522910 -0.610569
O51   O     O_R   0.585450 0.146180 0.522910 -0.611660
O52   O     O_R   0.146180 0.414550 0.522910 -0.602531
Zn1   Zn    Zn3+2 0.000000 0.586730 0.032740 1.053961
Zn2   Zn    Zn3+2 0.413270 0.000000 0.032740 1.054046
Zn3   Zn    Zn3+2 1.000000 0.413270 0.032740 1.053833
Zn4   Zn    Zn3+2 0.586730 0.000000 0.032740 1.053931
Zn5   Zn    Zn3+2 0.500000 0.086730 0.532740 1.047221
Zn6   Zn    Zn3+2 0.913270 0.500000 0.532740 1.047232
Zn7   Zn    Zn3+2 0.500000 0.913270 0.532740 1.056098
Zn8   Zn    Zn3+2 0.086730 0.500000 0.532740 1.056118
Zn9   Zn    Zn3+2 0.913250 0.500000 0.967240 0.987767
Zn10  Zn    Zn3+2 0.500000 0.913250 0.967240 0.987782
Zn11  Zn    Zn3+2 0.086750 0.500000 0.967240 0.987676
Zn12  Zn    Zn3+2 0.500000 0.086750 0.967240 0.987784
Zn13  Zn    Zn3+2 0.413250 0.000000 0.467240 0.986623
Zn14  Zn    Zn3+2 1.000000 0.413250 0.467240 0.982047
Zn15  Zn    Zn3+2 0.586750 0.000000 0.467240 0.982081
Zn16  Zn    Zn3+2 0.000000 0.586750 0.467240 0.986588
I1    I     I_    0.188308 0.673464 0.092952 -0.207096
I2    I     I_    0.195753 0.057321 0.994944 -0.209044
I3    I     I_    0.811584 0.326638 0.092959 -0.209307
I4    I     I_    0.804186 0.942633 0.994656 -0.209441
I5    I     I_    0.942637 0.804197 0.994729 -0.209215
I6    I     I_    0.673338 0.188431 0.092958 -0.208913
I7    I     I_    0.057328 0.195760 0.994878 -0.209035
I8    I     I_    0.326548 0.811680 0.092951 -0.206692
I9    I     I_    0.634423 0.232381 0.588124 -0.150666
I10   I     I_    0.823353 0.685129 0.593333 -0.192869
I11   I     I_    0.442730 0.695417 0.495438 -0.237557
I12   I     I_    0.177569 0.315724 0.593384 -0.185554
I13   I     I_    0.314890 0.176666 0.593334 -0.192864
I14   I     I_    0.304582 0.557268 0.495437 -0.237576
I15   I     I_    0.684299 0.822456 0.593382 -0.185554
I16   I     I_    0.767598 0.365592 0.588117 -0.150659
I17   I     I_    0.710834 0.109298 0.797672 -0.281222
I18   I     I_    0.108998 0.711899 0.798000 -0.284622
I19   I     I_    0.288100 0.890987 0.798001 -0.284662
I20   I     I_    0.890715 0.289166 0.797675 -0.281258
I21   I     I_    0.174262 0.337726 0.297920 -0.297388
I22   I     I_    0.342007 0.178186 0.298148 -0.300211
I23   I     I_    0.825551 0.662078 0.298144 -0.300298
I24   I     I_    0.658176 0.821981 0.297926 -0.297059
I25   I     I_    0.139749 0.406031 0.136376 -0.282894
I26   I     I_    0.407871 0.140886 0.136403 -0.284337
I27   I     I_    0.860319 0.594114 0.136513 -0.283300
I28   I     I_    0.591987 0.859045 0.136266 -0.284332
I29   I     I_    0.660981 0.043504 0.636276 -0.262139
I30   I     I_    0.059326 0.656551 0.635391 -0.294936
I31   I     I_    0.343444 0.940684 0.635393 -0.294946
I32   I     I_    0.956474 0.339027 0.636276 -0.262151

loop_
_geom_bond_atom_site_label_1
_geom_bond_atom_site_label_2
_ccdc_geom_bond_type
O35   Zn13  S    
C55   C59   S    
C33   C45   A    
O13   Zn1   S    
C92   C133  S    
C34   C42   A    
C76   O50   A    
C130  H22   S    
O27   Zn9   S    
C14   C44   A    
O31   Zn15  S    
C119  I11   S    
C120  I12   S    
O17   Zn5   S    
C30   C38   A    
C20   I20   S    
C72   O46   A    
C116  I8    S    
C109  I1    S    
C11   C15   A    
O2    Zn4   S    
C12   C16   A    
C125  H1    S    
C143  C149  A    
C107  C123  A    
C74   O34   A    
C125  H17   S    
C5    C13   A    
C47   C53   A    
C73   C101  S    
O12   Zn14  S    
C89   C136  S    
C34   C46   A    
C75   C103  S    
C82   C98   A    
C129  H21   S    
C108  C124  A    
O7    Zn9   S    
O2    Zn10  S    
C31   H47   S    
O47   Zn5   S    
O3    Zn7   S    
O4    Zn16  S    
C61   O39   A    
C91   C107  A    
C59   O17   A    
C118  I10   S    
C69   C105  S    
C27   C35   A    
C79   C130  S    
O32   Zn16  S    
C65   O25   A    
C1    C150  S    
C49   I29   S    
C87   C103  A    
C58   O14   A    
C72   C106  S    
C7    C19   A    
C81   C128  S    
C137  H13   S    
C2    O8    A    
C71   O45   A    
C83   C126  S    
C26   H42   S    
O52   Zn8   S    
C136  H12   S    
C135  H11   S    
C63   O37   A    
C68   O28   A    
C18   I18   S    
O40   Zn2   S    
O43   Zn1   S    
C9    C15   A    
C33   C41   A    
C50   I30   S    
O1    Zn3   S    
C99   C115  A    
C9    C21   A    
O2    Zn2   S    
C78   C94   A    
C11   C23   A    
C51   C55   A    
C138  H30   S    
C68   C94   S    
C98   C114  A    
C128  H4    S    
C7    C13   A    
C88   C89   A    
O44   Zn4   S    
C71   O31   A    
C10   C16   A    
O3    Zn5   S    
C10   C148  A    
C39   C51   A    
C128  C129  S    
C62   O40   A    
C23   I23   S    
C137  H29   S    
C127  H19   S    
C123  I15   S    
C131  H23   S    
C144  C150  A    
C69   O47   A    
C147  H39   S    
O39   Zn1   S    
C2    O6    A    
C47   I27   S    
C48   I28   S    
C65   C93   S    
C45   C53   A    
C67   C95   S    
C121  I13   S    
C88   C104  A    
C85   C92   A    
C124  I16   S    
C3    O11   A    
C95   C111  A    
C63   O23   A    
C113  I5    S    
C134  C139  S    
C110  I2    S    
O29   Zn13  S    
C77   C84   A    
C49   C55   A    
C50   C56   A    
C147  C151  A    
C126  H18   S    
C69   O29   A    
C6    C14   A    
C67   O27   A    
C106  C122  A    
O15   Zn3   S    
C76   O36   A    
C131  H7    S    
C85   C140  S    
C86   C139  S    
O48   Zn6   S    
C30   H46   S    
C57   O13   A    
C70   O48   A    
O25   Zn11  S    
C87   C138  S    
C6    C144  A    
C86   C102  A    
C7    C141  A    
C120  C121  A    
C74   C104  S    
C20   C32   A    
C21   C25   A    
C60   O18   A    
C80   C129  S    
C72   O32   A    
C64   O38   A    
C24   C28   A    
C136  C137  S    
C36   C42   A    
C79   C82   A    
C12   C24   A    
C138  H14   S    
C52   I32   S    
C70   C108  S    
C90   C135  S    
C91   C134  S    
C28   H44   S    
C36   C48   A    
C62   O22   A    
C35   C41   A    
C40   C44   A    
C141  H33   S    
C89   C105  A    
C46   I26   S    
C35   C47   A    
C93   C109  A    
C73   O51   A    
C3    O9    A    
C71   C107  S    
O14   Zn2   S    
C17   C29   A    
C100  C116  A    
C111  I3    S    
C19   C31   A    
C51   I31   S    
C85   C101  A    
O24   Zn12  S    
C10   C22   A    
C65   O43   A    
C3    C152  S    
C140  H32   S    
O20   Zn8   S    
C117  C124  A    
O21   Zn9   S    
C86   C91   A    
C60   O20   A    
O30   Zn14  S    
C5    C17   A    
O11   Zn13  S    
O8    Zn10  S    
C64   O24   A    
C132  H24   S    
C109  C116  A    
O4    Zn6   S    
C78   C83   A    
C57   O15   A    
C8    C14   A    
O41   Zn3   S    
C5    C143  A    
C73   O33   A    
C64   C98   S    
O16   Zn4   S    
C83   C99   A    
C143  H35   S    
O22   Zn10  S    
O18   Zn6   S    
C148  C152  A    
C15   C41   A    
C127  H3    S    
C53   C57   S    
O5    Zn11  S    
O6    Zn12  S    
C94   C110  A    
C56   C60   S    
C133  H9    S    
C84   C100  A    
C79   C95   A    
C37   C43   A    
C38   C44   A    
O23   Zn11  S    
O33   Zn15  S    
C37   C49   A    
C46   C54   A    
C132  H8    S    
C134  H26   S    
C122  I14   S    
C90   C106  A    
C24   I24   S    
C62   C100  S    
C54   C58   S    
C142  H34   S    
C21   I21   S    
C13   C43   A    
C25   H41   S    
C114  I6    S    
C66   C96   S    
C84   C125  S    
O9    Zn15  S    
C145  H37   S    
C16   C42   A    
O37   Zn3   S    
C61   C97   S    
C74   O52   A    
C130  H6    S    
C101  C117  A    
C142  C150  A    
C32   H48   S    
O3    Zn15  S    
O51   Zn5   S    
O4    Zn8   S    
C133  H25   S    
C66   O44   A    
O1    Zn1   S    
C77   C93   A    
C111  C114  A    
C118  C123  A    
O45   Zn7   S    
C61   O21   A    
C88   C137  S    
O46   Zn8   S    
C28   C36   A    
C133  C140  S    
C22   C26   A    
C87   C90   A    
C29   C37   A    
O36   Zn16  S    
C8    C142  A    
C75   O49   A    
C110  C115  A    
O28   Zn12  S    
C104  C120  A    
C140  H16   S    
C135  C138  S    
C148  H40   S    
C112  I4    S    
C129  H5    S    
C67   O41   A    
C141  C149  A    
C48   C54   A    
C96   C112  A    
C8    C20   A    
O1    Zn9   S    
O34   Zn14  S    
C4    O10   A    
C12   C146  A    
C117  I9    S    
C26   C34   A    
C68   O42   A    
C63   C99   S    
C75   O35   A    
C18   C30   A    
C23   C27   A    
C80   C96   A    
C1    O5    A    
O26   Zn10  S    
C102  C118  A    
C2    C149  S    
C66   O26   A    
O49   Zn7   S    
C22   I22   S    
C112  C113  A    
C92   C108  A    
C6    C18   A    
O3    Zn13  S    
C11   C145  A    
C39   C43   A    
C40   C52   A    
C9    C147  A    
C134  H10   S    
O38   Zn4   S    
C77   C132  S    
C139  H15   S    
C78   C131  S    
C70   O30   A    
C17   I17   S    
C19   I19   S    
C105  C121  A    
C145  C151  A    
C146  C152  A    
C128  H20   S    
C29   H45   S    
O42   Zn2   S    
O19   Zn7   S    
C97   C113  A    
C126  H2    S    
C139  H31   S    
C144  H36   S    
C119  C122  A    
C4    C151  S    
O10   Zn16  S    
C45   I25   S    
C103  C119  A    
O1    Zn11  S    
C80   C81   A    
O2    Zn12  S    
C38   C50   A    
O4    Zn14  S    
C136  H28   S    
C4    O12   A    
C127  C130  S    
C135  H27   S    
C59   O19   A    
C125  C132  S    
C81   C97   A    
C126  C131  S    
C31   C39   A    
C32   C40   A    
C1    O7    A    
C82   C127  S    
C115  I7    S    
C27   H43   S    
C25   C33   A    
C146  H38   S    
C76   C102  S    
O50   Zn6   S    
C52   C56   A    
C58   O16   A    
