data_mof_unit_9864.cif
_audit_creation_date              2012-12-10T17:24:12-0500
_audit_creation_method            fapswitch 2.2
_symmetry_space_group_name_H-M    P1
_symmetry_Int_Tables_number       1
_space_group_crystal_system       triclinic
_cell_length_a                    10.181434
_cell_length_b                    10.612266
_cell_length_c                    16.792655
_cell_angle_alpha                 91.108556
_cell_angle_beta                  77.080147
_cell_angle_gamma                 95.259597
_cell_volume                      1761.0328528

loop_
_atom_site_label
_atom_site_type_symbol
_atom_type_description
_atom_site_fract_x
_atom_site_fract_y
_atom_site_fract_z
_atom_type_partial_charge
C1    C     C_R   0.557106 0.733827 0.491667 0.922182
C2    C     C_R   0.443566 0.265981 0.502552 0.888672
C3    C     C_2   0.591275 0.868438 0.476302 0.032878
C4    C     C_2   0.412389 0.130865 0.492712 0.013149
C5    C     C_2   0.501888 0.930675 0.448107 -0.137490
C6    C     C_2   0.510968 0.067260 0.447416 -0.175303
C7    C     C_2   0.926971 0.510638 0.506194 0.121952
C8    C     C_2   0.073167 0.489742 0.493547 0.112919
C9    C     C_R   0.483655 0.505285 0.653937 0.889660
C10   C     C_R   0.517260 0.497986 0.345834 0.948027
C11   C     C_R   0.484601 0.527528 0.738818 -0.225284
C12   C     C_R   0.527738 0.516688 0.259643 -0.159004
C13   C     C_R   0.521299 0.651984 0.762573 0.132759
C14   C     C_R   0.439798 0.443041 0.219699 0.095669
C15   C     C_R   0.573366 0.670075 0.833194 0.214784
C16   C     C_R   0.424931 0.482810 0.143142 0.161557
C17   C     C_R   0.577323 0.564363 0.882154 -0.057065
C18   C     C_R   0.500248 0.594859 0.107760 -0.012021
C19   C     C_R   0.535556 0.440506 0.859478 0.117448
C20   C     C_R   0.588696 0.668097 0.148031 0.105315
C21   C     C_R   0.489096 0.422327 0.787635 0.400338
C22   C     C_R   0.605194 0.625839 0.223926 0.386909
C23   C     C_2   0.601996 0.584340 0.964386 0.380567
C24   C     C_2   0.501088 0.623679 0.022677 0.380412
H1    H     H_    0.607829 0.115764 0.417754 0.168944
H2    H     H_    0.410488 0.881283 0.435279 0.174570
H3    H     H_    0.115225 0.419660 0.449594 0.147392
H4    H     H_    0.885007 0.580962 0.549982 0.143226
N1    N     N_2   0.846390 0.448330 0.467170 0.027892
N2    N     N_2   0.153610 0.551670 0.532830 0.023775
O1    O     O_R   0.430310 0.692580 0.506610 -0.641259
O2    O     O_R   0.569690 0.307420 0.493390 -0.627861
O3    O     O_R   0.652740 0.659410 0.485540 -0.595834
O4    O     O_R   0.347260 0.340590 0.514460 -0.617854
O5    O     O_R   0.375640 0.518570 0.627580 -0.611394
O6    O     O_R   0.624360 0.481430 0.372420 -0.577939
O7    O     O_R   0.598070 0.485390 0.606510 -0.605873
O8    O     O_R   0.401930 0.514610 0.393490 -0.629151
Zn1   Zn    Zn3+2 0.351480 0.522150 0.514070 0.963446
Zn2   Zn    Zn3+2 0.648520 0.477850 0.485930 0.995472
C25   C     C_3   0.511263 0.765437 0.711180 -0.854626
H5    H     H_    0.460110 0.839802 0.750462 0.255549
H6    H     H_    0.613947 0.804383 0.679060 0.234838
H7    H     H_    0.450115 0.742541 0.665211 0.235445
C26   C     C_3   0.361832 0.321962 0.258219 -0.841686
H8    H     H_    0.383102 0.241354 0.215653 0.241945
H9    H     H_    0.389901 0.294861 0.315222 0.213599
H10   H     H_    0.251642 0.332936 0.272756 0.258594
O9    O     O_3   0.688618 0.692532 0.268056 -0.763378
H11   H     H_    0.755321 0.751957 0.232129 0.349691
O10   O     O_3   0.452386 0.299718 0.765802 -0.758392
H12   H     H_    0.399583 0.301043 0.723005 0.326215
O11   O     O_3   0.390059 0.669922 0.002370 -0.792277
H13   H     H_    0.326670 0.691100 0.053843 0.343719
O12   O     O_3   0.716030 0.544113 0.984450 -0.787100
H14   H     H_    0.776694 0.517551 0.933306 0.345919
C27   C     C_3   0.537418 0.324587 0.910489 -0.789091
H15   H     H_    0.572460 0.345081 0.967506 0.244312
H16   H     H_    0.433811 0.275898 0.927868 0.254477
H17   H     H_    0.605635 0.258389 0.874045 0.259636
C28   C     C_3   0.660708 0.792723 0.112324 -0.874292
H18   H     H_    0.625824 0.824095 0.058622 0.241304
H19   H     H_    0.641039 0.868916 0.158610 0.237099
H20   H     H_    0.771218 0.784250 0.093286 0.257450
C29   C     C_3   0.328590 0.404013 0.100485 -0.868597
H21   H     H_    0.224962 0.396982 0.139891 0.254473
H22   H     H_    0.320938 0.442655 0.041214 0.266173
H23   H     H_    0.362129 0.307580 0.088292 0.238768
C30   C     C_3   0.625033 0.801937 0.855429 -0.820737
H24   H     H_    0.698437 0.846275 0.802194 0.236879
H25   H     H_    0.539161 0.861357 0.874249 0.259793
H26   H     H_    0.679435 0.802290 0.905662 0.227903
C31   C     C_3   0.276459 0.066747 0.534721 -0.859675
H27   H     H_    0.210894 0.135175 0.570899 0.250020
H28   H     H_    0.223960 0.022823 0.488449 0.249116
H29   H     H_    0.290301 0.992538 0.577118 0.252964
C32   C     C_3   0.719216 0.933630 0.495088 -0.869798
H30   H     H_    0.777068 0.866144 0.519939 0.244429
H31   H     H_    0.784911 0.976374 0.438507 0.256272
H32   H     H_    0.693670 0.008847 0.541413 0.256019
O13   O     O_3   0.101219 0.638729 0.586781 -0.715140
H33   H     H_    0.178049 0.675135 0.609567 0.374477
O14   O     O_3   0.898770 0.361155 0.413305 -0.717723
H34   H     H_    0.821918 0.324598 0.390600 0.368854

loop_
_geom_bond_atom_site_label_1
_geom_bond_atom_site_label_2
_ccdc_geom_bond_type
O12   H14   S    
C7    N1    D    
C30   H26   S    
C25   H6    S    
C25   H5    S    
C2    C4    S    
C13   C25   S    
O13   H33   S    
C1    O3    A    
C7    C8    S    
C26   H8    S    
C19   C27   S    
C17   C23   S    
C18   C24   S    
C19   C21   A    
N1    O14   S    
O7    Zn2   S    
C5    C6    S    
C27   H16   S    
C6    H1    S    
C12   C22   A    
C1    O1    A    
C2    O2    A    
C31   H27   S    
C20   C28   S    
C30   H25   S    
C17   C19   A    
O11   H13   S    
C29   H22   S    
C23   C24   D    
C2    O4    A    
C26   H9    S    
C31   H28   S    
C28   H18   S    
C14   C26   S    
C32   H31   S    
C15   C30   S    
O3    Zn2   S    
O10   H12   S    
O6    Zn2   S    
C4    C6    D    
C27   H17   S    
C24   O11   S    
C32   H30   S    
C11   C21   A    
C7    H4    S    
O4    Zn1   S    
C1    C3    S    
C28   H20   S    
O5    Zn1   S    
O14   H34   S    
C29   H23   S    
C9    O7    A    
C9    C11   S    
C4    C31   S    
C10   C12   S    
C22   O9    S    
C20   C22   A    
O9    H11   S    
C13   C15   A    
C25   H7    S    
C14   C16   A    
C3    C32   S    
C21   O10   S    
C26   H10   S    
C15   C17   A    
C28   H19   S    
C12   C14   A    
C3    C5    D    
C23   O12   S    
C10   O8    A    
C8    N2    D    
N2    O13   S    
C11   C13   A    
C27   H15   S    
O8    Zn1   S    
C32   H32   S    
N1    Zn2   S    
C31   H29   S    
O1    Zn1   S    
N2    Zn1   S    
C18   C20   A    
O2    Zn2   S    
C30   H24   S    
C5    H2    S    
C16   C18   A    
C29   H21   S    
C9    O5    A    
C8    H3    S    
C10   O6    A    
C16   C29   S    
