data_mof_unit_12010.cif
_audit_creation_date              2013-03-05T16:42:22-0500
_audit_creation_method            fapswitch 2.2
_symmetry_space_group_name_H-M    P1
_symmetry_Int_Tables_number       1
_space_group_crystal_system       triclinic
_cell_length_a                    9.871373
_cell_length_b                    10.706941
_cell_length_c                    15.370874
_cell_angle_alpha                 90.494682
_cell_angle_beta                  68.400931
_cell_angle_gamma                 89.553606
_cell_volume                      1510.34608065

loop_
_atom_site_label
_atom_site_type_symbol
_atom_site_description
_atom_site_fract_x
_atom_site_fract_y
_atom_site_fract_z
_atom_type_partial_charge
O1    O     O_R   0.385310 0.683210 0.499990 -0.624071
O2    O     O_R   0.614650 0.683240 0.500000 -0.604116
C1    C     C_R   0.500550 0.739920 0.498522 0.887370
O3    O     O_R   0.319830 0.499970 0.632240 -0.626953
O4    O     O_R   0.549170 0.500000 0.632250 -0.573962
C2    C     C_R   0.409180 0.496379 0.676080 0.918256
Zn1   Zn    Zn3+2 0.346870 0.499980 0.499990 1.008952
Zn2   Zn    Zn3+2 0.653130 0.500020 0.500010 1.059719
O5    O     O_R   0.385350 0.316760 0.500000 -0.622845
O6    O     O_R   0.614690 0.316790 0.500010 -0.594248
O7    O     O_R   0.450830 0.500000 0.367750 -0.575899
O8    O     O_R   0.680170 0.500030 0.367760 -0.569471
C3    C     C_R   0.501479 0.260182 0.498085 0.908806
C4    C     C_R   0.591155 0.495006 0.323520 0.879370
C5    C     C_R   0.349836 0.488129 0.778090 -0.150218
C6    C     C_R   0.643958 0.458495 0.224010 -0.188518
C7    C     C_R   0.171331 0.561883 0.924281 -0.141084
C8    C     C_R   0.219221 0.551050 0.827870 -0.217278
C9    C     C_R   0.426705 0.423685 0.825603 0.247664
C10   C     C_R   0.378098 0.433763 0.924825 -0.018570
C11   C     C_R   0.253700 0.510277 0.972257 0.054936
C12   C     C_R   0.455150 0.380986 0.978090 0.027192
C13   C     C_R   0.433214 0.433281 0.067077 -0.050890
C14   C     C_R   0.300580 0.498602 0.115643 0.304423
C15   C     C_R   0.212435 0.535824 0.067521 -0.212634
C16   C     C_R   0.550806 0.277148 0.947897 -0.060241
C17   C     C_R   0.646736 0.246694 0.992102 -0.173704
C18   C     C_R   0.648884 0.318995 0.067510 0.089892
C19   C     C_R   0.543214 0.414537 0.104672 0.128047
C20   C     C_R   0.753155 0.295594 0.107479 -0.249067
C21   C     C_R   0.750521 0.363196 0.186669 0.297506
C22   C     C_R   0.552985 0.490841 0.176474 -0.218014
H1    H     H_    0.111490 0.586106 0.104672 0.198483
H2    H     H_    0.482218 0.571582 0.201271 0.184539
H3    H     H_    0.721685 0.168596 0.965714 0.164363
H4    H     H_    0.073535 0.616426 0.960929 0.152740
H5    H     H_    0.158281 0.598287 0.791660 0.160384
H6    H     H_    0.550437 0.216534 0.891554 0.201495
H7    H     H_    0.834349 0.222414 0.078662 0.184496
C23   C     C_R   0.374854 0.938099 0.509695 0.095499
C24   C     C_R   0.504570 0.871641 0.489508 -0.085079
C25   C     C_R   0.638320 0.933765 0.456374 -0.126510
H8    H     H_    0.741104 0.883162 0.434957 0.203623
C26   C     C_R   0.638971 0.063138 0.456175 -0.093812
H9    H     H_    0.742026 0.111287 0.435085 0.205301
C27   C     C_R   0.505831 0.128536 0.488375 -0.143235
C28   C     C_R   0.375565 0.065639 0.507724 0.038561
C29   C     C_3   0.237169 0.076847 0.591790 0.144489
C30   C     C_3   0.235731 0.935012 0.593632 -0.208428
H10   H     H_    0.251473 0.122988 0.653061 0.135553
H11   H     H_    0.145177 0.892024 0.578173 0.224239
C31   C     C_R   0.907115 0.599942 0.535722 0.171318
N1    N     N_R   0.856900 0.500860 0.500610 -0.148172
C32   C     C_R   0.951662 0.404558 0.460368 0.056922
H12   H     H_    0.916078 0.326551 0.429333 0.183150
C33   C     C_R   0.095005 0.404297 0.460967 0.087940
H13   H     H_    0.167249 0.326031 0.430624 0.197342
N2    N     N_R   0.142540 0.500820 0.500610 -0.124050
C34   C     C_R   0.048789 0.598300 0.538064 0.208646
C35   C     C_3   0.992133 0.637514 0.639006 -0.598019
C36   C     C_3   0.841579 0.646424 0.634174 0.093883
H14   H     H_    0.001725 0.561166 0.685094 0.220441
H15   H     H_    0.034605 0.727548 0.652576 0.209360
H16   H     H_    0.761389 0.582406 0.681816 0.192917
N3    N     N_R   0.116691 0.129820 0.569724 0.221057
O9    O     O_R   0.028946 0.211199 0.626707 -0.360493
O10   O     O_R   0.091332 0.092054 0.496427 -0.371186
N4    N     N_3   0.255948 0.886575 0.676740 -0.427781
H17   H     H_    0.160222 0.905675 0.734136 0.207331
H18   H     H_    0.264655 0.789337 0.670427 0.196762
N5    N     N_R   0.786334 0.774727 0.639845 0.235212
O11   O     O_R   0.864016 0.860979 0.585257 -0.353797
O12   O     O_R   0.655215 0.802070 0.697503 -0.363680
N6    N     N_R   0.852345 0.330611 0.229703 0.199415
O13   O     O_R   0.931889 0.416775 0.246458 -0.354411
O14   O     O_R   0.885526 0.213926 0.235512 -0.402853
N7    N     N_R   0.558131 0.356995 0.771572 0.185756
O15   O     O_R   0.683280 0.392435 0.772647 -0.401194
O16   O     O_R   0.553649 0.264769 0.717005 -0.376799
N8    N     N_R   0.241995 0.507603 0.215745 0.215690
O17   O     O_R   0.251799 0.411501 0.264221 -0.394400
O18   O     O_R   0.160767 0.602619 0.258174 -0.383357

loop_
_geom_bond_atom_site_label_1
_geom_bond_atom_site_label_2
_geom_bond_distance
_ccdc_geom_bond_type
C23   C28   1.366168 A    
C30   N4    1.462244 S    
C5    C8    1.397494 A    
C24   C25   1.403391 A    
C9    C10   1.423206 A    
C30   H11   1.108272 S    
N1    C32   1.367033 A    
C31   N1    1.362972 A    
C6    C21   1.416252 A    
Zn1   O7    1.910256 S    
C16   C17   1.391924 A    
N6    O14   1.301225 A    
C35   H15   1.102607 S    
O4    C2    1.296490 A    
C13   C19   1.419098 A    
C18   C19   1.412599 A    
C8    H5    1.083539 S    
C19   C22   1.399595 A    
C31   C36   1.489124 S    
C20   C21   1.402625 A    
O7    C4    1.299512 A    
C23   C30   1.499566 S    
C33   H13   1.080461 S    
C35   H14   1.112312 S    
C9    N7    1.436943 S    
O5    C3    1.282956 A    
C2    C5    1.461684 S    
C27   C28   1.389574 A    
C14   N8    1.432721 S    
C1    C24   1.417738 S    
N4    H17   1.045558 S    
N3    O10   1.302625 A    
C13   C14   1.420479 A    
C7    H4    1.084200 S    
C29   N3    1.463185 S    
Zn1   N2    2.013478 S    
C36   N5    1.464037 S    
C29   H10   1.114416 S    
C34   C35   1.497552 S    
C25   C26   1.385274 A    
O3    Zn1   1.950398 S    
C26   C27   1.401194 A    
N7    O16   1.301620 A    
C32   C33   1.418384 A    
N6    O13   1.300017 A    
C14   C15   1.391600 A    
N8    O18   1.301562 A    
N5    O12   1.300581 A    
C16   H6    1.078829 S    
C21   N6    1.434432 S    
C17   H3    1.083825 S    
N2    C34   1.363655 A    
N7    O15   1.301030 A    
C7    C11   1.397034 A    
C35   C36   1.517408 S    
O1    C1    1.286612 A    
C22   H2    1.081425 S    
C36   H16   1.105914 S    
C5    C9    1.412008 A    
C31   C34   1.412148 A    
C28   C29   1.498531 S    
Zn2   O8    1.950395 S    
C7    C8    1.383269 A    
O3    C2    1.292667 A    
C23   C24   1.389855 A    
O8    C4    1.295158 A    
C4    C6    1.470920 S    
C25   H8    1.083425 S    
C26   H9    1.083517 S    
Zn1   O5    1.995267 S    
C11   C15   1.391812 A    
C32   H12   1.081475 S    
C29   C30   1.519206 S    
O1    Zn1   2.001093 S    
Zn2   O6    2.001093 S    
O2    Zn2   1.995267 S    
C10   C12   1.424044 A    
N8    O17   1.299268 A    
O6    C3    1.285196 A    
Zn2   N1    2.014993 S    
O4    Zn2   1.910256 S    
C6    C22   1.393875 A    
C18   C20   1.401376 A    
O2    C1    1.282906 A    
N5    O11   1.302151 A    
C3    C27   1.414781 S    
C33   N2    1.366280 A    
C20   H7    1.084152 S    
C10   C11   1.423200 A    
N4    H18   1.044729 S    
N3    O9    1.301200 A    
C12   C16   1.412507 A    
C17   C18   1.395017 A    
C12   C13   1.413549 A    
C15   H1    1.084557 S    
