data_mof_unit_23241.cif
_audit_creation_date              2012-12-11T14:43:39-0500
_audit_creation_method            fapswitch 2.2
_symmetry_space_group_name_H-M    P1
_symmetry_Int_Tables_number       1
_space_group_crystal_system       triclinic
_cell_length_a                    20.881956
_cell_length_b                    7.10061
_cell_length_c                    16.319213
_cell_angle_alpha                 88.244151
_cell_angle_beta                  92.600169
_cell_angle_gamma                 89.255751
_cell_volume                      2415.84842352

loop_
_atom_site_label
_atom_site_type_symbol
_atom_type_description
_atom_site_fract_x
_atom_site_fract_y
_atom_site_fract_z
_atom_type_partial_charge
O1    O     O_R   0.564840 0.505290 0.579830 -0.536215
O2    O     O_R   0.435160 0.005290 0.420170 -0.537392
O3    O     O_R   0.556720 0.179930 0.409350 -0.537886
O4    O     O_R   0.443280 0.679930 0.590650 -0.538619
C1    C     C_R   0.570102 0.346593 0.380601 0.700222
C2    C     C_R   0.429812 0.842962 0.619326 0.697198
O5    O     O_R   0.572280 0.175810 0.578530 -0.544433
O6    O     O_R   0.427720 0.675810 0.421470 -0.535747
O7    O     O_R   0.450830 0.001920 0.590540 -0.534369
O8    O     O_R   0.549170 0.501920 0.409460 -0.535037
C3    C     C_R   0.590188 0.340527 0.605086 0.693112
C4    C     C_R   0.410053 0.847394 0.395121 0.691695
O9    O     O_3   0.460130 0.338030 0.503750 -0.369776
O10   O     O_3   0.539870 0.838030 0.496250 -0.373508
V1    V     V_3+5 0.507400 0.064560 0.499310 1.423050
V2    V     V_3+5 0.492600 0.564560 0.500690 1.430678
C5    C     C_R   0.141979 0.898800 0.169987 -0.090992
C6    C     C_R   0.855449 0.433945 0.831466 -0.097399
C7    C     C_R   0.357211 0.868684 0.331438 -0.058197
C8    C     C_R   0.645112 0.334333 0.666774 -0.067641
C9    C     C_R   0.314819 0.017692 0.203054 -0.115962
C10   C     C_R   0.711432 0.154681 0.770124 -0.137444
C11   C     C_R   0.365381 0.984452 0.261334 -0.151184
C12   C     C_R   0.657222 0.170367 0.716427 -0.153130
C13   C     C_R   0.297034 0.788259 0.343013 -0.213983
C14   C     C_R   0.688405 0.483363 0.672690 -0.211889
C15   C     C_R   0.245313 0.826078 0.285895 0.117982
C16   C     C_R   0.743742 0.466618 0.725385 0.126551
C17   C     C_R   0.254339 0.940104 0.214841 0.161600
C18   C     C_R   0.755513 0.301557 0.774685 0.164853
C19   C     C_R   0.202780 0.974675 0.157072 -0.226985
C20   C     C_R   0.810950 0.286445 0.827566 -0.209980
C21   C     C_R   0.132803 0.793885 0.243327 0.144990
C22   C     C_R   0.843745 0.596061 0.779018 0.158042
C23   C     C_R   0.184245 0.755967 0.299793 -0.183554
C24   C     C_R   0.788233 0.611269 0.727908 -0.193257
H1    H     H_    0.210217 0.057111 0.101364 0.140286
H2    H     H_    0.818668 0.161719 0.866936 0.155575
H3    H     H_    0.322800 0.106262 0.149333 0.148195
H4    H     H_    0.719292 0.026488 0.807183 0.144030
H5    H     H_    0.176118 0.673963 0.355354 0.143465
H6    H     H_    0.780195 0.736741 0.689086 0.142370
H7    H     H_    0.411205 0.049412 0.251692 0.121551
H8    H     H_    0.624742 0.052810 0.713439 0.132099
H9    H     H_    0.289917 0.702423 0.397858 0.110918
H10   H     H_    0.680301 0.609404 0.634219 0.122082
C25   C     C_R   0.378194 0.764596 0.835204 -0.110345
C26   C     C_R   0.618111 0.442082 0.164077 -0.109058
H11   H     H_    0.467015 0.748816 0.774868 0.120720
H12   H     H_    0.529339 0.423271 0.224547 0.118142
H13   H     H_    0.401536 0.717897 0.892813 0.164997
H14   H     H_    0.593083 0.477785 0.106194 0.164003
C27   C     C_R   0.389579 0.843223 0.691398 -0.044676
C28   C     C_R   0.610081 0.363370 0.308491 -0.045536
C29   C     C_R   0.082256 0.983969 0.734059 -0.131501
C30   C     C_R   0.920486 0.339408 0.265392 -0.107313
C31   C     C_R   0.117965 0.001300 0.664612 -0.110232
C32   C     C_R   0.885754 0.306309 0.334772 -0.092127
C33   C     C_R   0.183400 0.960244 0.668856 -0.146541
C34   C     C_R   0.819205 0.323544 0.330733 -0.146447
C35   C     C_R   0.215283 0.899928 0.743678 0.079414
C36   C     C_R   0.785172 0.373881 0.256077 0.077317
C37   C     C_R   0.177771 0.877623 0.814537 0.027253
C38   C     C_R   0.821477 0.411852 0.185265 0.025256
C39   C     C_R   0.283088 0.863271 0.750462 0.048665
C40   C     C_R   0.716465 0.384229 0.249262 0.049963
C41   C     C_R   0.311731 0.802438 0.827958 0.086403
C42   C     C_R   0.685570 0.431202 0.171406 0.083691
C43   C     C_R   0.273505 0.779258 0.896578 0.140845
C44   C     C_R   0.722544 0.467321 0.102508 0.145062
C45   C     C_R   0.207904 0.817554 0.889499 -0.214422
C46   C     C_R   0.789174 0.458164 0.110015 -0.208221
C47   C     C_R   0.323602 0.883770 0.682783 -0.197586
C48   C     C_R   0.677165 0.349971 0.317211 -0.194645
C49   C     C_R   0.416325 0.783351 0.767706 -0.168207
C50   C     C_R   0.581057 0.409923 0.231828 -0.172422
C51   C     C_R   0.110793 0.919857 0.809092 -0.074311
C52   C     C_R   0.889617 0.396631 0.190798 -0.068022
H15   H     H_    0.305450 0.926383 0.622131 0.092696
H16   H     H_    0.696925 0.317216 0.378155 0.093460
H17   H     H_    0.031984 0.023391 0.729332 0.146633
H18   H     H_    0.972009 0.318298 0.269748 0.143523
H19   H     H_    0.207559 0.979065 0.612389 0.109741
H20   H     H_    0.795967 0.293117 0.387053 0.111981
H21   H     H_    0.094835 0.049875 0.606946 0.135275
H22   H     H_    0.910630 0.263956 0.392175 0.137157
H23   H     H_    0.180471 0.799248 0.943828 0.133585
H24   H     H_    0.815654 0.486374 0.055563 0.133351
O11   O     O_R   0.950790 0.256670 0.090520 -0.535687
O12   O     O_R   0.049210 0.756670 0.909480 -0.526195
O13   O     O_R   0.927720 0.590370 0.921470 -0.525143
O14   O     O_R   0.072280 0.090370 0.078530 -0.538041
C53   C     C_R   0.910380 0.425842 0.893864 0.722924
C54   C     C_R   0.089576 0.918690 0.105384 0.726622
O15   O     O_R   0.943270 0.586180 0.090640 -0.525747
O16   O     O_R   0.056730 0.086180 0.909360 -0.539267
O17   O     O_R   0.064850 0.759970 0.079840 -0.525325
O18   O     O_R   0.935150 0.259970 0.920160 -0.532376
C55   C     C_R   0.929862 0.415534 0.118658 0.699108
C56   C     C_R   0.070266 0.919444 0.881359 0.701549
O19   O     O_3   0.039850 0.428050 0.996240 -0.371141
O20   O     O_3   0.960150 0.928050 0.003760 -0.361968
V3    V     V_3+5 0.992610 0.701540 0.000700 1.518938
V4    V     V_3+5 0.007390 0.201540 0.999300 1.487338
I1    I     I_    0.041074 0.703365 0.276582 -0.451825
I2    I     I_    0.907268 0.825600 0.766510 -0.452589
I3    I     I_    0.310056 0.684156 0.014858 -0.469814
I4    I     I_    0.682600 0.536496 0.982714 -0.444846

loop_
_geom_bond_atom_site_label_1
_geom_bond_atom_site_label_2
_ccdc_geom_bond_type
C30   C52   A    
C40   C42   A    
C15   C17   A    
C26   C50   A    
C24   H6    S    
O1    C3    A    
O2    C4    A    
C44   I4    S    
C2    O7    A    
C43   I3    S    
C11   H7    S    
O5    C3    A    
O11   C55   A    
C33   H19   S    
C29   C51   A    
O15   C55   A    
C31   C33   A    
C32   C34   A    
C40   C48   A    
C39   C47   A    
C51   C56   S    
C34   C36   A    
O12   C56   A    
C43   C45   A    
C36   C38   A    
C28   C48   A    
C8    C12   A    
C31   H21   S    
C39   C41   A    
H11   C49   S    
C20   H2    S    
C29   H17   S    
O5    V1    S    
O6    V2    S    
C48   H16   S    
C27   C49   A    
C5    C21   A    
C23   H5    S    
C32   H22   S    
C25   C41   A    
C46   H24   S    
O15   V3    S    
C3    C8    S    
C33   C35   A    
C36   C40   A    
C22   I2    S    
C1    C28   S    
C21   I1    S    
O4    C2    A    
O14   V4    S    
C25   H13   S    
C54   O17   A    
C15   C23   A    
C9    C17   A    
C19   H1    S    
C41   C43   A    
O4    V2    S    
C7    C11   A    
H12   C50   S    
O13   C53   A    
C9    H3    S    
O6    C4    A    
C10   H4    S    
O14   C54   A    
C47   H15   S    
O1    V2    S    
C26   C42   A    
O20   V4    S    
O2    V1    S    
C6    C22   A    
O17   V3    S    
C45   H23   S    
C42   C44   A    
C37   C45   A    
O19   V4    S    
C29   C31   A    
O11   V4    S    
C5    C19   A    
C10   C12   A    
C6    C20   A    
C2    C27   S    
C13   H9    S    
O3    V1    S    
C37   C51   A    
O16   V4    S    
C10   C18   A    
C28   C50   A    
C38   C52   A    
C35   C37   A    
C27   C47   A    
O13   V3    S    
O3    C1    A    
C30   H18   S    
C13   C15   A    
C14   C16   A    
C9    C11   A    
O7    V1    S    
C25   C49   A    
C1    O8    A    
C17   C19   A    
O8    V2    S    
C18   C20   A    
C34   H20   S    
C8    C14   A    
C12   H8    S    
O16   C56   A    
C4    C7    S    
C16   C18   A    
C21   C23   A    
C30   C32   A    
C22   C24   A    
C38   C46   A    
O20   V3    S    
C7    C13   A    
O12   V3    S    
C14   H10   S    
C35   C39   A    
C26   H14   S    
C16   C24   A    
O19   V3    S    
O9    V2    S    
C52   C55   S    
C6    C53   S    
O10   V1    S    
C44   C46   A    
C5    C54   S    
C53   O18   A    
O18   V4    S    
