data_mof_unit_63042.cif
_audit_creation_date              2012-12-10T16:48:45-0500
_audit_creation_method            fapswitch 2.2
_symmetry_space_group_name_H-M    P1
_symmetry_Int_Tables_number       1
_space_group_crystal_system       triclinic
_cell_length_a                    18.395466
_cell_length_b                    18.429511
_cell_length_c                    18.416632
_cell_angle_alpha                 119.903324
_cell_angle_beta                  119.53947
_cell_angle_gamma                 90.474369
_cell_volume                      4433.61150323

loop_
_atom_site_label
_atom_site_type_symbol
_atom_type_description
_atom_site_fract_x
_atom_site_fract_y
_atom_site_fract_z
_atom_type_partial_charge
C1    C     C_R   0.138504 0.361268 0.997696 0.777406
C2    C     C_2   0.798680 0.686426 0.994969 -0.318120
C3    C     C_2   0.721677 0.280853 0.444242 -0.106438
C4    C     C_R   0.860685 0.637797 0.999552 0.872485
C5    C     C_2   0.702215 0.192679 0.387199 -0.233328
C6    C     C_2   0.783769 0.333904 0.556045 -0.231896
C7    C     C_2   0.788803 0.306166 0.613307 -0.143196
C8    C     C_2   0.336776 0.280830 0.057184 -0.108518
C9    C     C_2   0.305448 0.192719 0.007634 -0.239701
C10   C     C_2   0.278053 0.334003 0.060652 -0.234193
C11   C     C_2   0.193049 0.306118 0.981696 -0.149743
C12   C     C_3   0.778962 0.358403 0.078299 -0.366474
C13   C     C_2   0.217281 0.780335 0.942034 -0.158639
C14   C     C_2   0.304909 0.797516 0.992900 -0.275966
C15   C     C_2   0.161610 0.720176 0.937583 -0.160742
C16   C     C_R   0.138566 0.640759 0.277211 0.784819
C17   C     C_2   0.195515 0.702528 0.007558 -0.273517
C18   C     C_2   0.219496 0.777033 0.556275 -0.104719
C19   C     C_2   0.307730 0.797647 0.612650 -0.243050
C20   C     C_2   0.166375 0.714983 0.444408 -0.237281
C21   C     C_2   0.193321 0.711233 0.386809 -0.146637
C22   C     C_R   0.639942 0.138459 0.276896 0.874583
C23   C     C_3   0.802285 0.301140 0.001513 0.136151
C24   C     C_R   0.361699 0.859989 0.723029 0.861774
C25   C     C_R   0.636872 0.859678 0.997887 0.918885
C26   C     C_R   0.361577 0.138451 0.001432 0.855970
C27   C     C_R   0.359458 0.858446 0.998925 0.863289
C28   C     C_R   0.859225 0.361260 0.722840 0.781724
C29   C     C_R   0.641915 0.141330 0.000454 0.809416
C30   C     C_R   0.140515 0.641532 0.001028 0.863622
C31   C     C_R   0.858566 0.358723 0.000039 0.759404
C32   C     C_3   0.714998 0.237908 0.893646 -0.359312
C33   C     C_3   0.656012 0.178798 0.894554 -0.385791
C34   C     C_3   0.702533 0.198960 0.002976 0.029266
C35   C     C_3   0.852508 0.244065 0.033539 -0.454243
C36   C     C_2   0.843825 0.214848 0.152216 0.904384
C37   C     C_2   0.629931 0.727574 0.812188 0.973787
C38   C     C_2   0.718602 0.228819 0.573445 0.908424
C39   C     C_2   0.155668 0.228408 0.875019 0.914352
C40   C     C_2   0.269528 0.782647 0.426568 0.915045
C41   C     C_2   0.788919 0.088388 0.975268 0.910800
C42   C     C_3   0.796929 0.185789 0.041121 -0.097714
C43   C     C_3   0.717179 0.298981 0.075608 -0.396868
C44   C     C_2   0.695562 0.749620 0.915976 -0.019648
C45   C     C_2   0.693559 0.805076 0.997840 -0.357794
C46   C     C_2   0.763882 0.706509 0.926920 -0.198403
H1    H     H_    0.745816 0.318881 0.154587 0.198189
H2    H     H_    0.338377 0.765250 0.029093 0.154648
H3    H     H_    0.091298 0.691071 0.876175 0.185965
H4    H     H_    0.264169 0.734495 0.073011 0.159125
H5    H     H_    0.184748 0.802063 0.592308 0.181481
H6    H     H_    0.867061 0.201657 0.976788 0.202386
H7    H     H_    0.840763 0.401685 0.157144 0.204599
H8    H     H_    0.745715 0.402530 0.059256 0.181959
H9    H     H_    0.652437 0.310754 0.048721 0.187254
H10   H     H_    0.729763 0.194888 0.837356 0.220004
H11   H     H_    0.919168 0.288346 0.105588 0.202542
H12   H     H_    0.740016 0.816811 0.071365 0.156618
H13   H     H_    0.945785 0.298785 0.301191 0.352894
H14   H     H_    0.502816 0.700693 0.704409 0.344544
H15   H     H_    0.695712 0.315627 0.408797 0.178869
H16   H     H_    0.588171 0.157735 0.482274 0.346808
H17   H     H_    0.236264 0.158858 0.970403 0.155215
H18   H     H_    0.305532 0.397675 0.133331 0.184731
H19   H     H_    0.176039 0.156750 0.765069 0.349096
H20   H     H_    0.591948 0.191835 0.871702 0.161100
H21   H     H_    0.341822 0.767647 0.577027 0.154900
H22   H     H_    0.103598 0.668012 0.408604 0.178354
H23   H     H_    0.781957 0.685926 0.873323 0.212541
H24   H     H_    0.339106 0.913738 0.518511 0.346448
H25   H     H_    0.638308 0.107667 0.835442 0.230366
H26   H     H_    0.806475 0.976537 0.965683 0.357047
H27   H     H_    0.777163 0.700152 0.044379 0.163940
H28   H     H_    0.733049 0.158684 0.422250 0.157738
H29   H     H_    0.829735 0.397389 0.592027 0.179335
H30   H     H_    0.678407 0.277350 0.868135 0.159367
H31   H     H_    0.407124 0.315488 0.100436 0.178451
H32   H     H_    0.184963 0.809782 0.901348 0.186577
O1    O     O_3   0.000000 0.500000 0.000000 -0.505508
O2    O     O_R   0.324760 0.053850 0.939900 -0.637507
O3    O     O_R   0.443270 0.883090 0.060070 -0.641718
O4    O     O_R   0.053940 0.324750 0.939940 -0.595171
O5    O     O_R   0.616890 0.176890 0.060090 -0.635417
O6    O     O_R   0.323100 0.883090 0.939900 -0.648449
O7    O     O_R   0.616910 0.056740 0.939940 -0.625957
O8    O     O_R   0.615250 0.885990 0.939940 -0.602471
O9    O     O_R   0.446110 0.175200 0.060060 -0.650303
O10   O     O_R   0.614030 0.053850 0.229160 -0.634855
O11   O     O_R   0.324790 0.884790 0.770830 -0.645597
O12   O     O_R   0.053880 0.613970 0.229150 -0.643067
O13   O     O_R   0.884790 0.613970 0.060060 -0.643273
O14   O     O_R   0.175250 0.615170 0.229170 -0.598404
O15   O     O_R   0.886020 0.446110 0.770840 -0.647012
O16   O     O_R   0.176940 0.616860 0.060100 -0.631502
O17   O     O_R   0.883150 0.323060 0.939910 -0.629170
O18   O     O_R   0.056770 0.616860 0.939930 -0.647032
O19   O     O_R   0.883130 0.443210 0.060060 -0.650499
O20   O     O_2   0.810690 0.175311 0.171669 -0.611798
O21   O     O_R   0.923097 0.286870 0.232377 -0.818905
O22   O     O_2   0.653346 0.716053 0.756660 -0.619256
O23   O     O_R   0.884840 0.324750 0.770840 -0.588458
O24   O     O_R   0.540736 0.716039 0.776165 -0.804243
O25   O     O_2   0.738580 0.181729 0.604082 -0.587632
O26   O     O_R   0.629379 0.211613 0.503151 -0.790677
O27   O     O_2   0.077869 0.181237 0.818472 -0.585095
O28   O     O_R   0.208962 0.210899 0.838479 -0.789135
O29   O     O_2   0.316365 0.763866 0.395089 -0.594367
O30   O     O_R   0.285925 0.871638 0.497741 -0.787341
O31   O     O_2   0.760130 0.052414 0.885362 -0.613061
O32   O     O_R   0.815674 0.039916 0.017357 -0.764370
O33   O     O_R   0.175280 0.446110 0.060100 -0.640287
O34   O     O_R   0.885990 0.615170 0.939900 -0.637199
O35   O     O_3   0.500040 0.999960 0.000000 -0.506483
O36   O     O_R   0.615200 0.175200 0.229160 -0.639337
O37   O     O_R   0.446160 0.885990 0.770850 -0.629211
O38   O     O_R   0.614060 0.884790 0.060100 -0.642107
Zn1   Zn    Zn3+2 0.956210 0.542060 0.085830 0.972018
Zn2   Zn    Zn3+2 0.129620 0.543770 0.085850 1.013013
Zn3   Zn    Zn3+2 0.957930 0.543770 0.914160 0.978031
Zn4   Zn    Zn3+2 0.956240 0.370390 0.914160 1.037457
Zn5   Zn    Zn3+2 0.543830 0.957900 0.914170 1.045224
Zn6   Zn    Zn3+2 0.542120 0.956180 0.085840 1.010669
Zn7   Zn    Zn3+2 0.370430 0.956180 0.914150 0.982957
Zn8   Zn    Zn3+2 0.543800 0.129560 0.085840 0.995757

loop_
_geom_bond_atom_site_label_1
_geom_bond_atom_site_label_2
_ccdc_geom_bond_type
C39   O28   S    
C16   O12   A    
C16   C21   S    
O37   Zn5   S    
H13   O21   S    
C41   C42   S    
O18   Zn3   S    
C36   C42   S    
C34   C42   S    
O4    Zn4   S    
C3    C6    S    
C24   O11   A    
C6    H29   S    
C2    C46   D    
O6    Zn7   S    
O35   Zn8   S    
C12   C23   S    
O38   Zn6   S    
O33   Zn2   S    
C27   O6    A    
C29   O5    A    
C12   C43   S    
O9    Zn8   S    
O1    Zn2   S    
C15   C17   D    
C18   C19   D    
C5    H28   S    
C35   C42   S    
O14   Zn2   S    
C46   H23   S    
C38   O26   S    
C28   O23   A    
C5    C22   S    
C26   O9    A    
O1    Zn3   S    
C18   H5    S    
C30   O18   A    
O13   Zn1   S    
C19   H21   S    
C22   O10   A    
C14   C27   S    
C29   O7    A    
C12   H7    S    
C40   O30   S    
C4    O13   A    
O36   Zn8   S    
C31   O19   A    
C4    O34   A    
C41   O31   D    
C13   C14   D    
C17   C30   S    
H14   O24   S    
C44   C46   S    
C9    C26   S    
H16   O26   S    
C3    H15   S    
H26   O32   S    
C45   H12   S    
O35   Zn6   S    
O12   Zn1   S    
C27   O3    A    
O10   Zn6   S    
C25   O38   A    
C33   H25   S    
C8    C9    D    
C14   H2    S    
O11   Zn7   S    
C1    O4    A    
C29   C34   S    
C26   O2    A    
C7    C28   S    
C32   C33   S    
C28   O15   A    
C23   C31   S    
C2    C4    S    
C38   O25   D    
O35   Zn7   S    
O1    Zn4   S    
O8    Zn5   S    
C33   C34   S    
C11   C39   S    
C2    H27   S    
C40   O29   D    
C43   H9    S    
C16   O14   A    
C23   C35   S    
C41   O32   S    
C13   C15   S    
C8    H31   S    
O5    Zn8   S    
C25   C45   S    
H19   O28   S    
C44   C45   D    
C39   O27   D    
C13   H32   S    
C9    H17   S    
O23   Zn4   S    
C20   H22   S    
C10   H18   S    
C34   C43   S    
C3    C5    D    
C17   H4    S    
C32   H30   S    
O34   Zn3   S    
C6    C7    D    
O17   Zn4   S    
O3    Zn6   S    
C35   H11   S    
O7    Zn5   S    
C37   C44   S    
C19   C24   S    
C30   O16   A    
H24   O30   S    
C23   C32   S    
O16   Zn2   S    
C37   O24   S    
C21   C40   S    
C31   O17   A    
O1    Zn1   S    
C25   O8    A    
C7    C38   S    
C36   O21   S    
C18   C20   S    
C15   H3    S    
O19   Zn1   S    
C12   H8    S    
C10   C11   D    
C33   H20   S    
C22   O36   A    
O35   Zn5   S    
C20   C21   D    
C24   O37   A    
C8    C10   S    
C35   H6    S    
C36   O20   D    
C1    C11   S    
O15   Zn3   S    
C43   H1    S    
C32   H10   S    
C37   O22   D    
C1    O33   A    
O2    Zn7   S    
