data_mof_unit_45678.cif
_audit_creation_date              2012-12-11T14:42:15-0500
_audit_creation_method            fapswitch 2.2
_symmetry_space_group_name_H-M    P1
_symmetry_Int_Tables_number       1
_space_group_crystal_system       triclinic
_cell_length_a                    19.090413
_cell_length_b                    10.931287
_cell_length_c                    18.820972
_cell_angle_alpha                 90.199908
_cell_angle_beta                  89.997837
_cell_angle_gamma                 89.500593
_cell_volume                      3927.43971272

loop_
_atom_site_label
_atom_site_type_symbol
_atom_type_description
_atom_site_fract_x
_atom_site_fract_y
_atom_site_fract_z
_atom_type_partial_charge
C1    C     C_R   0.724666 0.961476 0.855737 0.542042
C2    C     C_R   0.236926 0.438404 0.930565 -0.023166
C3    C     C_3   0.886749 0.099426 0.071282 -0.101248
C4    C     C_3   0.469726 0.870431 0.437416 -0.052113
C5    C     C_3   0.400200 0.059144 0.613997 -0.060547
C6    C     C_3   0.969711 0.370437 0.437424 -0.052103
C7    C     C_3   0.900189 0.559189 0.613996 -0.060559
C8    C     C_R   0.278740 0.981881 0.062996 -0.016486
C9    C     C_R   0.736926 0.938404 0.930565 -0.023166
C10   C     C_R   0.830282 0.422710 0.023029 -0.161887
C11   C     C_R   0.179238 0.410072 0.973134 -0.156027
C12   C     C_R   0.330282 0.922710 0.023029 -0.161887
C13   C     C_R   0.679238 0.910071 0.973134 -0.156027
C14   C     C_R   0.819410 0.398855 0.951985 -0.177760
C15   C     C_R   0.186302 0.401165 0.045525 -0.178958
C16   C     C_R   0.319410 0.898855 0.951985 -0.177760
C17   C     C_R   0.291022 0.001829 0.138900 0.563233
C18   C     C_R   0.686302 0.901165 0.045525 -0.178959
C19   C     C_R   0.754940 0.428088 0.919568 0.025802
C20   C     C_R   0.251963 0.416427 0.077020 0.032999
C21   C     C_R   0.254940 0.928087 0.919568 0.025801
C22   C     C_R   0.751963 0.916427 0.077020 0.032998
C23   C     C_R   0.566206 0.258946 0.515863 0.144874
C24   C     C_R   0.551462 0.248584 0.443822 0.234910
C25   C     C_R   0.066225 0.758922 0.515856 0.144802
C26   C     C_R   0.051475 0.748563 0.443816 0.234912
C27   C     C_R   0.504190 0.159664 0.421990 0.023474
C28   C     C_R   0.224666 0.461476 0.855737 0.542048
C29   C     C_R   0.538754 0.173646 0.563909 -0.038008
C30   C     C_R   0.004190 0.659660 0.421990 0.023455
C31   C     C_R   0.038760 0.673643 0.563908 -0.038079
C32   C     C_R   0.479229 0.069739 0.469138 0.233301
C33   C     C_R   0.493484 0.081105 0.540863 0.222917
C34   C     C_R   0.979223 0.569745 0.469141 0.233279
C35   C     C_R   0.993479 0.581115 0.540865 0.222907
C36   C     C_R   0.775848 0.298162 0.525080 0.266549
C37   C     C_R   0.191276 0.449955 0.453134 0.204297
C38   C     C_R   0.275861 0.798172 0.525082 0.266600
C39   C     C_R   0.791022 0.501829 0.138900 0.563233
C40   C     C_R   0.691276 0.949953 0.453134 0.204272
C41   C     C_R   0.778586 0.320982 0.452929 -0.133760
C42   C     C_R   0.183475 0.460122 0.525938 -0.095952
C43   C     C_R   0.278596 0.820988 0.452931 -0.133709
C44   C     C_R   0.683473 0.960115 0.525938 -0.096006
C45   C     C_R   0.529685 0.178005 0.850796 0.560593
C46   C     C_R   0.470544 0.177332 0.149362 0.555278
C47   C     C_R   0.029685 0.678005 0.850796 0.560599
C48   C     C_R   0.970544 0.677332 0.149362 0.555283
C49   C     C_R   0.755333 0.432052 0.426608 0.025116
C50   C     C_R   0.717133 0.523833 0.029444 -0.098043
C51   C     C_R   0.238809 0.431758 0.572398 0.038102
C52   C     C_R   0.255337 0.932055 0.426610 0.025112
C53   C     C_R   0.738807 0.931757 0.572397 0.038130
C54   C     C_R   0.724949 0.521567 0.472140 0.262515
C55   C     C_R   0.303948 0.394613 0.546234 0.237486
C56   C     C_R   0.224952 0.021569 0.472141 0.262531
C57   C     C_R   0.803949 0.894623 0.546236 0.237515
C58   C     C_R   0.724667 0.500489 0.545347 -0.139308
C59   C     C_R   0.311058 0.377341 0.472992 -0.138489
C60   C     C_R   0.224672 0.000494 0.545348 -0.139329
C61   C     C_R   0.301478 0.464555 0.961946 -0.114445
C62   C     C_R   0.811057 0.877342 0.472992 -0.138588
C63   C     C_R   0.748916 0.389161 0.571463 0.069606
C64   C     C_R   0.254941 0.403923 0.426559 0.008017
C65   C     C_R   0.248922 0.889167 0.571465 0.069604
C66   C     C_R   0.754940 0.903922 0.426560 0.008026
C67   C     C_R   0.738910 0.366554 0.852094 0.546942
C68   C     C_R   0.262006 0.364561 0.147472 0.543848
C69   C     C_R   0.238910 0.866554 0.852094 0.546951
C70   C     C_R   0.762006 0.864561 0.147472 0.543847
C71   C     C_R   0.727024 0.956369 0.646970 0.583794
C72   C     C_R   0.217133 0.023833 0.029444 -0.098043
C73   C     C_R   0.273425 0.960496 0.354088 0.597195
C74   C     C_R   0.227025 0.456367 0.646971 0.583749
C75   C     C_R   0.773424 0.460495 0.354087 0.597205
C76   C     C_R   0.560473 0.180207 0.636971 0.600295
C77   C     C_R   0.470520 0.174759 0.354500 0.609998
C78   C     C_R   0.060476 0.680207 0.636971 0.600294
C79   C     C_R   0.970520 0.674759 0.354500 0.610004
C80   C     C_R   0.739113 0.358929 0.645439 0.560131
C81   C     C_R   0.261400 0.361275 0.353973 0.550211
C82   C     C_R   0.239114 0.858931 0.645440 0.560147
C83   C     C_R   0.801478 0.964555 0.961945 -0.114445
C84   C     C_R   0.761400 0.861274 0.353973 0.550224
C85   C     C_2   0.498066 0.170239 0.921473 -0.104295
C86   C     C_2   0.502669 0.169230 0.078930 -0.093747
C87   C     C_2   0.998066 0.670239 0.921473 -0.104295
C88   C     C_2   0.002669 0.669230 0.078930 -0.093746
C89   C     C_2   0.495396 0.068665 0.038621 -0.170179
C90   C     C_2   0.506665 0.069259 0.961220 -0.162872
C91   C     C_2   0.995396 0.568665 0.038621 -0.170179
C92   C     C_2   0.006665 0.569259 0.961220 -0.162872
C93   C     C_R   0.704830 0.497614 0.957703 0.256389
C94   C     C_R   0.778740 0.481882 0.062996 -0.016486
C95   C     C_R   0.309361 0.455835 0.035538 0.258830
C96   C     C_R   0.204830 0.997614 0.957704 0.256388
C97   C     C_R   0.809361 0.955835 0.035538 0.258829
C98   C     C_3   0.632793 0.658808 0.467003 -0.102599
C99   C     C_3   0.413945 0.442643 0.583445 -0.130012
C100  C     C_3   0.132791 0.158800 0.467004 -0.102603
C101  C     C_3   0.914027 0.942474 0.583323 -0.129898
C102  C     C_3   0.652334 0.633340 0.882943 -0.092757
C103  C     C_3   0.386750 0.599426 0.071281 -0.101249
C104  C     C_3   0.152333 0.133339 0.882943 -0.092755
Cr1   Cr    Cr6+3 0.769270 0.163730 0.750710 1.047840
Cr2   Cr    Cr6+3 0.385840 0.322500 0.252290 1.057288
Cr3   Cr    Cr6+3 0.114160 0.822500 0.747710 1.027744
Cr4   Cr    Cr6+3 0.885840 0.822500 0.252290 1.057280
Cr5   Cr    Cr6+3 0.230730 0.163730 0.249290 1.046946
Cr6   Cr    Cr6+3 0.269270 0.663730 0.750710 1.047702
Cr7   Cr    Cr6+3 0.730730 0.663730 0.249290 1.046945
Cr8   Cr    Cr6+3 0.612620 0.009790 0.748780 1.022354
Cr9   Cr    Cr6+3 0.387380 0.009790 0.251220 1.019644
Cr10  Cr    Cr6+3 0.112620 0.509790 0.748780 1.022378
Cr11  Cr    Cr6+3 0.887380 0.509790 0.251220 1.019645
Cr12  Cr    Cr6+3 0.614160 0.322500 0.747710 1.027736
H1    H     H_    0.480532 0.982978 0.062802 0.133873
H2    H     H_    0.359212 0.337194 0.452759 0.141999
H3    H     H_    0.204686 0.069231 0.581814 0.108298
H4    H     H_    0.859208 0.837187 0.452756 0.141937
H5    H     H_    0.522404 0.253213 0.056009 0.137433
H6    H     H_    0.477424 0.254090 0.944831 0.130811
H7    H     H_    0.022404 0.753213 0.056009 0.137433
H8    H     H_    0.977424 0.754090 0.944831 0.130812
H9    H     H_    0.677523 0.573984 0.059048 0.153821
H10   H     H_    0.345820 0.490504 0.929548 0.135496
H11   H     H_    0.177522 0.073983 0.059048 0.153821
H12   H     H_    0.522948 0.983893 0.936623 0.138007
H13   H     H_    0.845820 0.990504 0.929548 0.135501
H14   H     H_    0.878082 0.389891 0.047318 0.122928
H15   H     H_    0.128335 0.392874 0.950429 0.136140
H16   H     H_    0.378082 0.889891 0.047318 0.122928
H17   H     H_    0.628336 0.892874 0.950429 0.136140
H18   H     H_    0.860203 0.348740 0.924048 0.143517
H19   H     H_    0.140999 0.374172 0.076243 0.143001
H20   H     H_    0.360203 0.848741 0.924048 0.143515
H21   H     H_    0.640999 0.874172 0.076243 0.143000
H22   H     H_    0.632397 0.701655 0.520569 0.114273
H23   H     H_    0.980531 0.482978 0.062802 0.133873
H24   H     H_    0.598558 0.576977 0.466062 0.122308
H25   H     H_    0.609561 0.725766 0.429536 0.163558
H26   H     H_    0.397786 0.540125 0.588102 0.164055
H27   H     H_    0.441064 0.425176 0.532118 0.101567
H28   H     H_    0.451924 0.426585 0.626752 0.167847
H29   H     H_    0.132395 0.201652 0.520568 0.114274
H30   H     H_    0.098559 0.076964 0.466066 0.122302
H31   H     H_    0.109555 0.225752 0.429536 0.163554
H32   H     H_    0.897959 0.040039 0.587697 0.163665
H33   H     H_    0.941188 0.924527 0.532076 0.101618
H34   H     H_    0.022948 0.483893 0.936623 0.138008
H35   H     H_    0.951937 0.926650 0.626721 0.167904
H36   H     H_    0.667482 0.602475 0.828852 0.135129
H37   H     H_    0.692809 0.697087 0.903212 0.111094
H38   H     H_    0.602440 0.685469 0.878296 0.138429
H39   H     H_    0.437541 0.613199 0.098660 0.142802
H40   H     H_    0.345422 0.645414 0.103834 0.132078
H41   H     H_    0.390476 0.643133 0.018126 0.104580
H42   H     H_    0.167482 0.102476 0.828853 0.135129
H43   H     H_    0.192808 0.197088 0.903213 0.111092
H44   H     H_    0.102440 0.185468 0.878296 0.138433
H45   H     H_    0.800426 0.252668 0.417117 0.103371
H46   H     H_    0.937541 0.113199 0.098661 0.142802
H47   H     H_    0.845422 0.145411 0.103836 0.132077
H48   H     H_    0.890474 0.143135 0.018128 0.104581
H49   H     H_    0.572614 0.408802 0.567164 0.326777
H50   H     H_    0.614918 0.379287 0.416013 0.358137
H51   H     H_    0.072670 0.908754 0.567181 0.326788
H52   H     H_    0.114931 0.879264 0.416002 0.358151
H53   H     H_    0.432217 0.798181 0.422039 0.122108
H54   H     H_    0.496233 0.839782 0.487017 0.137966
H55   H     H_    0.508407 0.878661 0.393533 0.145965
H56   H     H_    0.133850 0.492326 0.546515 0.146123
H57   H     H_    0.373219 0.994456 0.649741 0.134763
H58   H     H_    0.363548 0.083191 0.570130 0.147458
H59   H     H_    0.412523 0.142124 0.645814 0.162098
H60   H     H_    0.932200 0.298191 0.422046 0.122119
H61   H     H_    0.996214 0.339787 0.487027 0.137969
H62   H     H_    0.008396 0.378659 0.393544 0.145953
H63   H     H_    0.873201 0.494513 0.649741 0.134763
H64   H     H_    0.863542 0.583240 0.570126 0.147441
H65   H     H_    0.912518 0.642170 0.645810 0.162104
H66   H     H_    0.817938 0.137258 0.511422 0.295710
H67   H     H_    0.300438 0.752674 0.417121 0.103381
H68   H     H_    0.151658 0.491886 0.360909 0.332672
H69   H     H_    0.317991 0.637291 0.511433 0.295714
H70   H     H_    0.651660 0.991890 0.360909 0.332666
H71   H     H_    0.633848 0.992317 0.546514 0.146121
H72   H     H_    0.704683 0.569228 0.581813 0.108301
O1    O     O_R   0.784320 0.290430 0.830510 -0.539719
O2    O     O_R   0.456080 0.282180 0.333210 -0.483984
O3    O     O_R   0.043920 0.782180 0.666790 -0.542723
O4    O     O_R   0.956080 0.782180 0.333210 -0.484005
O5    O     O_R   0.679040 0.374160 0.674430 -0.514143
O6    O     O_R   0.320960 0.374160 0.325570 -0.526945
O7    O     O_R   0.179040 0.874160 0.674430 -0.514167
O8    O     O_R   0.820960 0.874160 0.325570 -0.526944
O9    O     O_3   0.665350 0.165340 0.749070 -0.279189
O10   O     O_3   0.334650 0.165340 0.250930 -0.286661
O11   O     O_3   0.165350 0.665340 0.749070 -0.279163
O12   O     O_R   0.215680 0.290430 0.169490 -0.551597
O13   O     O_3   0.834650 0.665340 0.250930 -0.286659
O14   O     O_R   0.762640 0.040960 0.825200 -0.500598
O15   O     O_R   0.237360 0.040960 0.174800 -0.503545
O16   O     O_R   0.262640 0.540960 0.825200 -0.500600
O17   O     O_R   0.737360 0.540960 0.174800 -0.503546
O18   O     O_R   0.667400 0.923970 0.829950 -0.543031
O19   O     O_R   0.332600 0.923970 0.170050 -0.528910
O20   O     O_R   0.167400 0.423970 0.829950 -0.543027
O21   O     O_R   0.832600 0.423970 0.170050 -0.528913
O22   O     O_R   0.553960 0.081340 0.821780 -0.500189
O23   O     O_R   0.284320 0.790430 0.830510 -0.539720
O24   O     O_R   0.446040 0.081340 0.178220 -0.527374
O25   O     O_R   0.053960 0.581340 0.821780 -0.500187
O26   O     O_R   0.946040 0.581340 0.178220 -0.527373
O27   O     O_R   0.543180 0.283240 0.826740 -0.489582
O28   O     O_R   0.456820 0.283240 0.173260 -0.474073
O29   O     O_R   0.043180 0.783240 0.826740 -0.489569
O30   O     O_R   0.956820 0.783240 0.173260 -0.474071
O31   O     O_R   0.678360 0.375140 0.822710 -0.467726
O32   O     O_R   0.321640 0.375140 0.177290 -0.453170
O33   O     O_R   0.178360 0.875140 0.822710 -0.467720
O34   O     O_R   0.715680 0.790430 0.169490 -0.551597
O35   O     O_R   0.821640 0.875140 0.177290 -0.453172
O36   O     O_R   0.785050 0.289380 0.670560 -0.468848
O37   O     O_R   0.214950 0.289380 0.329440 -0.470224
O38   O     O_R   0.285050 0.789380 0.670560 -0.468904
O39   O     O_R   0.714950 0.789380 0.329440 -0.470224
O40   O     O_R   0.763320 0.039990 0.676930 -0.443065
O41   O     O_R   0.236680 0.039990 0.323070 -0.447477
O42   O     O_R   0.263320 0.539990 0.676930 -0.443223
O43   O     O_R   0.736680 0.539990 0.323070 -0.447478
O44   O     O_R   0.668130 0.922920 0.670000 -0.548646
O45   O     O_R   0.554640 0.080370 0.673500 -0.462786
O46   O     O_R   0.331870 0.922920 0.330000 -0.506812
O47   O     O_R   0.168130 0.422920 0.670000 -0.548613
O48   O     O_R   0.831870 0.422920 0.330000 -0.506813
O49   O     O_3   0.702154 0.632707 0.445022 -0.538766
O50   O     O_3   0.357049 0.363003 0.592902 -0.589066
O51   O     O_3   0.202153 0.132706 0.445022 -0.538763
O52   O     O_3   0.857050 0.863056 0.592918 -0.588990
O53   O     O_3   0.641458 0.532378 0.928129 -0.554797
O54   O     O_3   0.374800 0.472704 0.065243 -0.543409
O55   O     O_3   0.141458 0.032377 0.928129 -0.554796
O56   O     O_R   0.445360 0.080370 0.326500 -0.476846
O57   O     O_3   0.874800 0.972704 0.065243 -0.543409
O58   O     O_3   0.604736 0.356020 0.539047 -0.736475
O59   O     O_3   0.578891 0.327458 0.393843 -0.679565
O60   O     O_3   0.104770 0.855982 0.539033 -0.736507
O61   O     O_3   0.078907 0.827427 0.393833 -0.679560
O62   O     O_3   0.432440 0.981147 0.447460 -0.532214
O63   O     O_3   0.461626 0.002073 0.587944 -0.536328
O64   O     O_3   0.932430 0.481159 0.447465 -0.532210
O65   O     O_3   0.961612 0.502100 0.587949 -0.536301
O66   O     O_3   0.798454 0.186883 0.551032 -0.684532
O67   O     O_R   0.054640 0.580370 0.673500 -0.462761
O68   O     O_3   0.135450 0.483110 0.410568 -0.740732
O69   O     O_3   0.298473 0.686895 0.551034 -0.684646
O70   O     O_3   0.635450 0.983112 0.410567 -0.740749
O71   O     O_R   0.945360 0.580370 0.326500 -0.476841
O72   O     O_R   0.543920 0.282180 0.666790 -0.542685

loop_
_geom_bond_atom_site_label_1
_geom_bond_atom_site_label_2
_ccdc_geom_bond_type
Cr8   O18   S    
C25   C31   A    
Cr2   O32   S    
C101  H32   S    
C16   C21   A    
C4    H55   S    
C55   C59   A    
C77   O56   A    
Cr7   O43   S    
C5    H58   S    
C5    O63   S    
C56   O51   S    
Cr6   O23   S    
C90   H12   S    
C24   C27   A    
C74   O42   A    
Cr5   O12   S    
Cr7   O13   S    
C73   O41   A    
Cr5   O10   S    
C34   O64   S    
C57   C62   A    
Cr2   O6    S    
C98   O49   S    
C48   O30   A    
H52   O61   S    
C82   O38   A    
C59   C64   A    
Cr10  O20   S    
C4    H54   S    
C13   C18   A    
C98   H22   S    
C77   O2    A    
C23   C29   A    
C99   H27   S    
C68   O32   A    
H70   O70   S    
C44   H71   S    
C83   H13   S    
C41   H45   S    
Cr12  O27   S    
C104  O55   S    
C97   O57   S    
C87   H8    S    
C43   C52   A    
C15   H19   S    
C10   C94   A    
C100  H31   S    
H51   O60   S    
C29   C33   A    
C103  O54   S    
C60   H3    S    
C39   O21   A    
C100  O51   S    
Cr6   O16   S    
C34   C35   A    
C71   O40   A    
Cr1   O40   S    
C41   C49   A    
C37   C42   A    
C33   O63   S    
C9    C13   A    
Cr6   O42   S    
C3    H46   S    
C70   O34   A    
C81   O6    A    
Cr3   O29   S    
C99   O50   S    
Cr5   O41   S    
C44   C53   A    
C74   O47   A    
C12   C16   A    
C100  H30   S    
C23   C24   A    
C48   C88   S    
C19   C67   S    
C76   O45   A    
C69   O23   A    
C85   H6    S    
C8    C12   A    
Cr4   O8    S    
C36   C63   A    
C49   C54   A    
C102  H38   S    
C62   H4    S    
C68   O12   A    
C19   C93   A    
C2    C61   A    
C3    H47   S    
C42   C51   A    
Cr2   O10   S    
Cr4   O30   S    
Cr9   O56   S    
Cr1   O9    S    
Cr6   O11   S    
C22   C97   A    
C40   C66   A    
C87   C92   D    
C6    H62   S    
C101  O52   S    
C5    H59   S    
Cr10  O25   S    
C36   C41   A    
C15   C20   A    
C11   C15   A    
C104  H44   S    
C88   H7    S    
C1    O14   A    
Cr3   O7    S    
Cr11  O48   S    
C63   C80   S    
Cr9   O46   S    
C48   O26   A    
C8    C72   A    
Cr12  O5    S    
C4    H53   S    
C30   C34   A    
C72   H11   S    
C58   H72   S    
C28   O16   A    
Cr1   O1    S    
C99   H28   S    
C17   O19   A    
C62   C66   A    
C1    C9    S    
Cr9   O24   S    
C52   C73   S    
Cr6   O38   S    
Cr1   O14   S    
C91   C92   S    
C50   H9    S    
Cr4   O35   S    
Cr11  O21   S    
C103  H41   S    
C14   H18   S    
C25   C26   A    
C101  H35   S    
C36   O66   S    
C56   C60   A    
Cr11  O26   S    
C21   C69   S    
Cr7   O34   S    
Cr8   O22   S    
C18   H21   S    
C45   C85   S    
C10   H14   S    
C96   O55   S    
Cr4   O13   S    
Cr10  O67   S    
C26   O61   S    
C7    H65   S    
C80   O36   A    
C80   O5    A    
C38   C65   A    
Cr5   O15   S    
C100  H29   S    
C71   O44   A    
C37   O68   S    
C86   H5    S    
C49   C75   S    
C70   O35   A    
C82   O7    A    
C7    H63   S    
C75   O48   A    
C102  O53   S    
Cr12  O31   S    
C75   O43   A    
C1    O18   A    
H66   O66   S    
C102  H37   S    
C73   O46   A    
C61   H10   S    
C81   O37   A    
C3    H48   S    
C9    C83   A    
C91   H23   S    
C30   C79   S    
H68   O68   S    
H69   O69   S    
C20   C95   A    
C89   H1    S    
C60   C65   A    
C26   C30   A    
C39   C94   S    
C46   O28   A    
C79   O4    A    
C6    H61   S    
C92   H34   S    
C28   O20   A    
C31   C35   A    
C76   O72   A    
Cr5   O37   S    
C32   O62   S    
H50   O59   S    
C104  H43   S    
Cr3   O3    S    
C16   H20   S    
C38   O69   S    
Cr9   O19   S    
Cr8   O9    S    
C37   C64   A    
C47   C87   S    
C31   C78   S    
C102  H36   S    
C54   C58   A    
Cr9   O10   S    
C103  H39   S    
C58   C63   A    
Cr7   O17   S    
C40   O70   S    
C12   H16   S    
C17   O15   A    
C27   C32   A    
C18   C22   A    
C5    H57   S    
C14   C19   A    
C20   C68   S    
C50   C94   A    
H49   O58   S    
C42   H56   S    
C54   O49   S    
C104  H42   S    
C27   C77   S    
C86   C89   D    
Cr12  O72   S    
C2    C28   S    
C85   C90   D    
C61   C95   A    
C50   C93   A    
Cr10  O47   S    
C21   C96   A    
C59   H2    S    
Cr1   O36   S    
Cr2   O28   S    
C45   O22   A    
Cr8   O44   S    
C6    O64   S    
Cr10  O11   S    
Cr7   O39   S    
C32   C33   A    
C4    O62   S    
C23   O58   S    
C67   O31   A    
C78   O3    A    
C11   H15   S    
C38   C43   A    
C98   H25   S    
C78   O67   A    
Cr11  O71   S    
C8    C17   S    
Cr3   O11   S    
Cr12  O9    S    
C65   C82   S    
C88   C91   D    
C6    H60   S    
C84   O8    A    
C93   O53   S    
C46   O24   A    
Cr11  O13   S    
C43   H67   S    
C45   O27   A    
C53   C57   A    
C7    H64   S    
C47   O25   A    
C51   C55   A    
C101  H33   S    
C55   O50   S    
C13   H17   S    
C64   C81   S    
C47   O29   A    
C57   O52   S    
C95   O54   S    
C99   H26   S    
C66   C84   S    
C72   C96   A    
C25   O60   S    
C52   C56   A    
C103  H40   S    
C40   C44   A    
C29   C76   S    
C83   C97   A    
C98   H24   S    
C67   O1    A    
C35   O65   S    
C51   C74   S    
Cr2   O2    S    
Cr4   O4    S    
C24   O59   S    
C2    C11   A    
C3    O57   S    
C69   O33   A    
C46   C86   S    
C89   C90   S    
C39   O17   A    
C84   O39   A    
C22   C70   S    
C7    O65   S    
Cr8   O45   S    
C10   C14   A    
C79   O71   A    
Cr3   O33   S    
C53   C71   S    
