data_mof_unit_36241.cif
_audit_creation_date              2013-03-05T15:54:29-0500
_audit_creation_method            fapswitch 2.2
_symmetry_space_group_name_H-M    P1
_symmetry_Int_Tables_number       1
_space_group_crystal_system       triclinic
_cell_length_a                    7.002487
_cell_length_b                    15.140347
_cell_length_c                    16.622733
_cell_angle_alpha                 95.197754
_cell_angle_beta                  90.520942
_cell_angle_gamma                 90.223022
_cell_volume                      1755.00446466

loop_
_atom_site_label
_atom_site_type_symbol
_atom_site_description
_atom_site_fract_x
_atom_site_fract_y
_atom_site_fract_z
_atom_type_partial_charge
O1    O     O_R   0.633330 0.174290 0.828230 -0.586349
O2    O     O_R   0.366670 0.825710 0.171770 -0.573125
O3    O     O_R   0.301450 0.154140 0.662030 -0.601899
O4    O     O_R   0.698550 0.845860 0.337970 -0.601624
O5    O     O_R   0.133140 0.325730 0.671770 -0.590360
O6    O     O_R   0.866860 0.674270 0.328230 -0.590386
C1    C     C_R   0.471142 0.130192 0.634716 0.983388
C2    C     C_R   0.528858 0.869796 0.365295 0.981316
O7    O     O_R   0.303490 0.163670 0.827000 -0.563673
O8    O     O_R   0.696510 0.836330 0.173000 -0.565971
O9    O     O_R   0.135190 0.335320 0.837920 -0.541871
O10   O     O_R   0.864810 0.664680 0.162080 -0.543030
C3    C     C_R   0.472666 0.143429 0.853903 1.032981
C4    C     C_R   0.527338 0.856544 0.146075 1.069969
O11   O     O_R   0.631280 0.164690 0.662080 -0.582905
O12   O     O_R   0.368720 0.835310 0.337920 -0.582415
O13   O     O_3   0.467420 0.306310 0.753380 -0.252531
O14   O     O_3   0.532580 0.693690 0.246620 -0.271590
V1    V     V_3+5 0.191790 0.239560 0.749370 1.271619
V2    V     V_3+5 0.808210 0.760440 0.250630 1.270875
O15   O     O_R   0.805590 0.345870 0.837970 -0.606077
O16   O     O_R   0.194410 0.654130 0.162030 -0.611978
C5    C     C_R   0.976597 0.368253 0.866253 1.029286
C6    C     C_R   0.023472 0.632325 0.133303 1.037145
O17   O     O_R   0.803560 0.336340 0.672990 -0.593122
O18   O     O_R   0.196440 0.663660 0.327010 -0.601495
C7    C     C_R   0.972126 0.356824 0.646240 0.983324
C8    C     C_R   0.027876 0.643185 0.353767 0.977392
V3    V     V_3+5 0.692030 0.260450 0.750630 1.248828
V4    V     V_3+5 0.307970 0.739550 0.249370 1.242791
O19   O     O_3   0.966260 0.193700 0.746610 -0.255608
O20   O     O_3   0.033740 0.806300 0.253390 -0.253170
C9    C     C_1   0.982385 0.419188 0.584032 -0.261451
C10   C     C_1   0.017624 0.580840 0.415993 -0.266118
C11   C     C_1   0.993316 0.470302 0.531336 0.003066
C12   C     C_1   0.006700 0.529736 0.468698 0.001709
C13   C     C_3   0.909696 0.573644 0.979092 -0.090568
C14   C     C_3   0.090829 0.428071 0.019756 -0.107530
C15   C     C_3   0.085693 0.531986 0.935805 -0.084264
C16   C     C_3   0.914233 0.469534 0.062861 -0.113449
C17   C     C_3   0.994687 0.438431 0.936544 -0.146134
C18   C     C_3   0.005468 0.563021 0.062313 -0.149951
C19   C     C_3   0.819191 0.480130 0.979760 -0.142871
C20   C     C_3   0.180965 0.521619 0.018909 -0.140562
C21   C     C_3   0.617119 0.975964 0.558555 -0.163307
C22   C     C_3   0.382874 0.024014 0.441466 -0.162275
C23   C     C_3   0.449475 0.919539 0.520841 0.003839
C24   C     C_3   0.550516 0.080437 0.479179 0.003353
C25   C     C_3   0.513187 0.940838 0.435715 -0.159109
C26   C     C_3   0.486808 0.059140 0.564305 -0.159772
C27   C     C_3   0.680826 0.997256 0.473066 -0.115300
C28   C     C_3   0.319168 0.002723 0.526956 -0.115384
C29   C     C_1   0.483360 0.081388 0.916373 -0.225719
C30   C     C_1   0.516646 0.918556 0.083584 -0.224763
C31   C     C_1   0.493664 0.030073 0.968948 0.089818
C32   C     C_1   0.506343 0.969857 0.030998 0.092927
C33   C     C_2   0.179589 0.569960 0.865838 0.586543
H1    H     H_    0.242224 0.635820 0.873908 0.040292
O21   O     O_2   0.185391 0.527703 0.799843 -0.587821
C34   C     C_2   0.815602 0.431802 0.131801 0.431101
H2    H     H_    0.754469 0.365658 0.123304 0.025028
O22   O     O_2   0.803440 0.474684 0.197292 -0.591739
C35   C     C_2   0.811646 0.654124 0.952765 0.592975
H3    H     H_    0.744116 0.651271 0.893609 0.038328
O23   O     O_2   0.808116 0.722940 0.996967 -0.581341
C36   C     C_2   0.194523 0.348987 0.045903 0.439093
H4    H     H_    0.259918 0.352320 0.105499 0.018366
O24   O     O_2   0.206012 0.280980 0.000950 -0.588280
C37   C     C_2   0.625477 0.449086 0.951588 0.555828
H5    H     H_    0.555186 0.396386 0.980192 -0.036922
O25   O     O_2   0.551728 0.478563 0.892916 -0.560438
C38   C     C_2   0.374158 0.552561 0.047864 0.566192
H6    H     H_    0.451010 0.516761 0.091501 -0.020341
O26   O     O_2   0.439367 0.621812 0.027373 -0.582091
C39   C     C_R   0.410724 0.824745 0.538436 0.110664
C40   C     C_R   0.561337 0.763250 0.533835 -0.201095
C41   C     C_R   0.531642 0.676416 0.553264 -0.084740
C42   C     C_R   0.350849 0.649750 0.576486 -0.051974
C43   C     C_R   0.198368 0.709118 0.577799 -0.137271
C44   C     C_R   0.227291 0.795719 0.557454 -0.070748
H7    H     H_    0.702234 0.782544 0.515375 0.079497
H8    H     H_    0.648966 0.629927 0.550559 0.117431
H9    H     H_    0.328350 0.582708 0.592213 0.133927
H10   H     H_    0.057054 0.687771 0.593774 0.122565
H11   H     H_    0.105737 0.838794 0.555609 0.101165
C45   C     C_R   0.589223 0.175242 0.461611 0.110196
C46   C     C_R   0.438598 0.236732 0.466280 -0.199960
C47   C     C_R   0.468262 0.323595 0.446929 -0.086310
C48   C     C_R   0.649029 0.350290 0.423704 -0.056542
C49   C     C_R   0.801515 0.290919 0.422306 -0.135916
C50   C     C_R   0.772628 0.204290 0.442580 -0.072126
H12   H     H_    0.297721 0.217414 0.484745 0.078854
H13   H     H_    0.350936 0.370083 0.449698 0.116151
H14   H     H_    0.671501 0.417357 0.408039 0.131445
H15   H     H_    0.942809 0.312286 0.406324 0.121678
H16   H     H_    0.894190 0.161212 0.444364 0.101394
C51   C     C_2   0.730941 0.946031 0.627663 0.622007
H17   H     H_    0.817038 0.886837 0.618982 -0.005068
O27   O     O_2   0.724339 0.986391 0.694503 -0.548913
C52   C     C_2   0.269051 0.053957 0.372364 0.620129
H18   H     H_    0.182979 0.113159 0.381050 -0.004514
O28   O     O_2   0.275627 0.013598 0.305522 -0.551645
C53   C     C_2   0.862299 0.985394 0.427354 0.471013
H19   H     H_    0.970674 0.940587 0.445961 -0.031880
O29   O     O_2   0.875082 0.015212 0.361827 -0.554857
C54   C     C_2   0.137697 0.014592 0.572668 0.471206
H20   H     H_    0.029326 0.059400 0.554059 -0.032540
O30   O     O_2   0.124912 0.984778 0.638197 -0.553921

loop_
_geom_bond_atom_site_label_1
_geom_bond_atom_site_label_2
_geom_bond_distance
_ccdc_geom_bond_type
C36   O24   1.219566 D    
C31   C32   1.439537 S    
C35   O23   1.219777 D    
C16   C34   1.498847 S    
C6    C18   1.510396 S    
C11   C12   1.439978 S    
O4    C2    1.316417 A    
V1    O19   1.721244 S    
C51   H17   1.081599 S    
C49   C50   1.397869 A    
C49   H15   1.082599 S    
C23   C25   1.548679 S    
C41   C42   1.395673 A    
C7    C9    1.464150 S    
C22   C25   1.554486 S    
O9    V1    2.013492 S    
C41   H8    1.082510 S    
O16   C6    1.314446 A    
C14   C16   1.541865 S    
O3    C1    1.316407 A    
C45   C50   1.403956 A    
C43   H10   1.082601 S    
C9    C11   1.222958 T    
C33   O21   1.219949 D    
C54   H20   1.081468 S    
C21   C27   1.554283 S    
C27   C53   1.489655 S    
C15   C33   1.499210 S    
C22   C28   1.554275 S    
C13   C18   1.553580 S    
O13   V3    1.721059 S    
C34   O22   1.219817 D    
C21   C23   1.543598 S    
C48   H14   1.082153 S    
C37   O25   1.220073 D    
O7    C3    1.309703 A    
C51   O27   1.219899 D    
C50   H16   1.076220 S    
O5    C7    1.305605 A    
C42   H9    1.082161 S    
O7    V1    1.963286 S    
C24   C27   1.554511 S    
O6    C8    1.305608 A    
C14   C36   1.498387 S    
O8    V2    1.963284 S    
C25   C27   1.541430 S    
C26   C28   1.541410 S    
O3    V1    2.014414 S    
O14   V4    1.721057 S    
C39   C44   1.403970 A    
C10   C12   1.222963 T    
C24   C26   1.548655 S    
C36   H4    1.084507 S    
C28   C54   1.489661 S    
C2    O12   1.296250 A    
C46   H12   1.082797 S    
C17   C19   1.537770 S    
C18   C20   1.537494 S    
O1    V3    1.960845 S    
C13   C35   1.498446 S    
O11   V3    2.011658 S    
C3    C29   1.463603 S    
C29   C31   1.222663 T    
O17   V3    1.968701 S    
C13   C15   1.540901 S    
C22   C24   1.543572 S    
C40   C41   1.397136 A    
C14   C17   1.553804 S    
C38   O26   1.219697 D    
O8    C4    1.309698 A    
C42   C43   1.397435 A    
C1    O11   1.296258 A    
O15   V3    2.010856 S    
C35   H3    1.084483 S    
C34   H2    1.084458 S    
C13   C19   1.549958 S    
C39   C40   1.407569 A    
C14   C20   1.549653 S    
C44   H11   1.076221 S    
C16   C18   1.551477 S    
O10   V2    2.013493 S    
C52   O28   1.219901 D    
C53   O29   1.220166 D    
C15   C20   1.549645 S    
C4    C30   1.463571 S    
O18   V4    1.968702 S    
O15   C5    1.314364 A    
C24   C45   1.514399 S    
O1    C3    1.306497 A    
V2    O20   1.721243 S    
C22   C52   1.496920 S    
C47   H13   1.082509 S    
O16   V4    2.010856 S    
C45   C46   1.407576 A    
C1    C26   1.521283 S    
C38   H6    1.084423 S    
C40   H7    1.082790 S    
C30   C32   1.222656 T    
C23   C28   1.554523 S    
O5    V1    1.958090 S    
O17   C7    1.311059 A    
O6    V2    1.958093 S    
O10   C6    1.294071 A    
O18   C8    1.311060 A    
C5    C17   1.510481 S    
O2    V4    1.960845 S    
C16   C19   1.549553 S    
C23   C39   1.514428 S    
V3    O19   2.172220 S    
C21   C51   1.496927 S    
V4    O20   2.172220 S    
C33   H1    1.084421 S    
C54   O30   1.220166 D    
C21   C26   1.554466 S    
O9    C5    1.294226 A    
C52   H18   1.081601 S    
O13   V1    2.172862 S    
C20   C38   1.491191 S    
O14   V2    2.172862 S    
C37   H5    1.083945 S    
O2    C4    1.306494 A    
C8    C10   1.464164 S    
C43   C44   1.397875 A    
O4    V2    2.014413 S    
C47   C48   1.395659 A    
C15   C17   1.552061 S    
C46   C47   1.397117 A    
C19   C37   1.491256 S    
C53   H19   1.081466 S    
C48   C49   1.397444 A    
O12   V4    2.011658 S    
C2    C25   1.521285 S    
