data_mof_unit_20237.cif
_audit_creation_date              2012-12-10T16:54:54-0500
_audit_creation_method            fapswitch 2.2
_symmetry_space_group_name_H-M    P1
_symmetry_Int_Tables_number       1
_space_group_crystal_system       triclinic
_cell_length_a                    7.773373
_cell_length_b                    8.574525
_cell_length_c                    15.728453
_cell_angle_alpha                 90.853253
_cell_angle_beta                  85.77911
_cell_angle_gamma                 93.6517
_cell_volume                      1043.32729214

loop_
_atom_site_label
_atom_site_type_symbol
_atom_type_description
_atom_site_fract_x
_atom_site_fract_y
_atom_site_fract_z
_atom_type_partial_charge
C1    C     C_R   0.545777 0.794725 0.497768 0.961887
C2    C     C_3   0.359328 0.609623 0.052868 0.261806
C3    C     C_3   0.499870 0.504014 0.082663 -0.048562
C4    C     C_3   0.458707 0.334014 0.048971 0.161763
C5    C     C_3   0.454905 0.335241 0.950854 -0.433964
C6    C     C_1   0.495463 0.503020 0.174487 0.080824
C7    C     C_1   0.506642 0.500627 0.825538 -0.025725
C8    C     C_1   0.505914 0.500080 0.750256 -0.167005
C9    C     C_2   0.569862 0.958219 0.496450 -0.356575
C10   C     C_2   0.430126 0.041773 0.503324 -0.356118
C11   C     C_R   0.501907 0.499995 0.661565 0.891699
C12   C     C_R   0.454218 0.205272 0.502145 0.965704
C13   C     C_R   0.498124 0.500086 0.338449 0.904967
C14   C     C_3   0.371349 0.615516 0.954498 -0.411008
C15   C     C_3   0.686014 0.556029 0.944761 -0.369791
C16   C     C_3   0.684693 0.563747 0.043537 0.671008
C17   C     C_1   0.494702 0.501714 0.249793 -0.060614
C18   C     C_3   0.504800 0.501741 0.917019 0.075716
H1    H     H_    0.241735 0.583239 0.931277 0.190430
H2    H     H_    0.229213 0.557920 0.074767 0.216836
H3    H     H_    0.560744 0.257228 0.065804 0.210701
H4    H     H_    0.701831 0.009293 0.489885 0.184850
H5    H     H_    0.298156 0.990699 0.509872 0.183249
H6    H     H_    0.013438 0.381941 0.436551 0.209733
H7    H     H_    0.986563 0.618075 0.563438 0.192230
H8    H     H_    0.409962 0.736064 0.932012 0.228197
H9    H     H_    0.782026 0.474443 0.917587 0.186129
H10   H     H_    0.726250 0.672775 0.917158 0.209729
H11   H     H_    0.324254 0.296074 0.931202 0.239524
H12   H     H_    0.546853 0.251383 0.922137 0.189825
N1    N     N_2   0.950340 0.457950 0.477370 -0.163324
N2    N     N_2   0.049660 0.542050 0.522630 -0.171500
O1    O     O_R   0.389240 0.738570 0.505550 -0.612630
O2    O     O_R   0.678400 0.711630 0.491050 -0.627714
O3    O     O_R   0.355360 0.513470 0.630110 -0.613193
O4    O     O_R   0.644510 0.486530 0.615610 -0.625717
O5    O     O_R   0.321600 0.288370 0.508950 -0.629806
O6    O     O_R   0.610760 0.261430 0.494450 -0.612355
O7    O     O_R   0.355490 0.513470 0.384390 -0.607981
O8    O     O_R   0.644640 0.486530 0.369890 -0.595364
Zn1   Zn    Zn3+2 0.306930 0.517990 0.509680 0.971032
Zn2   Zn    Zn3+2 0.693070 0.482010 0.490320 0.978070
Cl1   Cl    Cl    0.368160 0.803473 0.098077 -0.487987
O9    O     O_3   0.725075 0.719644 0.067992 -0.675974
H13   H     H_    0.746521 0.720443 0.129412 0.377678
Cl2   Cl    Cl    0.851543 0.445906 0.077124 -0.611915
Cl3   Cl    Cl    0.259939 0.244489 0.096720 -0.478769

loop_
_geom_bond_atom_site_label_1
_geom_bond_atom_site_label_2
_ccdc_geom_bond_type
C15   C18   S    
N2    Zn1   S    
N1    Zn2   S    
C10   H5    S    
C9    C10   D    
C16   O9    S    
O4    Zn2   S    
N1    N2    D    
O2    Zn2   S    
C13   C17   S    
C2    Cl1   S    
C3    C6    S    
O1    Zn1   S    
C7    C18   S    
H7    N2    S    
O8    Zn2   S    
C2    C3    S    
H6    N1    S    
C1    O1    A    
C7    C8    T    
O7    Zn1   S    
C14   H8    S    
C12   O6    A    
C4    H3    S    
C15   H10   S    
C10   C12   S    
C8    C11   S    
C2    C14   S    
C11   O3    A    
C11   O4    A    
C1    O2    A    
O6    Zn2   S    
C5    H11   S    
O5    Zn1   S    
O3    Zn1   S    
C9    H4    S    
C13   O7    A    
C2    H2    S    
C3    C4    S    
C1    C9    S    
O9    H13   S    
C5    H12   S    
C16   Cl2   S    
C12   O5    A    
C6    C17   T    
C14   C18   S    
C13   O8    A    
C5    C18   S    
C15   H9    S    
C14   H1    S    
C3    C16   S    
C15   C16   S    
C4    C5    S    
C4    Cl3   S    
