data_mof_unit_65333.cif
_audit_creation_date              2012-12-10T20:20:45-0500
_audit_creation_method            fapswitch 2.2
_symmetry_space_group_name_H-M    P1
_symmetry_Int_Tables_number       1
_space_group_crystal_system       triclinic
_cell_length_a                    41.164831
_cell_length_b                    35.509878
_cell_length_c                    21.35104
_cell_angle_alpha                 90.000086
_cell_angle_beta                  59.668574
_cell_angle_gamma                 89.999983
_cell_volume                      26937.9829703

loop_
_atom_site_label
_atom_site_type_symbol
_atom_type_description
_atom_site_fract_x
_atom_site_fract_y
_atom_site_fract_z
_atom_type_partial_charge
C1    C     C_R   0.926636 0.500015 0.073808 1.016813
C2    C     C_R   0.073364 0.500015 0.926191 1.016816
C3    C     C_R   0.426636 0.000015 0.073810 1.016828
C4    C     C_R   0.573364 0.000015 0.926191 1.016814
C5    C     C_3   0.998631 0.499821 0.190484 -0.067262
C6    C     C_3   0.001360 0.499822 0.809524 -0.067291
C7    C     C_3   0.498639 0.999822 0.190476 -0.067282
C8    C     C_3   0.501368 0.999821 0.809516 -0.067281
C9    C     C_R   0.673715 0.498475 0.273084 -0.163007
C10   C     C_R   0.326285 0.498484 0.726916 -0.163008
C11   C     C_R   0.173715 0.998487 0.273085 -0.163008
C12   C     C_R   0.826285 0.998475 0.726916 -0.163006
C13   C     C_R   0.634559 0.499064 0.310910 -0.197036
C14   C     C_R   0.365441 0.499069 0.689090 -0.197040
C15   C     C_R   0.134559 0.999070 0.310910 -0.197041
C16   C     C_R   0.865441 0.999064 0.689090 -0.197037
C17   C     C_R   0.614585 0.499321 0.387143 -0.039895
C18   C     C_R   0.385415 0.499324 0.612857 -0.039892
C19   C     C_R   0.114585 0.999325 0.387143 -0.039892
C20   C     C_R   0.885415 0.999321 0.612857 -0.039894
C21   C     C_R   0.634371 0.498937 0.424886 -0.196770
C22   C     C_R   0.365629 0.498941 0.575114 -0.196771
C23   C     C_R   0.134371 0.998942 0.424886 -0.196772
C24   C     C_R   0.865629 0.998936 0.575114 -0.196770
C25   C     C_R   0.673528 0.498345 0.386897 -0.161807
C26   C     C_R   0.326472 0.498353 0.613103 -0.161813
C27   C     C_R   0.173527 0.998355 0.386898 -0.161815
C28   C     C_R   0.826472 0.998344 0.613103 -0.161807
C29   C     C_R   0.693063 0.498121 0.311166 0.160623
C30   C     C_R   0.306937 0.498131 0.688834 0.160623
C31   C     C_R   0.193063 0.998134 0.311167 0.160623
C32   C     C_R   0.806937 0.998120 0.688834 0.160623
C33   C     C_1   0.733069 0.497998 0.272293 -0.074678
C34   C     C_1   0.266931 0.498011 0.727706 -0.074685
C35   C     C_1   0.233069 0.998014 0.272295 -0.074686
C36   C     C_1   0.766931 0.997998 0.727707 -0.074679
C37   C     C_1   0.766699 0.498217 0.238947 -0.039588
C38   C     C_1   0.233301 0.498229 0.761052 -0.039591
C39   C     C_1   0.266699 0.998232 0.238950 -0.039592
C40   C     C_1   0.733301 0.998216 0.761053 -0.039587
C41   C     C_R   0.824769 0.521430 0.136794 -0.250101
C42   C     C_R   0.175229 0.521464 0.863167 -0.250084
C43   C     C_R   0.324772 0.021466 0.136834 -0.250083
C44   C     C_R   0.675231 0.021430 0.863205 -0.250102
C45   C     C_R   0.999622 0.499956 0.122109 1.010047
C46   C     C_R   0.000373 0.499956 0.877895 1.010093
C47   C     C_R   0.499627 0.999956 0.122105 1.010087
C48   C     C_R   0.500377 0.999956 0.877891 1.010053
C49   C     C_R   0.863977 0.521971 0.094748 -0.032532
C50   C     C_R   0.136021 0.522001 0.905216 -0.032583
C51   C     C_R   0.363979 0.022002 0.094785 -0.032584
C52   C     C_R   0.636023 0.021972 0.905251 -0.032530
C53   C     C_R   0.885387 0.500026 0.116962 -0.071542
C54   C     C_R   0.114613 0.500026 0.883038 -0.071535
C55   C     C_R   0.385386 0.000026 0.116962 -0.071534
C56   C     C_R   0.614613 0.000026 0.883038 -0.071543
C57   C     C_R   0.866503 0.477928 0.181376 -0.045463
C58   C     C_R   0.133500 0.477900 0.818659 -0.045319
C59   C     C_R   0.366499 0.977900 0.181341 -0.045306
C60   C     C_R   0.633497 0.977927 0.818624 -0.045457
C61   C     C_R   0.827211 0.477151 0.220283 -0.251607
C62   C     C_R   0.172792 0.477130 0.779752 -0.251652
C63   C     C_R   0.327208 0.977131 0.220249 -0.251656
C64   C     C_R   0.672789 0.977149 0.779718 -0.251609
C65   C     C_R   0.806706 0.498899 0.198267 0.165487
C66   C     C_R   0.193294 0.498909 0.801731 0.165482
C67   C     C_R   0.306706 0.998911 0.198271 0.165483
C68   C     C_R   0.693294 0.998899 0.801733 0.165486
C69   C     C_R   1.000000 0.573396 0.499999 0.971997
C70   C     C_R   0.500000 0.073396 0.500001 0.972017
C71   C     C_R   0.999688 0.500224 0.378739 1.028040
C72   C     C_R   0.000312 0.500222 0.621260 1.028124
C73   C     C_R   0.499688 0.000222 0.378739 1.028111
C74   C     C_R   0.500312 0.000223 0.621261 1.028020
C75   C     C_R   1.000000 0.426689 0.499998 1.026974
C76   C     C_R   0.500000 0.926689 0.500003 1.026928
C77   C     C_R   0.500000 0.573264 0.500000 0.870951
C78   C     C_R   1.000000 0.073264 0.500000 0.870950
C79   C     C_R   0.573350 0.499793 0.427139 0.870620
C80   C     C_R   0.426650 0.499793 0.572861 0.870618
C81   C     C_R   0.073350 0.999793 0.427139 0.870620
C82   C     C_R   0.926650 0.999793 0.572861 0.870617
C83   C     C_3   0.970050 0.520992 0.258960 -0.061547
C84   C     C_3   0.030007 0.520905 0.740987 -0.061552
C85   C     C_3   0.469985 0.020896 0.259021 -0.061545
C86   C     C_3   0.529948 0.020993 0.741042 -0.061553
C87   C     C_R   0.500000 0.426564 0.500000 0.870428
C88   C     C_R   0.000000 0.926564 0.500000 0.870428
C89   C     C_R   0.499979 0.326244 0.556838 -0.162231
C90   C     C_R   0.500020 0.326244 0.443163 -0.162228
C91   C     C_R   0.999979 0.826244 0.556837 -0.162228
C92   C     C_R   0.000021 0.826244 0.443162 -0.162230
C93   C     C_R   0.499979 0.365423 0.556919 -0.197194
C94   C     C_R   0.500020 0.365423 0.443081 -0.197196
C95   C     C_R   0.999980 0.865423 0.556919 -0.197196
C96   C     C_R   0.000021 0.865423 0.443080 -0.197193
C97   C     C_R   0.500000 0.385312 0.500000 -0.039828
C98   C     C_R   0.000000 0.885312 0.500000 -0.039829
C99   C     C_R   0.499999 0.306796 0.500001 0.159080
C100  C     C_R   0.000000 0.806796 0.499999 0.159080
C101  C     C_1   0.499999 0.266777 0.500001 -0.066626
C102  C     C_1   0.000000 0.766777 0.499999 -0.066626
C103  C     C_1   0.000000 0.733131 0.499998 -0.058532
C104  C     C_1   0.499999 0.233131 0.500002 -0.058533
C105  C     C_R   0.965868 0.673665 0.534830 -0.163651
C106  C     C_R   0.034132 0.673665 0.465166 -0.163700
C107  C     C_R   0.465868 0.173665 0.534833 -0.163703
C108  C     C_R   0.534131 0.173665 0.465171 -0.163647
C109  C     C_R   0.965822 0.634489 0.534872 -0.156331
C110  C     C_R   0.034178 0.634489 0.465125 -0.155864
C111  C     C_R   0.465821 0.134489 0.534875 -0.155836
C112  C     C_R   0.534178 0.134489 0.465130 -0.156359
C113  C     C_R   1.000000 0.614620 0.499998 0.025132
C114  C     C_R   0.500000 0.114620 0.500002 0.025136
C115  C     C_3   0.002653 0.535436 0.267807 -0.043374
C116  C     C_3   0.997452 0.535446 0.732086 -0.043451
C117  C     C_3   0.502536 0.035448 0.267926 -0.043448
C118  C     C_3   0.497344 0.035435 0.732194 -0.043368
C119  C     C_R   1.000000 0.693113 0.499998 0.154895
C120  C     C_R   0.499999 0.193113 0.500002 0.154896
C121  C     C_R   0.499888 0.673624 0.443300 -0.161842
C122  C     C_R   0.500108 0.673623 0.556711 -0.161855
C123  C     C_R   0.999890 0.173623 0.443291 -0.161855
C124  C     C_R   0.000110 0.173624 0.556702 -0.161843
C125  C     C_R   0.499891 0.634436 0.443215 -0.196643
C126  C     C_R   0.500107 0.634435 0.556791 -0.196639
C127  C     C_R   0.999892 0.134434 0.443210 -0.196638
C128  C     C_R   0.000108 0.134436 0.556786 -0.196643
C129  C     C_R   0.499999 0.614536 0.500002 -0.040490
C130  C     C_R   0.000000 0.114536 0.499999 -0.040490
C131  C     C_R   0.499998 0.693085 0.500007 0.160470
C132  C     C_R   0.000000 0.193085 0.499995 0.160471
C133  C     C_1   0.499997 0.733127 0.500009 -0.073331
C134  C     C_1   0.000000 0.233127 0.499993 -0.073333
C135  C     C_1   0.000001 0.266786 0.499991 -0.041016
C136  C     C_1   0.499997 0.766786 0.500011 -0.041014
C137  C     C_R   0.984464 0.326167 0.464727 -0.247654
C138  C     C_R   0.015537 0.326166 0.535257 -0.247623
C139  C     C_R   0.484448 0.826166 0.464770 -0.247611
C140  C     C_R   0.515547 0.826167 0.535250 -0.247645
C141  C     C_R   0.984660 0.365480 0.463157 -0.057447
C142  C     C_R   0.015340 0.365479 0.536832 -0.057475
C143  C     C_R   0.484647 0.865479 0.463192 -0.057469
C144  C     C_R   0.515352 0.865480 0.536820 -0.057457
C145  C     C_R   1.000000 0.385532 0.499996 -0.079211
C146  C     C_R   0.500000 0.885532 0.500004 -0.079224
C147  C     C_3   0.998886 0.500403 0.312427 -0.021071
C148  C     C_3   0.001114 0.500401 0.687573 -0.021074
C149  C     C_3   0.498885 0.000400 0.312427 -0.021077
C150  C     C_3   0.501114 0.000401 0.687573 -0.021077
C151  C     C_R   0.000001 0.306848 0.499991 0.166413
C152  C     C_R   0.499997 0.806848 0.500011 0.166405
C153  C     C_3   0.965786 0.485808 0.305103 -0.149817
C154  C     C_3   0.034168 0.485707 0.694947 -0.149752
C155  C     C_3   0.465836 0.985696 0.305048 -0.149756
C156  C     C_3   0.534215 0.985809 0.694897 -0.149808
C157  C     C_3   0.994732 0.464846 0.235860 0.038135
C158  C     C_3   0.005155 0.464834 0.764252 0.037978
C159  C     C_3   0.494856 0.964833 0.235736 0.037946
C160  C     C_3   0.505269 0.964845 0.764139 0.038128
C161  C     C_3   0.027632 0.478948 0.244373 -0.246769
C162  C     C_3   0.972301 0.479036 0.755690 -0.246801
C163  C     C_3   0.527706 0.979045 0.244302 -0.246808
C164  C     C_3   0.472369 0.978945 0.755625 -0.246769
C165  C     C_3   0.031493 0.514409 0.198657 -0.246738
C166  C     C_3   0.968545 0.514510 0.801299 -0.246578
C167  C     C_3   0.531449 0.014520 0.198706 -0.246568
C168  C     C_3   0.468505 0.014406 0.801343 -0.246725
H1    H     H_    0.499963 0.380070 0.601423 0.158735
H2    H     H_    0.500037 0.380070 0.398577 0.158735
H3    H     H_    0.999963 0.880070 0.601423 0.158735
H4    H     H_    0.000037 0.880070 0.398576 0.158735
O1    O     O_R   0.944560 0.468710 0.055440 -0.626297
O2    O     O_R   0.055440 0.468710 0.944560 -0.626211
O3    O     O_R   0.444560 0.968710 0.055440 -0.626199
O4    O     O_R   0.555440 0.968710 0.944560 -0.626298
O5    O     O_R   0.555450 0.499900 0.497080 -0.623104
O6    O     O_R   0.444550 0.499900 0.502920 -0.623106
O7    O     O_R   0.055450 0.999900 0.497080 -0.623105
O8    O     O_R   0.944550 0.999900 0.502920 -0.623105
O9    O     O_R   0.555440 0.499880 0.392050 -0.622680
O10   O     O_R   0.444560 0.499880 0.607950 -0.622680
O11   O     O_R   0.055440 0.999880 0.392050 -0.622681
O12   O     O_R   0.944560 0.999880 0.607950 -0.622679
O13   O     O_R   0.500000 0.444470 0.552540 -0.622941
O14   O     O_R   0.500000 0.444470 0.447460 -0.622942
O15   O     O_R   0.000000 0.944470 0.552540 -0.622941
O16   O     O_R   0.000000 0.944470 0.447460 -0.622942
O17   O     O_R   0.944560 0.531300 0.055450 -0.572509
O18   O     O_R   0.055440 0.531300 0.944550 -0.572549
O19   O     O_R   0.444560 0.031300 0.055450 -0.572561
O20   O     O_R   0.555440 0.031300 0.944550 -0.572510
O21   O     O_R   0.000010 0.468710 0.093020 -0.645127
O22   O     O_R   0.999990 0.468710 0.906980 -0.644972
O23   O     O_R   0.500010 0.968710 0.093020 -0.644956
O24   O     O_R   0.499990 0.968710 0.906980 -0.645141
O25   O     O_R   0.000010 0.531300 0.093030 -0.580076
O26   O     O_R   0.999990 0.531300 0.906970 -0.580214
O27   O     O_R   0.500010 0.031300 0.093030 -0.580229
O28   O     O_R   0.499990 0.031300 0.906970 -0.580075
O29   O     O_R   0.031280 0.555400 0.468730 -0.629772
O30   O     O_R   0.968720 0.555400 0.531270 -0.630003
O31   O     O_R   0.531280 0.055400 0.468730 -0.630015
O32   O     O_R   0.468720 0.055400 0.531270 -0.629756
O33   O     O_R   0.031290 0.499960 0.375690 -0.626677
O34   O     O_R   0.968710 0.499960 0.624310 -0.626828
O35   O     O_R   0.531290 0.999960 0.375690 -0.626842
O36   O     O_R   0.468710 0.999960 0.624310 -0.626679
O37   O     O_R   0.968700 0.499940 0.438280 -0.623794
O38   O     O_R   0.031300 0.499940 0.561720 -0.623727
O39   O     O_R   0.468700 0.999940 0.438280 -0.623721
O40   O     O_R   0.531300 0.999940 0.561720 -0.623787
O41   O     O_R   0.031310 0.444530 0.468680 -0.611046
O42   O     O_R   0.968690 0.444530 0.531320 -0.610950
O43   O     O_R   0.531310 0.944530 0.468680 -0.610942
O44   O     O_R   0.468690 0.944530 0.531320 -0.611071
O45   O     O_R   0.500010 0.555340 0.552490 -0.622710
O46   O     O_R   0.499990 0.555340 0.447510 -0.622708
O47   O     O_R   0.000010 0.055340 0.552490 -0.622708
O48   O     O_R   0.999990 0.055340 0.447510 -0.622711
Zn1   Zn    Zn3+2 0.000000 0.458210 0.000000 1.004627
Zn2   Zn    Zn3+2 0.500000 0.958210 0.000000 1.004637
Zn3   Zn    Zn3+2 1.000000 0.541790 0.000000 1.088684
Zn4   Zn    Zn3+2 0.500000 0.041790 0.000000 1.088668
Zn5   Zn    Zn3+2 0.041800 0.499960 0.458210 0.999072
Zn6   Zn    Zn3+2 0.958200 0.499960 0.541790 0.998953
Zn7   Zn    Zn3+2 0.541800 0.999960 0.458210 0.998945
Zn8   Zn    Zn3+2 0.458200 0.999960 0.541790 0.999062
Zn9   Zn    Zn3+2 0.500010 0.499910 0.570130 0.946510
Zn10  Zn    Zn3+2 0.499990 0.499910 0.429870 0.946510
Zn11  Zn    Zn3+2 0.000010 0.999910 0.570130 0.946510
Zn12  Zn    Zn3+2 0.999990 0.999910 0.429870 0.946508
C169  C     C_2   0.007305 0.575448 0.284199 0.357509
H5    H     H_    0.009899 0.597586 0.246960 0.086620
O49   O     O_2   0.008166 0.583368 0.338927 -0.597695
C170  C     C_2   0.992923 0.575471 0.715569 0.357479
H6    H     H_    0.990396 0.597619 0.752741 0.086599
O50   O     O_2   0.992087 0.583392 0.660817 -0.597717
C171  C     C_2   0.507051 0.075474 0.284457 0.357481
H7    H     H_    0.509569 0.097623 0.247294 0.086597
O51   O     O_2   0.507885 0.083394 0.339211 -0.597720
C172  C     C_2   0.492690 0.075446 0.715803 0.357506
H8    H     H_    0.490094 0.097585 0.753046 0.086615
O52   O     O_2   0.491829 0.083366 0.661076 -0.597692
H9    H     H_    0.688540 0.498137 0.416463 0.135647
H10   H     H_    0.311460 0.498146 0.583537 0.135645
H11   H     H_    0.188540 0.998148 0.416464 0.135644
H12   H     H_    0.811460 0.998136 0.583537 0.135647
H13   H     H_    0.808052 0.537991 0.120639 0.128234
H14   H     H_    0.191943 0.538049 0.879295 0.128238
H15   H     H_    0.308057 0.038052 0.120707 0.128239
H16   H     H_    0.691948 0.037992 0.879360 0.128234
C173  C     C_2   0.880421 0.545085 0.027548 0.367225
H17   H     H_    0.863430 0.566687 0.021813 0.070059
O53   O     O_2   0.912104 0.539605 0.976878 -0.615432
C174  C     C_2   0.119575 0.545143 0.972382 0.367306
H18   H     H_    0.136557 0.566775 0.978064 0.070060
O54   O     O_2   0.087904 0.539651 0.023086 -0.615365
C175  C     C_2   0.380425 0.045143 0.027618 0.367308
H19   H     H_    0.363445 0.066777 0.021938 0.070059
O55   O     O_2   0.412096 0.039648 0.976912 -0.615372
C176  C     C_2   0.619579 0.045086 0.972450 0.367231
H20   H     H_    0.636570 0.066689 0.978184 0.070056
O56   O     O_2   0.587896 0.039605 0.023121 -0.615432
C177  C     C_2   0.885900 0.456158 0.212433 0.424103
H21   H     H_    0.871330 0.433027 0.249380 0.063444
O57   O     O_2   0.917197 0.464677 0.200611 -0.548657
C178  C     C_2   0.114108 0.456092 0.787638 0.424080
H22   H     H_    0.128684 0.432948 0.750730 0.063253
O58   O     O_2   0.082808 0.464589 0.799444 -0.548494
C179  C     C_2   0.385891 0.956089 0.212360 0.424077
H23   H     H_    0.371314 0.932946 0.249269 0.063237
O59   O     O_2   0.417192 0.964582 0.200551 -0.548481
C180  C     C_2   0.614100 0.956157 0.787568 0.424096
H24   H     H_    0.628670 0.933025 0.750621 0.063443
O60   O     O_2   0.582802 0.964675 0.799390 -0.548668
H25   H     H_    0.812419 0.460221 0.269105 0.129788
H26   H     H_    0.187586 0.460180 0.730958 0.129780
H27   H     H_    0.312413 0.960180 0.269042 0.129778
H28   H     H_    0.687581 0.960219 0.730896 0.129788
H29   H     H_    0.499963 0.311143 0.600963 0.137291
H30   H     H_    0.500036 0.311142 0.399039 0.137292
H31   H     H_    0.999963 0.811142 0.600961 0.137292
H32   H     H_    0.000037 0.811143 0.399037 0.137291
H33   H     H_    0.939372 0.688765 0.561876 0.137480
H34   H     H_    0.060628 0.688765 0.438120 0.137477
H35   H     H_    0.439372 0.188765 0.561878 0.137477
H36   H     H_    0.560627 0.188765 0.438126 0.137479
H37   H     H_    0.939109 0.619823 0.562153 0.155799
H38   H     H_    0.060891 0.619822 0.437844 0.155817
H39   H     H_    0.439109 0.119822 0.562155 0.155815
H40   H     H_    0.560890 0.119823 0.437849 0.155795
H41   H     H_    0.499800 0.688724 0.399276 0.135287
H42   H     H_    0.500195 0.688721 0.600737 0.135276
H43   H     H_    0.999804 0.188721 0.399264 0.135274
H44   H     H_    0.000197 0.188724 0.600727 0.135284
C181  C     C_2   0.937249 0.544518 0.270375 0.413563
H45   H     H_    0.919918 0.558290 0.322220 0.053063
O61   O     O_2   0.929753 0.548269 0.222280 -0.540976
C182  C     C_2   0.062872 0.544338 0.729521 0.413608
H46   H     H_    0.080272 0.558026 0.677612 0.053101
O62   O     O_2   0.070341 0.548110 0.777648 -0.541113
C183  C     C_2   0.437113 0.044317 0.270494 0.413615
H47   H     H_    0.419704 0.057994 0.322412 0.053102
O63   O     O_2   0.429648 0.048094 0.222362 -0.541130
C184  C     C_2   0.562747 0.044520 0.729629 0.413557
H48   H     H_    0.580075 0.058297 0.677787 0.053064
O64   O     O_2   0.570246 0.048269 0.777721 -0.540975
H49   H     H_    0.499804 0.619789 0.398812 0.158397
H50   H     H_    0.500194 0.619786 0.601192 0.158397
H51   H     H_    0.999806 0.119786 0.398808 0.158396
H52   H     H_    0.000194 0.119789 0.601189 0.158396
H53   H     H_    0.972784 0.310403 0.437136 0.130705
H54   H     H_    0.027218 0.310401 0.562847 0.130726
H55   H     H_    0.472756 0.810402 0.437198 0.130732
H56   H     H_    0.527238 0.810403 0.562824 0.130709
C185  C     C_2   0.969391 0.383667 0.420638 0.385353
H57   H     H_    0.952556 0.367243 0.404545 0.098270
O65   O     O_2   0.976258 0.416349 0.400765 -0.595893
C186  C     C_2   0.030606 0.383665 0.579355 0.385527
H58   H     H_    0.047449 0.367243 0.595433 0.098252
O66   O     O_2   0.023730 0.416343 0.599249 -0.595938
C187  C     C_2   0.469368 0.883666 0.420691 0.385594
H59   H     H_    0.452503 0.867250 0.404659 0.098203
O67   O     O_2   0.476262 0.916338 0.400759 -0.595931
C188  C     C_2   0.530634 0.883667 0.579317 0.385418
H60   H     H_    0.547485 0.867245 0.595376 0.098238
O68   O     O_2   0.523761 0.916345 0.599211 -0.595865
H61   H     H_    0.939017 0.474112 0.349677 0.186845
H62   H     H_    0.060903 0.473929 0.650412 0.186918
H63   H     H_    0.439106 0.973909 0.349580 0.186927
H64   H     H_    0.560984 0.974113 0.650323 0.186848
C189  C     C_2   0.990900 0.424931 0.217920 0.510477
H65   H     H_    0.013262 0.412076 0.168986 0.034574
O69   O     O_2   0.962826 0.406727 0.258135 -0.559086
C190  C     C_2   0.008861 0.424909 0.782321 0.510281
H66   H     H_    0.986457 0.412126 0.831294 0.034609
O70   O     O_2   0.036880 0.406617 0.742171 -0.559041
C191  C     C_2   0.491162 0.924906 0.217655 0.510292
H67   H     H_    0.513571 0.912129 0.168682 0.034605
O71   O     O_2   0.463147 0.906608 0.257798 -0.559018
C192  C     C_2   0.509102 0.924931 0.782082 0.510480
H68   H     H_    0.486745 0.912081 0.831029 0.034595
O72   O     O_2   0.537172 0.906724 0.741856 -0.559074
H69   H     H_    0.051099 0.461495 0.239885 0.162740
H70   H     H_    0.948781 0.461654 0.760229 0.162749
H71   H     H_    0.551232 0.961671 0.239755 0.162750
H72   H     H_    0.448903 0.961491 0.760111 0.162737
H73   H     H_    0.058500 0.526285 0.155715 0.209847
H74   H     H_    0.941576 0.526478 0.844190 0.209901
H75   H     H_    0.558414 0.026499 0.155819 0.209905
H76   H     H_    0.441498 0.026282 0.844286 0.209847
H77   H     H_    0.688886 0.498372 0.214278 0.134458
H78   H     H_    0.311114 0.498382 0.785722 0.134461
H79   H     H_    0.188886 0.998385 0.214278 0.134461
H80   H     H_    0.811114 0.998371 0.785722 0.134457
H81   H     H_    0.619997 0.499331 0.280534 0.158269
H82   H     H_    0.380003 0.499335 0.719466 0.158269
H83   H     H_    0.119997 0.999336 0.280534 0.158269
H84   H     H_    0.880003 0.999331 0.719466 0.158269
H85   H     H_    0.619659 0.499101 0.483629 0.158456
H86   H     H_    0.380341 0.499103 0.516370 0.158455
H87   H     H_    0.119659 0.999104 0.483630 0.158455
H88   H     H_    0.880341 0.999100 0.516371 0.158456

loop_
_geom_bond_atom_site_label_1
_geom_bond_atom_site_label_2
_ccdc_geom_bond_type
C70   C114  S    
C55   C59   A    
C90   H30   S    
C108  C120  A    
O31   Zn7   S    
C22   H86   S    
C183  O63   D    
C189  H65   S    
O29   Zn5   S    
C89   C99   A    
C47   O23   A    
C154  H62   S    
C154  C158  S    
C137  H53   S    
C46   O26   A    
C7    C159  S    
C179  H23   S    
C29   C33   S    
C139  C152  A    
C111  H39   S    
C180  H24   S    
C85   C155  S    
C9    C13   A    
C137  C141  A    
C8    C168  S    
C11   C15   A    
C12   C16   A    
O34   Zn6   S    
C172  O52   D    
C188  H60   S    
C91   C100  A    
C115  C165  S    
C140  C152  A    
C141  C145  A    
O15   Zn11  S    
C76   C146  S    
C4    C56   S    
C116  C166  S    
C41   C49   A    
C136  C152  S    
C87   O14   A    
C25   C29   A    
C27   C31   A    
C187  H59   S    
C28   C32   A    
O30   Zn6   S    
C62   C66   A    
C192  H68   S    
C72   O34   A    
C126  C129  A    
C17   C21   A    
C19   C23   A    
C27   H11   S    
C78   O47   A    
C10   C30   A    
C183  H47   S    
C16   C20   A    
C184  H48   S    
C159  C191  S    
C77   C129  S    
C85   C117  S    
C99   C101  S    
C178  O58   D    
C125  C129  A    
O37   Zn6   S    
C125  H49   S    
C107  C120  A    
C182  H46   S    
C10   H78   S    
C2    O18   A    
C190  H66   S    
C175  O55   D    
C176  O56   D    
C57   C61   A    
O14   Zn10  S    
C138  C151  A    
C59   C63   A    
C60   C64   A    
C142  C186  S    
O26   Zn3   S    
C149  C155  S    
C160  C192  S    
C94   H2    S    
C76   O43   A    
C77   O45   A    
C122  C131  A    
C49   C53   A    
C148  C162  S    
C8    C86   S    
C147  C153  S    
C105  H33   S    
C165  H73   S    
C43   H15   S    
C71   O33   A    
C117  C171  S    
C132  C134  S    
C40   C68   S    
C117  C149  S    
O27   Zn4   S    
C161  C165  S    
C26   H10   S    
C71   C147  S    
C20   C82   S    
C123  C132  A    
C121  H41   S    
C123  H43   S    
C112  C114  A    
C1    O1    A    
O44   Zn8   S    
C60   C180  S    
C64   C68   A    
O6    Zn10  S    
C173  H17   S    
C147  C161  S    
C45   O25   A    
C82   O12   A    
C92   C96   A    
C157  C189  S    
C170  H6    S    
C124  C132  A    
C118  C150  S    
C157  C161  S    
C1    C53   S    
C86   C156  S    
O40   Zn7   S    
C3    C55   S    
C71   O37   A    
C174  O54   D    
C9    H77   S    
C79   O5    A    
C91   H31   S    
C80   O10   A    
C169  H5    S    
C51   C55   A    
C78   O48   A    
C44   C52   A    
C69   O30   A    
C84   C116  S    
C181  O61   D    
C47   O27   A    
C84   C154  S    
C6    C158  S    
C46   O22   A    
C12   H80   S    
C30   C34   S    
C155  C159  S    
C83   C115  S    
C156  C160  S    
C10   C14   A    
C75   O41   A    
C21   H85   S    
C187  O67   D    
C186  O66   D    
C107  H35   S    
C121  C125  A    
C108  H36   S    
C61   C65   A    
C123  C127  A    
C86   C184  S    
O9    Zn10  S    
C164  H72   S    
C171  O51   D    
C177  O57   D    
C42   C50   A    
C139  H55   S    
C26   C30   A    
O39   Zn8   S    
C4    O4    A    
C93   C97   A    
C90   C99   A    
C144  C188  S    
C7    C167  S    
C18   C22   A    
C107  C111  A    
C16   H84   S    
C24   C28   A    
O12   Zn11  S    
O47   Zn11  S    
O25   Zn3   S    
C176  H20   S    
C83   C153  S    
C161  H69   S    
C52   C176  S    
C13   C17   A    
C143  C187  S    
C78   C130  S    
C92   H32   S    
O36   Zn8   S    
C63   H27   S    
C64   H28   S    
O43   Zn7   S    
C89   C93   A    
C102  C103  T    
C126  H50   S    
C50   C174  S    
C91   C95   A    
C156  H64   S    
C56   C60   A    
C61   H25   S    
C43   C67   A    
C188  O68   D    
C19   C81   S    
C88   C98   S    
C118  C172  S    
C1    O17   A    
C58   C62   A    
C143  C146  A    
C6    C166  S    
C106  C119  A    
C4    O20   A    
C171  H7    S    
O1    Zn1   S    
C87   O13   A    
C109  H37   S    
C15   C19   A    
C93   H1    S    
C50   C54   A    
C48   O28   A    
C160  C164  S    
C153  H61   S    
C54   C58   A    
C192  O72   D    
C13   H81   S    
C115  C147  S    
C28   H12   S    
C185  O65   D    
O46   Zn10  S    
C21   C25   A    
C138  H54   S    
C162  C166  S    
C88   O15   A    
C184  O64   D    
O33   Zn5   S    
C122  H42   S    
C124  C128  A    
O21   Zn1   S    
C73   O35   A    
C23   H87   S    
C70   O32   A    
C142  C145  A    
O2    Zn1   S    
C148  C154  S    
C182  O62   D    
C90   C94   A    
C189  O69   D    
C45   O21   A    
C6    C84   S    
C73   O39   A    
C81   O7    A    
C144  C146  A    
C138  C142  A    
C116  C148  S    
C53   C57   A    
C5    C45   S    
C33   C37   T    
C79   O9    A    
C74   O40   A    
C7    C47   S    
C35   C39   T    
C8    C48   S    
C76   O44   A    
C191  H67   S    
C57   C177  S    
C164  C168  S    
C69   C113  S    
C116  C170  S    
C162  H70   S    
C172  H8    S    
C86   C118  S    
O20   Zn4   S    
C134  C135  T    
O4    Zn2   S    
C168  H76   S    
O22   Zn1   S    
C83   C181  S    
C3    O3    A    
C101  C104  T    
C5    C157  S    
C2    C54   S    
C31   C35   S    
C14   H82   S    
C8    C160  S    
C32   C36   S    
C115  C169  S    
C150  C164  S    
C11   H79   S    
C70   O31   A    
C51   C175  S    
C73   C149  S    
C106  H34   S    
C140  C144  A    
C128  C130  A    
O23   Zn2   S    
C190  O70   D    
O13   Zn9   S    
C89   H29   S    
C94   C97   A    
C166  H74   S    
O18   Zn3   S    
C43   C51   A    
C7    C85   S    
C105  C109  A    
C117  C167  S    
C135  C151  S    
C118  C168  S    
C170  O50   D    
C111  C114  A    
C153  C157  S    
C108  C112  A    
C178  H22   S    
C42   H14   S    
C22   C26   A    
C58   C178  S    
C105  C119  A    
O16   Zn12  S    
C95   H3    S    
O19   Zn4   S    
C80   O6    A    
C104  C120  S    
C25   H9    S    
C69   O29   A    
C181  H45   S    
C14   C18   A    
C167  H75   S    
C95   C98   A    
C74   O36   A    
C75   C145  S    
O5    Zn9   S    
C5    C83   S    
C77   O46   A    
C140  H56   S    
C17   C79   S    
C141  C185  S    
O45   Zn9   S    
C44   H16   S    
C72   O38   A    
C38   C66   S    
C96   C98   A    
C163  H71   S    
C133  C136  T    
C149  C163  S    
C23   C27   A    
O32   Zn8   S    
C177  H21   S    
C180  O60   D    
C109  C113  A    
C110  H38   S    
C158  C190  S    
C150  C156  S    
C48   O24   A    
C139  C143  A    
C121  C131  A    
C63   C67   A    
O48   Zn12  S    
C74   C150  S    
O28   Zn4   S    
C20   C24   A    
C36   C40   T    
O41   Zn5   S    
C173  O53   D    
C41   C65   A    
C15   H83   S    
C72   C148  S    
C37   C65   S    
C122  C126  A    
C163  C167  S    
C3    O19   A    
C49   C173  S    
O10   Zn9   S    
C174  H18   S    
C100  C102  S    
C59   C179  S    
C169  O49   D    
C110  C113  A    
C155  H63   S    
C191  O71   D    
C5    C165  S    
C112  H40   S    
O38   Zn5   S    
C159  C163  S    
C44   C68   A    
C81   O11   A    
C41   H13   S    
C175  H19   S    
C92   C100  A    
C106  C110  A    
O35   Zn7   S    
C179  O59   D    
O8    Zn12  S    
C6    C46   S    
C85   C183  S    
C34   C38   T    
C39   C67   S    
C103  C119  S    
C131  C133  S    
O17   Zn3   S    
C24   H88   S    
C9    C29   A    
C127  H51   S    
C75   O42   A    
C128  H52   S    
C186  H58   S    
C127  C130  A    
C124  H44   S    
C2    O2    A    
O3    Zn2   S    
C185  H57   S    
O42   Zn6   S    
O24   Zn2   S    
C158  C162  S    
C11   C31   A    
C88   O16   A    
C18   C80   S    
C96   H4    S    
C82   O8    A    
C42   C66   A    
C137  C151  A    
C62   H26   S    
C87   C97   S    
O7    Zn11  S    
O11   Zn12  S    
C12   C32   A    
C52   C56   A    
C84   C182  S    
