data_mof_unit_53434.cif
_audit_creation_date              2012-12-10T17:35:33-0500
_audit_creation_method            fapswitch 2.2
_symmetry_space_group_name_H-M    P1
_symmetry_Int_Tables_number       1
_space_group_crystal_system       triclinic
_cell_length_a                    10.724588
_cell_length_b                    12.355162
_cell_length_c                    13.201439
_cell_angle_alpha                 116.688026
_cell_angle_beta                  77.193506
_cell_angle_gamma                 101.47838
_cell_volume                      1514.05047595

loop_
_atom_site_label
_atom_site_type_symbol
_atom_type_description
_atom_site_fract_x
_atom_site_fract_y
_atom_site_fract_z
_atom_type_partial_charge
C1    C     C_R   0.511632 0.854900 0.286582 0.769614
C2    C     C_3   0.121779 0.999337 0.500003 0.159445
C3    C     C_3   0.074433 0.121525 0.592574 -0.386311
C4    C     C_3   0.039792 0.893572 0.526446 -0.369341
C5    C     C_R   0.325481 0.276968 0.021419 -0.191158
C6    C     C_R   0.454114 0.228149 0.834686 -0.052308
C7    C     C_R   0.599340 0.814559 0.085233 -0.193125
C8    C     C_R   0.626339 0.735385 0.970528 -0.146107
C9    C     C_R   0.580297 0.612401 0.932918 -0.185756
C10   C     C_R   0.501119 0.566349 0.009492 0.079123
C11   C     C_R   0.461782 0.650247 0.123699 0.085246
C12   C     C_R   0.739892 0.999502 0.499697 0.748059
C13   C     C_R   0.458453 0.440058 0.976194 0.073432
C14   C     C_R   0.368435 0.401235 0.053295 0.166888
C15   C     C_R   0.319736 0.486957 0.160212 -0.242635
C16   C     C_R   0.364073 0.609672 0.194307 -0.205425
C17   C     C_R   0.503101 0.350742 0.868614 -0.253994
C18   C     C_R   0.367461 0.190765 0.912202 -0.200138
C19   C     C_R   0.520178 0.772907 0.163475 -0.105771
C20   C     C_R   0.711095 0.356239 0.337235 -0.263646
C21   C     C_R   0.323806 0.758814 0.644334 0.070593
C22   C     C_R   0.284213 0.661905 0.675360 -0.259555
C23   C     C_R   0.480931 0.145066 0.713420 0.794974
C24   C     C_R   0.349627 0.558660 0.621099 -0.194432
C25   C     C_R   0.456129 0.551365 0.534790 0.016902
C26   C     C_R   0.492981 0.653445 0.505968 0.288609
C27   C     C_R   0.528188 0.447822 0.476476 -0.033227
C28   C     C_R   0.635802 0.451664 0.393451 0.086721
C29   C     C_R   0.669200 0.550906 0.366202 -0.274964
C30   C     C_R   0.598783 0.648992 0.420553 -0.181984
C31   C     C_R   0.499741 0.340481 0.496368 -0.058677
C32   C     C_R   0.680585 0.254351 0.359659 0.582920
C33   C     C_R   0.260046 0.999998 0.500090 0.747592
C34   C     C_3   0.956442 0.981985 0.380966 -0.385970
C35   C     C_3   0.100396 0.981900 0.380980 -0.375339
C36   C     C_3   0.930366 0.121104 0.592705 -0.368989
C37   C     C_3   0.897086 0.893030 0.525896 -0.369526
C38   C     C_3   0.877847 0.998871 0.499814 0.157313
Cu1   Cu    Cu3+1 0.529690 0.098270 0.475420 0.926484
Cu2   Cu    Cu3+1 0.470310 0.901730 0.524580 0.911350
H1    H     H_    0.945222 0.056906 0.359930 0.199646
H2    H     H_    0.052620 0.903825 0.611878 0.163819
H3    H     H_    0.875319 0.134558 0.678770 0.150406
H4    H     H_    0.089219 0.135613 0.678695 0.150804
H5    H     H_    0.328167 0.096057 0.886864 0.146807
H6    H     H_    0.246780 0.459078 0.217918 0.146282
H7    H     H_    0.256530 0.246930 0.079859 0.136998
H8    H     H_    0.575215 0.373900 0.808227 0.146631
H9    H     H_    0.643383 0.908164 0.113192 0.164007
H10   H     H_    0.606199 0.556657 0.842832 0.129521
H11   H     H_    0.686813 0.768837 0.910798 0.140952
H12   H     H_    0.919995 0.894630 0.313092 0.147191
H13   H     H_    0.317839 0.672184 0.275634 0.170599
H14   H     H_    0.751201 0.552946 0.301712 0.146172
H15   H     H_    0.794655 0.360162 0.274680 0.156944
H16   H     H_    0.418997 0.330407 0.557884 0.141037
H17   H     H_    0.272292 0.838395 0.686951 0.120478
H18   H     H_    0.315536 0.486393 0.648502 0.133664
H19   H     H_    0.202557 0.666905 0.741771 0.143035
H20   H     H_    0.631717 0.719853 0.392927 0.203163
H21   H     H_    0.133569 0.894265 0.313442 0.149323
H22   H     H_    0.157755 0.056447 0.359496 0.177919
H23   H     H_    0.918066 0.198901 0.576259 0.179386
H24   H     H_    0.130873 0.199196 0.575597 0.168863
H25   H     H_    0.841564 0.902340 0.610820 0.175022
H26   H     H_    0.861109 0.803812 0.459956 0.166264
H27   H     H_    0.071619 0.804297 0.461249 0.168377
N1    N     N_R   0.574690 0.246280 0.438200 -0.227463
N2    N     N_R   0.426100 0.754320 0.561190 -0.207476
O1    O     O_R   0.537340 0.972510 0.318130 -0.600208
O2    O     O_R   0.487200 0.806530 0.359650 -0.598374
O3    O     O_R   0.707380 0.082980 0.479220 -0.587364
O4    O     O_R   0.657240 0.917000 0.520740 -0.604006
O5    O     O_R   0.512800 0.193470 0.640350 -0.582910
O6    O     O_R   0.462660 0.027490 0.681870 -0.583597
O7    O     O_R   0.342760 0.083000 0.479260 -0.585950
O8    O     O_R   0.292620 0.917020 0.520780 -0.599764
O9    O     O_3   0.762916 0.166027 0.300820 -0.777404
H28   H     H_    0.722622 0.090580 0.306586 0.364317

loop_
_geom_bond_atom_site_label_1
_geom_bond_atom_site_label_2
_ccdc_geom_bond_type
C2    C35   S    
Cu2   O2    S    
Cu1   N1    S    
C17   H8    S    
C7    C8    A    
C3    H24   S    
C5    H7    S    
C11   C19   A    
C1    O2    A    
C21   C22   A    
C28   C29   A    
C37   C38   S    
C29   H14   S    
C15   C16   A    
Cu2   O4    S    
C34   C35   S    
Cu1   O5    S    
C16   H13   S    
C8    C9    A    
C30   H20   S    
Cu1   O3    S    
C31   H16   S    
C36   H23   S    
C9    C10   A    
C32   N1    A    
C12   O3    A    
C13   C14   A    
C34   H1    S    
C20   H15   S    
C31   N1    A    
C6    C18   A    
C3    H4    S    
C1    C19   S    
Cu2   N2    S    
C27   C31   A    
C24   C25   A    
C7    H9    S    
Cu1   Cu2   S    
O9    H28   S    
C5    C18   A    
C20   C28   A    
C25   C26   A    
C21   N2    A    
C2    C4    S    
C21   H17   S    
C29   C30   A    
C11   C16   A    
C33   O7    A    
C14   C15   A    
C37   H26   S    
C35   H21   S    
Cu1   O7    S    
C8    H11   S    
C5    C14   A    
C2    C33   S    
C37   H25   S    
C26   C30   A    
C7    C19   A    
C22   C24   A    
C23   O5    A    
C18   H5    S    
C22   H19   S    
C20   C32   A    
C6    C17   A    
C34   C38   S    
C9    H10   S    
C23   O6    A    
C10   C13   A    
C4    H27   S    
C25   C27   A    
C34   H12   S    
C1    O1    A    
Cu2   O6    S    
C13   C17   A    
C36   C38   S    
C2    C3    S    
C33   O8    A    
C4    H2    S    
C3    C36   S    
C6    C23   S    
Cu1   O1    S    
C35   H22   S    
C12   C38   S    
C10   C11   A    
C32   O9    S    
C4    C37   S    
C24   H18   S    
C27   C28   A    
C26   N2    A    
Cu2   O8    S    
C36   H3    S    
C15   H6    S    
C12   O4    A    
