data_mof_unit_59513.cif
_audit_creation_date              2012-12-10T19:04:45-0500
_audit_creation_method            fapswitch 2.2
_symmetry_space_group_name_H-M    P1
_symmetry_Int_Tables_number       1
_space_group_crystal_system       triclinic
_cell_length_a                    15.850554
_cell_length_b                    10.868168
_cell_length_c                    9.562827
_cell_angle_alpha                 90.161232
_cell_angle_beta                  89.816902
_cell_angle_gamma                 90.552669
_cell_volume                      1647.26315319

loop_
_atom_site_label
_atom_site_type_symbol
_atom_type_description
_atom_site_fract_x
_atom_site_fract_y
_atom_site_fract_z
_atom_type_partial_charge
C1    C     C_R   0.498327 0.262506 0.499776 0.805593
C2    C     C_3   0.082698 0.496974 0.501615 0.120796
C3    C     C_3   0.971516 0.605710 0.454937 -0.189432
C4    C     C_3   0.916828 0.495177 0.501586 0.132591
C5    C     C_3   0.026851 0.514621 0.373979 0.298876
C6    C     C_3   0.971262 0.404550 0.417222 -0.146363
C7    C     C_1   0.174459 0.498113 0.500829 -0.040836
C8    C     C_1   0.825239 0.494773 0.501598 -0.022792
C9    C     C_R   0.471931 0.062376 0.617807 0.091351
C10   C     C_R   0.492441 0.129412 0.497794 -0.137353
C11   C     C_R   0.504348 0.064249 0.371844 -0.178586
C12   C     C_R   0.339851 0.499742 0.500154 0.837015
C13   C     C_R   0.505601 0.935687 0.371723 -0.158174
C14   C     C_R   0.495893 0.870501 0.497896 -0.085349
C15   C     C_R   0.474968 0.936300 0.617804 0.003061
C16   C     C_3   0.501494 0.928268 0.767084 -0.492926
C17   C     C_3   0.494210 0.068940 0.770504 0.619208
C18   C     C_R   0.572876 0.524900 0.073256 0.225613
C19   C     C_R   0.429542 0.469665 0.074448 -0.056226
C20   C     C_R   0.429278 0.471315 0.926328 0.021452
C21   C     C_R   0.572619 0.522729 0.925353 0.163032
C22   C     C_3   0.623292 0.637105 0.913101 -0.524813
C23   C     C_R   0.500549 0.737538 0.499888 0.828499
C24   C     C_3   0.621589 0.644867 0.071336 0.260171
C25   C     C_R   0.660056 0.498186 0.500095 0.853595
C26   C     C_3   0.971311 0.477130 0.632628 -0.147572
C27   C     C_3   0.027537 0.387092 0.548295 -0.189573
C28   C     C_1   0.250075 0.498968 0.500506 -0.150673
C29   C     C_1   0.749701 0.495684 0.500912 -0.085622
C30   C     C_3   0.027791 0.587050 0.585748 -0.192713
Cu1   Cu    Cu3+1 0.500000 0.499980 0.640670 0.977339
Cu2   Cu    Cu3+1 0.500000 0.500020 0.359330 0.996360
H1    H     H_    0.051670 0.298014 0.587233 0.161240
H2    H     H_    0.566908 0.895069 0.777632 0.177252
H3    H     H_    0.372038 0.445522 0.129142 0.151687
H4    H     H_    0.371096 0.451129 0.872374 0.180897
H5    H     H_    0.685831 0.618568 0.865037 0.242136
H6    H     H_    0.587530 0.711121 0.862372 0.179191
H7    H     H_    0.584184 0.723612 0.111305 0.095551
H8    H     H_    0.946713 0.461631 0.740047 0.154627
H9    H     H_    0.947169 0.330565 0.347289 0.148314
H10   H     H_    0.947698 0.694624 0.414978 0.141863
H11   H     H_    0.052096 0.661160 0.655314 0.157867
H12   H     H_    0.516886 0.112046 0.274758 0.213891
H13   H     H_    0.517982 0.888237 0.274179 0.175926
H14   H     H_    0.455047 0.876562 0.831743 0.225065
N1    N     N_R   0.500530 0.500930 0.147930 -0.222110
N2    N     N_R   0.500530 0.500890 0.852020 -0.195370
O1    O     O_R   0.500000 0.319640 0.618810 -0.555828
O2    O     O_R   0.500010 0.319680 0.381230 -0.579456
O3    O     O_R   0.379070 0.499970 0.618770 -0.571096
O4    O     O_R   0.379080 0.500010 0.381190 -0.594076
O5    O     O_R   0.499990 0.680320 0.618770 -0.585332
O6    O     O_R   0.500000 0.680360 0.381190 -0.586170
O7    O     O_R   0.620920 0.499990 0.618810 -0.601481
O8    O     O_R   0.620930 0.500030 0.381230 -0.511488
S1    S     S_3+6 0.406511 0.121484 0.874541 -0.019550
O9    O     O_2   0.364998 0.226794 0.801417 -0.317658
O10   O     O_2   0.342264 0.020302 0.894578 -0.301259
O11   O     O_3   0.441644 0.168452 0.031713 -0.562630
H15   H     H_    0.390276 0.191296 0.084623 0.367969
N3    N     N_2   0.573289 0.132910 0.804818 -0.413693
H16   H     H_    0.566358 0.220944 0.843400 0.300525
C31   C     C_3   0.647423 0.119925 0.716410 -0.707216
H17   H     H_    0.704779 0.135973 0.780411 0.249810
H18   H     H_    0.647023 0.189545 0.631878 0.216659
H19   H     H_    0.651676 0.027108 0.668872 0.232540
S2    S     S_3+6 0.725553 0.639075 0.144788 -0.008899
O12   O     O_2   0.752888 0.507978 0.162456 -0.302292
O13   O     O_2   0.786992 0.704962 0.050326 -0.313815
O14   O     O_3   0.724424 0.711155 0.300531 -0.549497
H20   H     H_    0.784602 0.723877 0.324740 0.358017
N4    N     N_2   0.059358 0.535288 0.234349 -0.445361
H21   H     H_    0.103770 0.605125 0.230331 0.253405
C32   C     C_3   0.995751 0.545133 0.127041 -0.595094
H22   H     H_    0.026771 0.554352 0.023270 0.219402
H23   H     H_    0.956135 0.627362 0.145921 0.252111
H24   H     H_    0.955121 0.461318 0.125175 0.247871

loop_
_geom_bond_atom_site_label_1
_geom_bond_atom_site_label_2
_ccdc_geom_bond_type
C3    H10   S    
C18   C21   A    
N4    H21   S    
C2    C7    S    
C25   O8    A    
C4    C8    S    
C18   N1    A    
C27   H1    S    
C26   C27   S    
C12   C28   S    
C18   C24   S    
C8    C29   T    
C5    C6    S    
C19   N1    A    
S1    O10   D    
C15   C16   S    
C22   H6    S    
C24   H7    S    
Cu2   O4    S    
N3    C31   S    
C16   H2    S    
Cu1   Cu2   S    
C16   C17   S    
C6    H9    S    
C2    C27   S    
C1    O2    A    
C21   N2    A    
C13   C14   A    
N4    C32   S    
Cu1   O1    S    
Cu2   O6    S    
C12   O4    A    
C23   O5    A    
C25   C29   S    
C31   H19   S    
C4    C6    S    
C16   H14   S    
S2    O12   D    
S1    O11   S    
C22   H5    S    
C7    C28   T    
O11   H15   S    
C31   H18   S    
C14   C23   S    
C3    C30   S    
C32   H22   S    
N3    H16   S    
C17   N3    S    
C6    C27   S    
C11   H12   S    
Cu1   O5    S    
C32   H23   S    
Cu2   O2    S    
C20   N2    A    
C9    C17   S    
C26   C30   S    
Cu1   N2    S    
Cu2   N1    S    
C22   C24   S    
C30   H11   S    
C2    C5    S    
C3    C4    S    
C12   O3    A    
C23   O6    A    
C9    C10   A    
C1    C10   S    
C25   O7    A    
Cu1   O3    S    
C3    C5    S    
C4    C26   S    
C2    C30   S    
C31   H17   S    
C19   C20   A    
C9    C15   A    
O14   H20   S    
C19   H3    S    
C13   H13   S    
C11   C13   A    
C26   H8    S    
S1    O9    D    
S2    O14   S    
C5    N4    S    
C32   H24   S    
C10   C11   A    
C24   S2    S    
C20   H4    S    
S2    O13   D    
C14   C15   A    
Cu1   O7    S    
C21   C22   S    
C1    O1    A    
Cu2   O8    S    
C17   S1    S    
