data_mof_unit_15459.cif
_audit_creation_date              2012-12-11T17:10:14-0500
_audit_creation_method            fapswitch 2.2
_symmetry_space_group_name_H-M    P1
_symmetry_Int_Tables_number       1
_space_group_crystal_system       triclinic
_cell_length_a                    14.794605
_cell_length_b                    14.901285
_cell_length_c                    14.87517
_cell_angle_alpha                 109.559301
_cell_angle_beta                  109.808822
_cell_angle_gamma                 109.014013
_cell_volume                      2525.33863156

loop_
_atom_site_label
_atom_site_type_symbol
_atom_type_description
_atom_site_fract_x
_atom_site_fract_y
_atom_site_fract_z
_atom_type_partial_charge
C1    C     C_R   0.185419 0.278960 0.253702 -0.141801
C2    C     C_R   0.451167 0.449838 0.776570 0.071467
C3    C     C_R   0.566083 0.197423 0.498193 0.079633
C4    C     C_R   0.197736 0.570736 0.496137 0.069693
C5    C     C_R   0.474299 0.720809 0.406882 -0.020449
C6    C     C_R   0.815452 0.566492 0.592849 -0.135088
C7    C     C_R   0.494331 0.402413 0.195533 -0.160431
C8    C     C_R   0.707178 0.799315 0.803517 -0.167221
C9    C     C_R   0.801557 0.710397 0.805133 -0.115532
C10   C     C_R   0.403981 0.495136 0.194635 -0.157462
C11   C     C_R   0.563424 0.815199 0.591372 -0.140133
C12   C     C_R   0.525365 0.432566 0.746513 -0.143535
C13   C     C_R   0.722974 0.476815 0.408601 -0.125015
C14   C     C_R   0.547188 0.824608 0.497869 0.070094
C15   C     C_R   0.826846 0.555671 0.501243 0.055367
C16   C     C_R   0.433393 0.432256 0.131030 0.085234
C17   C     C_R   0.802119 0.803503 0.868142 0.078285
C18   C     C_R   0.086420 0.583037 0.172347 -0.090640
C19   C     C_R   0.091794 0.613589 0.274570 -0.110464
C20   C     C_R   0.015241 0.539944 0.286566 0.076628
C21   C     C_R   0.932255 0.436245 0.194381 -0.174945
C22   C     C_R   0.927378 0.406125 0.092457 -0.097888
C23   C     C_R   0.505323 0.201349 0.407812 -0.150756
C24   C     C_R   0.004474 0.479374 0.081496 -0.142852
C25   C     C_R   0.927507 0.567901 0.399244 -0.229208
C26   C     C_R   0.930307 0.605984 0.500341 0.050325
C27   C     C_R   0.034260 0.676180 0.598322 0.030957
C28   C     C_R   0.126317 0.672641 0.594696 -0.230674
C29   C     C_R   0.116674 0.609118 0.494054 0.058159
C30   C     C_R   0.021175 0.572266 0.394850 0.034338
C31   C     C_R   0.997758 0.821914 0.695007 -0.139782
C32   C     C_R   0.015823 0.903194 0.791133 -0.101126
C33   C     C_R   0.086459 0.922458 0.894166 -0.084280
C34   C     C_R   0.290852 0.598204 0.589090 -0.129640
C35   C     C_R   0.137478 0.859036 0.901323 -0.123991
C36   C     C_R   0.119573 0.777429 0.805365 -0.177182
C37   C     C_R   0.049897 0.758441 0.701063 0.113291
C38   C     C_R   0.450182 0.345258 0.876336 0.166230
C39   C     C_R   0.406032 0.400936 0.832489 0.034450
C40   C     C_R   0.332534 0.425775 0.861625 -0.200324
C41   C     C_R   0.328429 0.422138 0.953085 -0.207316
C42   C     C_R   0.397227 0.392827 0.014249 0.032027
C43   C     C_R   0.445326 0.340851 0.965787 0.163232
C44   C     C_3   0.557578 0.351688 0.015100 -0.523012
C45   C     C_R   0.595899 0.290243 0.590663 -0.145946
C46   C     C_3   0.563431 0.357178 0.917876 -0.516800
C47   C     C_R   0.541700 0.923920 0.393576 -0.057563
C48   C     C_R   0.589659 0.924909 0.493128 0.085370
C49   C     C_R   0.665609 0.027086 0.590300 -0.184720
C50   C     C_R   0.670561 0.122709 0.590769 -0.199517
C51   C     C_R   0.600470 0.115550 0.493686 0.103148
C52   C     C_R   0.548689 0.018376 0.393656 0.063336
C53   C     C_3   0.434809 0.957897 0.295380 -0.636363
C54   C     C_3   0.426007 0.854854 0.296498 0.657490
C55   C     C_R   0.967509 0.074762 0.121683 0.168302
C56   C     C_R   0.199584 0.504312 0.406788 -0.146223
C57   C     C_R   0.067275 0.074824 0.168168 0.025012
C58   C     C_R   0.063030 0.972888 0.141007 -0.211904
C59   C     C_R   0.968424 0.877309 0.048579 -0.199241
C60   C     C_R   0.878629 0.884516 0.984923 0.025077
C61   C     C_R   0.874273 0.980584 0.031410 0.166243
C62   C     C_3   0.837460 0.042466 0.980217 -0.537114
C63   C     C_3   0.939509 0.145443 0.078423 -0.524570
C64   C     C_R   0.435361 0.527341 0.750998 -0.125603
C65   C     C_R   0.276027 0.184925 0.249026 -0.131820
C66   C     C_R   0.172605 0.175317 0.223902 0.067585
H1    H     H_    0.123775 0.302784 0.250749 0.112293
H2    H     H_    0.878445 0.616791 0.678645 0.117409
H3    H     H_    0.513333 0.337842 0.167470 0.101992
H4    H     H_    0.670246 0.846272 0.831124 0.106097
H5    H     H_    0.854681 0.679170 0.834605 0.088689
H6    H     H_    0.342571 0.518263 0.165661 0.096555
H7    H     H_    0.615787 0.879745 0.676645 0.097249
H8    H     H_    0.700128 0.446020 0.323026 0.093273
H9    H     H_    0.000621 0.455867 0.002542 0.105480
H10   H     H_    0.145737 0.639646 0.163433 0.161686
H11   H     H_    0.155788 0.694071 0.344420 0.163210
H12   H     H_    0.552608 0.374369 0.749156 0.112256
H13   H     H_    0.872474 0.378328 0.201869 0.111141
H14   H     H_    0.863955 0.325875 0.022019 0.115951
H15   H     H_    0.851508 0.530346 0.322738 0.123130
H16   H     H_    0.944164 0.809391 0.615878 0.115344
H17   H     H_    0.101705 0.986697 0.968403 0.122763
H18   H     H_    0.191421 0.873547 0.981341 0.108510
H19   H     H_    0.159701 0.729013 0.812578 0.106200
H20   H     H_    0.289689 0.461305 0.824123 0.126539
H21   H     H_    0.486151 0.154438 0.324172 0.106504
H22   H     H_    0.282651 0.455134 0.982733 0.125249
H23   H     H_    0.554013 0.276282 0.015888 0.189542
H24   H     H_    0.629049 0.438517 0.942805 0.202552
H25   H     H_    0.563941 0.285244 0.863182 0.192769
H26   H     H_    0.710469 0.032364 0.668112 0.116018
H27   H     H_    0.718558 0.198332 0.669048 0.116660
H28   H     H_    0.375600 0.979809 0.313775 0.230399
H29   H     H_    0.436349 0.959025 0.221547 0.146188
H30   H     H_    0.324026 0.659338 0.673229 0.084163
H31   H     H_    0.417706 0.793898 0.221718 -0.027762
H32   H     H_    0.136289 0.968132 0.180410 0.137069
H33   H     H_    0.972137 0.802336 0.020055 0.133559
H34   H     H_    0.838835 0.024786 0.901996 0.197430
H35   H     H_    0.759831 0.038194 0.976779 0.191005
H36   H     H_    0.998233 0.185656 0.055144 0.201504
H37   H     H_    0.920455 0.200530 0.131064 0.194393
H38   H     H_    0.148664 0.475391 0.321076 0.121311
H39   H     H_    0.381876 0.559557 0.761963 0.092693
H40   H     H_    0.297128 0.120640 0.237501 0.093978
N1    N     N_R   0.291070 0.347930 0.293870 -0.039441
N2    N     N_R   0.708930 0.502750 0.556810 -0.042686
N3    N     N_R   0.502760 0.445970 0.293860 -0.039032
N4    N     N_R   0.652110 0.708890 0.706130 -0.039521
N5    N     N_R   0.708930 0.652070 0.706130 -0.041957
N6    N     N_R   0.445950 0.502780 0.293850 -0.043935
N7    N     N_R   0.502760 0.708900 0.556790 -0.043650
N8    N     N_R   0.652110 0.445950 0.443190 -0.040927
N9    N     N_R   0.554050 0.497220 0.706150 -0.040813
N10   N     N_R   0.497240 0.291100 0.443210 -0.037349
N11   N     N_R   0.347890 0.554050 0.556810 -0.038979
N12   N     N_R   0.554050 0.347900 0.556830 -0.037159
N13   N     N_R   0.291070 0.497250 0.443190 -0.040891
N14   N     N_R   0.497240 0.554030 0.706140 -0.039947
N15   N     N_R   0.347890 0.291110 0.293870 -0.038647
N16   N     N_R   0.445950 0.652100 0.443170 -0.048305
Ni1   Ni    Ni4+2 0.369690 0.500010 0.369700 0.221814
Ni2   Ni    Ni4+2 0.630310 0.499990 0.630300 0.206841
Ni3   Ni    Ni4+2 0.500000 0.369720 0.369720 0.205281
Ni4   Ni    Ni4+2 0.500000 0.630280 0.630280 0.208751
H41   H     H_    0.204544 0.717900 0.670692 0.119130
H42   H     H_    0.975741 0.951900 0.785793 0.109410
H43   H     H_    0.619866 0.429637 0.094362 0.200885
F1    F     F_    0.347669 0.812795 0.323921 -0.720345
H44   H     H_    0.657036 0.321748 0.674822 0.085362
H45   H     H_    0.446889 0.696738 0.321493 0.092273

loop_
_geom_bond_atom_site_label_1
_geom_bond_atom_site_label_2
_ccdc_geom_bond_type
C45   N12   A    
C9    N5    A    
C53   H29   S    
C59   H33   S    
C41   C42   A    
C3    C23   A    
C19   C20   A    
C58   H32   S    
N1    Ni1   S    
C57   C66   S    
C2    C12   A    
C49   C50   A    
C64   H39   S    
C20   C30   S    
C53   C54   S    
C26   C27   A    
C62   C63   S    
C31   H16   S    
C18   C24   A    
C28   C29   A    
C34   H30   S    
N11   N13   A    
C38   C39   A    
C11   C14   A    
N14   Ni4   S    
C40   H20   S    
C18   C19   A    
N2    N8    A    
C19   H11   S    
N4    N5    A    
C1    H1    S    
C6    C15   A    
C2    C39   S    
C5    H45   S    
N7    N16   A    
C35   C36   A    
C2    C64   A    
C12   H12   S    
C54   H31   S    
C10   N6    A    
C65   N15   A    
N11   Ni4   S    
C13   N8    A    
C28   H41   S    
C62   H35   S    
C34   N11   A    
C6    H2    S    
C23   N10   A    
C59   C60   A    
C23   H21   S    
C21   C22   A    
C4    C56   A    
C25   H15   S    
N2    Ni2   S    
C63   H36   S    
C44   C46   S    
C1    C66   A    
C54   F1    S    
C4    C34   A    
C51   C52   A    
C56   H38   S    
N6    Ni1   S    
C63   H37   S    
C11   H7    S    
N3    N6    A    
C39   C40   A    
N8    Ni3   S    
C3    C51   S    
C15   C26   S    
C14   C48   S    
N7    Ni4   S    
C25   C26   A    
C5    N16   A    
C3    C45   A    
C7    N3    A    
C55   C63   S    
C60   C61   A    
C43   C44   S    
N15   Ni3   S    
C29   C30   A    
C8    N4    A    
C47   C48   A    
C21   H13   S    
C50   C51   A    
C24   H9    S    
N12   Ni2   S    
C13   H8    S    
C33   H17   S    
C5    C14   A    
C1    N1    A    
C47   C54   S    
C62   H34   S    
C9    C17   A    
C40   C41   A    
N4    Ni4   S    
N9    N14   A    
N10   Ni3   S    
C13   C15   A    
C56   N13   A    
C22   C24   A    
C58   C59   A    
C42   C43   A    
N1    N15   A    
C49   H26   S    
C16   C42   S    
C65   H40   S    
C52   C53   S    
N3    Ni3   S    
C25   C30   A    
C41   H22   S    
C7    C16   A    
C18   H10   S    
N9    Ni2   S    
C53   H28   S    
C31   C32   A    
C9    H5    S    
C7    H3    S    
C4    C29   S    
C35   H18   S    
C50   H27   S    
C45   H44   S    
C47   C52   A    
C46   H24   S    
N13   Ni1   S    
C36   H19   S    
C8    H4    S    
C8    C17   A    
C64   N14   A    
C32   C33   A    
C12   N9    A    
C55   C57   A    
C44   H43   S    
C22   H14   S    
C38   C43   A    
C10   C16   A    
C32   H42   S    
C57   C58   A    
C27   C37   S    
C48   C49   A    
C55   C61   A    
C33   C35   A    
N10   N12   A    
C61   C62   S    
C11   N7    A    
C38   C46   S    
C17   C60   S    
C31   C37   A    
C20   C21   A    
C36   C37   A    
C65   C66   A    
C27   C28   A    
C6    N2    A    
N16   Ni1   S    
N5    Ni2   S    
C46   H25   S    
C44   H23   S    
C10   H6    S    
