data_mof_unit_61470.cif
_audit_creation_date              2012-12-10T21:15:22-0500
_audit_creation_method            fapswitch 2.2
_symmetry_space_group_name_H-M    P1
_symmetry_Int_Tables_number       1
_space_group_crystal_system       triclinic
_cell_length_a                    17.615839
_cell_length_b                    16.749558
_cell_length_c                    14.173169
_cell_angle_alpha                 90.060517
_cell_angle_beta                  90.494647
_cell_angle_gamma                 90.007242
_cell_volume                      4181.74184018

loop_
_atom_site_label
_atom_site_type_symbol
_atom_type_description
_atom_site_fract_x
_atom_site_fract_y
_atom_site_fract_z
_atom_type_partial_charge
C1    C     C_R   0.353004 0.500017 0.499262 1.024371
C2    C     C_R   0.548834 0.252681 0.558493 0.424515
C3    C     C_R   0.546568 0.747414 0.561304 0.422559
C4    C     C_R   0.451336 0.252565 0.441299 0.428072
C5    C     C_R   0.498597 0.875404 0.501638 -0.066739
C6    C     C_R   0.499677 0.124594 0.500381 -0.068333
C7    C     C_1   0.499042 0.963460 0.501097 0.250891
C8    C     C_1   0.499358 0.036545 0.500748 0.251639
C9    C     C_R   0.499907 0.499962 0.328747 0.875485
C10   C     C_R   0.500098 0.500037 0.671252 0.878769
C11   C     C_1   0.499906 0.499895 0.227422 -0.130446
C12   C     C_R   0.646883 0.500000 0.499332 1.033623
C13   C     C_1   0.500121 0.500101 0.772578 -0.134770
C14   C     C_1   0.499934 0.499903 0.142299 0.027715
C15   C     C_1   0.500108 0.500090 0.857703 0.026242
C16   C     C_1   0.499997 0.499963 0.042562 0.047925
C17   C     C_1   0.500056 0.500028 0.957439 0.047878
C18   C     C_R   0.848805 0.570845 0.504370 0.554001
C19   C     C_R   0.152067 0.429829 0.465278 0.552757
C20   C     C_R   0.151525 0.573106 0.491829 0.558458
C21   C     C_R   0.846102 0.432473 0.452767 0.558784
C22   C     C_R   0.770564 0.570056 0.514043 0.514946
C23   C     C_1   0.965891 0.502189 0.469064 0.286210
C24   C     C_R   0.230450 0.428680 0.475027 0.517384
C25   C     C_R   0.229896 0.572592 0.501703 0.510286
C26   C     C_R   0.767814 0.431157 0.462212 0.511974
C27   C     C_R   0.729391 0.500127 0.492887 -0.548112
C28   C     C_R   0.270203 0.500258 0.493022 -0.546838
C29   C     C_R   0.886024 0.502229 0.473691 -0.424223
C30   C     C_R   0.113181 0.501907 0.473476 -0.423941
C31   C     C_1   0.033244 0.502107 0.468997 0.286166
C32   C     C_R   0.451238 0.832713 0.439095 0.209843
C33   C     C_R   0.552106 0.167285 0.556315 0.206352
C34   C     C_R   0.548171 0.832871 0.561495 0.199873
C35   C     C_R   0.447596 0.167220 0.444013 0.200334
C36   C     C_R   0.451495 0.747247 0.441011 0.418704
F1    F     F_    0.888428 0.638129 0.525935 -0.544242
F2    F     F_    0.113974 0.360628 0.448613 -0.546184
F3    F     F_    0.112880 0.642820 0.501241 -0.543525
F4    F     F_    0.883056 0.365754 0.423729 -0.545352
F5    F     F_    0.735615 0.637220 0.545244 -0.551219
F6    F     F_    0.266882 0.357683 0.466146 -0.553408
F7    F     F_    0.265732 0.642687 0.520584 -0.568741
F8    F     F_    0.729928 0.363007 0.439752 -0.563437
H1    H     H_    0.398469 0.842794 0.318799 0.358759
H2    H     H_    0.651203 0.158165 0.616347 0.372653
H3    H     H_    0.644218 0.843178 0.628701 0.377736
H4    H     H_    0.348624 0.158348 0.383594 0.380022
H5    H     H_    0.355667 0.733585 0.374661 0.365319
H6    H     H_    0.605242 0.264973 0.675682 0.336775
H7    H     H_    0.598339 0.734265 0.681578 0.341581
H8    H     H_    0.395781 0.264185 0.323394 0.342227
N1    N     N_R   0.500000 0.707230 0.500000 -0.136530
N2    N     N_R   0.500000 0.292770 0.500000 -0.136196
O1    O     O_R   0.389110 0.566570 0.500000 -0.527673
O2    O     O_3   0.605641 0.124405 0.606843 -0.696174
O3    O     O_3   0.598429 0.876035 0.616820 -0.695726
O4    O     O_3   0.393947 0.124344 0.393544 -0.693496
O5    O     O_3   0.402707 0.702538 0.385788 -0.690995
O6    O     O_3   0.593689 0.297210 0.618847 -0.690155
O7    O     O_3   0.589904 0.702883 0.623202 -0.655730
O8    O     O_3   0.407363 0.296913 0.379909 -0.658218
O9    O     O_R   0.610890 0.433430 0.500000 -0.522816
O10   O     O_R   0.610890 0.566570 0.500000 -0.535246
O11   O     O_R   0.389110 0.433430 0.500000 -0.529879
O12   O     O_R   0.500000 0.566560 0.373710 -0.574574
O13   O     O_R   0.500000 0.433440 0.626290 -0.577684
O14   O     O_R   0.500000 0.566560 0.626290 -0.566191
O15   O     O_R   0.500000 0.433440 0.373710 -0.565976
O16   O     O_3   0.407461 0.875748 0.375819 -0.691508
Zn1   Zn    Zn3+2 0.500000 0.588860 0.500000 1.099552
Zn2   Zn    Zn3+2 0.500000 0.411140 0.500000 1.103895

loop_
_geom_bond_atom_site_label_1
_geom_bond_atom_site_label_2
_ccdc_geom_bond_type
C34   O3    S    
C1    O11   A    
C21   C26   A    
C10   C13   S    
H4    O4    S    
C19   F2    S    
C10   O14   A    
H3    O3    S    
O11   Zn2   S    
C24   F6    S    
O12   Zn1   S    
H7    O7    S    
C6    C33   A    
C9    C11   S    
C36   O5    S    
H6    O6    S    
C5    C34   A    
C5    C32   A    
C33   O2    S    
C3    O7    S    
C19   C24   A    
C1    O1    A    
C4    C35   A    
C26   F8    S    
C7    C8    T    
C18   C29   A    
C20   C30   A    
C10   O13   A    
O9    Zn2   S    
C25   C28   A    
C3    N1    A    
C4    O8    S    
C25   F7    S    
C26   C27   A    
C21   F4    S    
C18   C22   A    
O14   Zn1   S    
C6    C8    S    
C23   C29   S    
C2    C33   A    
C18   F1    S    
C9    O15   A    
C14   C16   S    
C22   C27   A    
C13   C15   T    
C30   C31   S    
C12   O10   A    
C11   C14   T    
C2    O6    S    
C22   F5    S    
C20   C25   A    
C12   C27   S    
N1    Zn1   S    
C32   C36   A    
O15   Zn2   S    
N2    Zn2   S    
C6    C35   A    
C5    C7    S    
O13   Zn2   S    
C2    N2    A    
O10   Zn1   S    
H2    O2    S    
C15   C17   S    
C20   F3    S    
C32   O16   S    
C9    O12   A    
C35   O4    S    
C36   N1    A    
C3    C34   A    
C4    N2    A    
H1    O16   S    
C12   O9    A    
C19   C30   A    
C21   C29   A    
H8    O8    S    
O1    Zn1   S    
C24   C28   A    
C23   C31   T    
C16   C17   T    
C1    C28   S    
H5    O5    S    
