data_mof_unit_11053.cif
_audit_creation_date              2012-12-10T16:48:40-0500
_audit_creation_method            fapswitch 2.2
_symmetry_space_group_name_H-M    P1
_symmetry_Int_Tables_number       1
_space_group_crystal_system       triclinic
_cell_length_a                    7.965862
_cell_length_b                    8.571831
_cell_length_c                    10.443452
_cell_angle_alpha                 91.757786
_cell_angle_beta                  97.301762
_cell_angle_gamma                 92.817714
_cell_volume                      705.971209293

loop_
_atom_site_label
_atom_site_type_symbol
_atom_type_description
_atom_site_fract_x
_atom_site_fract_y
_atom_site_fract_z
_atom_type_partial_charge
C1    C     C_R   0.543782 0.793863 0.498037 0.934208
C2    C     C_2   0.433507 0.042816 0.504633 -0.390343
C3    C     C_3   0.163616 0.328609 0.092322 -0.823325
C4    C     C_3   0.681740 0.258238 0.937156 -0.782170
C5    C     C_3   0.867339 0.262243 0.298084 -0.725818
C6    C     C_3   0.129130 0.716718 0.715354 -0.716521
C7    C     C_R   0.456483 0.206158 0.503018 0.948409
C8    C     C_R   0.570219 0.499947 0.737357 0.857989
C9    C     C_R   0.431457 0.507338 0.262342 0.863247
C10   C     C_2   0.608832 0.519687 0.877295 0.103138
C11   C     C_2   0.403664 0.526454 0.122358 0.096222
C12   C     C_2   0.526809 0.629049 0.936632 -0.278168
C13   C     C_2   0.513284 0.627185 0.074558 -0.242888
C14   C     C_2   0.567231 0.957248 0.498632 -0.393541
H1    H     H_    0.603173 0.702488 0.138578 0.157126
H2    H     H_    0.783739 0.193453 0.990857 0.229244
H3    H     H_    0.664816 0.214953 0.834719 0.245927
H4    H     H_    0.562683 0.234377 0.979883 0.257182
H5    H     H_    0.103746 0.343418 0.369558 0.277494
H6    H     H_    0.929210 0.176752 0.239863 0.193551
H7    H     H_    0.818545 0.354008 0.233650 0.241890
H8    H     H_    0.764204 0.194463 0.334166 0.270207
H9    H     H_    0.894029 0.657854 0.628325 0.280127
H10   H     H_    0.075335 0.812313 0.768901 0.197172
H11   H     H_    0.250374 0.763906 0.688873 0.267401
H12   H     H_    0.446306 0.707423 0.880534 0.152842
H13   H     H_    0.148846 0.617800 0.780446 0.228670
H14   H     H_    0.694663 0.006549 0.494189 0.191538
H15   H     H_    0.306238 0.993390 0.509910 0.197377
H16   H     H_    0.247848 0.464180 0.948512 0.253069
H17   H     H_    0.093564 0.249113 0.015705 0.249924
H18   H     H_    0.072873 0.405504 0.131330 0.253881
H19   H     H_    0.224788 0.255385 0.168947 0.235409
H20   H     H_    0.774827 0.464644 0.038503 0.238167
N1    N     N_2   0.940600 0.458860 0.467170 0.027169
N2    N     N_2   0.059400 0.541140 0.532830 0.030340
N3    N     N_2   0.289530 0.423107 0.037958 -0.300707
N4    N     N_2   0.727963 0.423921 0.946529 -0.294576
N5    N     N_2   0.989404 0.329210 0.401751 -0.218468
N6    N     N_2   0.012344 0.667783 0.602743 -0.219611
O1    O     O_R   0.391630 0.738350 0.508060 -0.608482
O2    O     O_R   0.608370 0.261650 0.491940 -0.604182
O3    O     O_R   0.674540 0.711990 0.487010 -0.645133
O4    O     O_R   0.325460 0.288010 0.512990 -0.631661
O5    O     O_R   0.411370 0.508250 0.688780 -0.622575
O6    O     O_R   0.588630 0.491750 0.311220 -0.621753
O7    O     O_R   0.694270 0.481880 0.667740 -0.621770
O8    O     O_R   0.305730 0.518120 0.332260 -0.632333
Zn1   Zn    Zn3+2 0.311100 0.517600 0.514050 0.946739
Zn2   Zn    Zn3+2 0.688900 0.482400 0.485950 0.948363

loop_
_geom_bond_atom_site_label_1
_geom_bond_atom_site_label_2
_ccdc_geom_bond_type
O4    Zn1   S    
C4    H2    S    
N1    N5    S    
N2    Zn1   S    
O3    Zn2   S    
C9    C11   S    
O6    Zn2   S    
N1    N2    D    
O5    Zn1   S    
C10   N4    S    
C6    H10   S    
N1    Zn2   S    
C13   H1    S    
C8    O7    A    
C4    H4    S    
C9    O6    A    
C5    H6    S    
C7    O4    A    
C3    H17   S    
C11   C13   D    
C10   C12   D    
O2    Zn2   S    
C2    H15   S    
C4    H3    S    
H5    N5    S    
C1    O1    A    
O8    Zn1   S    
C4    N4    S    
O7    Zn2   S    
C5    N5    S    
C3    H18   S    
C2    C14   D    
C6    N6    S    
C6    H11   S    
C3    H19   S    
H9    N6    S    
N2    N6    S    
C5    H7    S    
C12   C13   S    
C3    N3    S    
C9    O8    A    
C8    C10   S    
C7    O2    A    
O1    Zn1   S    
C11   N3    S    
C8    O5    A    
C1    C14   S    
C2    C7    S    
C14   H14   S    
H20   N4    S    
C1    O3    A    
C5    H8    S    
C6    H13   S    
H16   N3    S    
C12   H12   S    
