data_mof_unit_58173.cif
_audit_creation_date              2013-03-05T16:29:49-0500
_audit_creation_method            fapswitch 2.2
_symmetry_space_group_name_H-M    P1
_symmetry_Int_Tables_number       1
_space_group_crystal_system       triclinic
_cell_length_a                    19.38451
_cell_length_b                    18.209368
_cell_length_c                    9.059355
_cell_angle_alpha                 90.005275
_cell_angle_beta                  91.115031
_cell_angle_gamma                 89.919638
_cell_volume                      3197.15951724

loop_
_atom_site_label
_atom_site_type_symbol
_atom_site_description
_atom_site_fract_x
_atom_site_fract_y
_atom_site_fract_z
_atom_type_partial_charge
O1    O     O_R   0.400190 0.561980 0.499980 -0.557789
O2    O     O_R   0.599810 0.438020 0.500020 -0.563552
O3    O     O_R   0.599810 0.561980 0.500020 -0.558578
O4    O     O_R   0.400190 0.438020 0.499980 -0.563650
C1    C     C_R   0.367889 0.500019 0.499357 0.788111
C2    C     C_R   0.632108 0.499932 0.500592 0.787522
O5    O     O_R   0.500000 0.561940 0.288400 -0.557620
O6    O     O_R   0.500000 0.438060 0.711600 -0.562552
O7    O     O_R   0.500000 0.561940 0.711600 -0.556831
O8    O     O_R   0.500000 0.438060 0.288400 -0.561933
C3    C     C_R   0.499948 0.499991 0.220534 0.850766
C4    C     C_R   0.500081 0.499996 0.779467 0.852277
Cu1   Cu    Cu3+1 0.500000 0.573360 0.500000 0.980807
Cu2   Cu    Cu3+1 0.500000 0.426640 0.500000 0.971113
C5    C     C_1   0.500005 0.499971 0.065545 -0.211199
C6    C     C_1   0.500036 0.499978 0.934455 -0.209946
C7    C     C_R   0.741981 0.460751 0.391968 -0.202286
C8    C     C_R   0.255889 0.538381 0.389643 -0.205459
C9    C     C_R   0.258028 0.460822 0.607498 -0.203345
C10   C     C_R   0.744083 0.537893 0.610453 -0.205308
H1    H     H_    0.713604 0.431167 0.306674 0.138869
H2    H     H_    0.282591 0.568083 0.304375 0.142408
H3    H     H_    0.286416 0.431054 0.692618 0.138830
H4    H     H_    0.717362 0.567454 0.696023 0.141441
C11   C     C_R   0.813794 0.461521 0.390452 -0.050073
C12   C     C_R   0.184031 0.536972 0.387718 -0.051992
C13   C     C_R   0.186214 0.461575 0.608765 -0.050025
C14   C     C_R   0.815941 0.536490 0.612119 -0.051767
H5    H     H_    0.840225 0.432866 0.303291 0.157573
H6    H     H_    0.155883 0.565535 0.300638 0.158832
H7    H     H_    0.159793 0.432732 0.695575 0.157627
H8    H     H_    0.844077 0.564901 0.699323 0.158760
C15   C     C_R   0.851249 0.498937 0.501181 0.220498
C16   C     C_R   0.148740 0.499173 0.498186 0.220612
C17   C     C_R   0.707080 0.499648 0.500906 -0.035936
C18   C     C_R   0.292914 0.499912 0.498980 -0.035096
C19   C     C_R   0.963596 0.566252 0.498560 0.229870
C20   C     C_R   0.036356 0.431792 0.496881 0.230674
C21   C     C_R   0.036124 0.566309 0.500951 0.229988
C22   C     C_R   0.963897 0.431727 0.501481 0.230705
C23   C     C_R   0.072563 0.499088 0.498425 -0.263282
C24   C     C_R   0.927424 0.498966 0.500600 -0.263272
C25   C     C_R   0.452860 0.721465 0.413673 0.324195
C26   C     C_R   0.538029 0.278693 0.604963 0.315978
C27   C     C_R   0.547360 0.721278 0.585668 0.326798
C28   C     C_R   0.462336 0.278506 0.394907 0.315216
C29   C     C_R   0.452127 0.799858 0.411641 0.076217
C30   C     C_R   0.537251 0.200509 0.609778 0.070379
C31   C     C_R   0.549294 0.799493 0.584637 0.075171
C32   C     C_R   0.463943 0.200280 0.389720 0.071767
C33   C     C_R   0.500985 0.839176 0.497719 -0.047366
C34   C     C_R   0.500738 0.160856 0.499853 -0.045589
N1    N     N_R   0.500000 0.683620 0.500000 -0.216572
N2    N     N_R   0.500000 0.316380 0.500000 -0.215332
C35   C     C_R   0.551326 0.961495 0.422092 -0.188627
C36   C     C_R   0.452195 0.038560 0.580461 -0.183324
C37   C     C_R   0.451451 0.961274 0.577739 -0.169388
C38   C     C_R   0.550408 0.038778 0.420149 -0.183282
H9    H     H_    0.590304 0.932475 0.360873 0.150280
H10   H     H_    0.413891 0.067550 0.643612 0.139958
H11   H     H_    0.412589 0.932108 0.638786 0.144111
H12   H     H_    0.588704 0.067922 0.357481 0.141873
C39   C     C_R   0.501114 0.078246 0.500115 0.236236
C40   C     C_R   0.501140 0.921807 0.498883 0.221739
N3    N     N_R   0.926739 0.634795 0.494598 0.157164
O9    O     O_R   0.939464 0.684970 0.593683 -0.279461
O10   O     O_R   0.880492 0.647335 0.391603 -0.327329
N4    N     N_R   0.073131 0.363269 0.491336 0.156925
O11   O     O_R   0.062674 0.312805 0.590067 -0.281539
O12   O     O_R   0.117267 0.351165 0.387658 -0.335822
N5    N     N_R   0.072706 0.634902 0.505467 0.157118
O13   O     O_R   0.059812 0.685228 0.406729 -0.279524
O14   O     O_R   0.118850 0.647348 0.608658 -0.327682
N6    N     N_R   0.927398 0.363132 0.506410 0.156901
O15   O     O_R   0.938019 0.312925 0.407156 -0.281592
O16   O     O_R   0.883375 0.350692 0.610085 -0.335679
N7    N     N_2   0.402689 0.681322 0.330448 -0.374283
H13   H     H_    0.352573 0.689060 0.363300 0.237801
C41   C     C_3   0.410407 0.679718 0.171779 -0.640260
H14   H     H_    0.376416 0.721441 0.118428 0.210947
H15   H     H_    0.394328 0.625040 0.129535 0.225508
H16   H     H_    0.464847 0.689365 0.140418 0.225149
N8    N     N_2   0.578405 0.318833 0.709684 -0.383265
H17   H     H_    0.563998 0.312186 0.817808 0.224006
C42   C     C_3   0.652351 0.317165 0.689914 -0.565611
H18   H     H_    0.675975 0.272014 0.755587 0.211175
H19   H     H_    0.674890 0.369707 0.729814 0.225179
H20   H     H_    0.665410 0.310221 0.571698 0.234500
N9    N     N_2   0.594804 0.681037 0.675925 -0.373353
H21   H     H_    0.645792 0.688003 0.648872 0.236529
C43   C     C_3   0.583156 0.683164 0.833368 -0.632612
H22   H     H_    0.612391 0.728912 0.885337 0.210268
H23   H     H_    0.601945 0.631151 0.883838 0.223243
H24   H     H_    0.527380 0.689312 0.857291 0.228069
N10   N     N_2   0.421414 0.318534 0.290816 -0.383350
H25   H     H_    0.435486 0.311848 0.182485 0.224172
C44   C     C_3   0.347574 0.316063 0.311594 -0.569097
H26   H     H_    0.324763 0.268363 0.252578 0.213707
H27   H     H_    0.323832 0.366774 0.265237 0.224833
H28   H     H_    0.335013 0.312755 0.430679 0.236352
N11   N     N_2   0.401136 0.839070 0.327142 -0.408823
H29   H     H_    0.354069 0.813266 0.316141 0.266247
C45   C     C_3   0.424502 0.870533 0.189926 -0.665895
H30   H     H_    0.380144 0.895954 0.129560 0.227922
H31   H     H_    0.447606 0.827830 0.118771 0.214574
H32   H     H_    0.463224 0.914033 0.210828 0.239774
N12   N     N_2   0.571701 0.161708 0.726708 -0.428591
H33   H     H_    0.572793 0.186874 0.828597 0.247404
C46   C     C_3   0.635001 0.123901 0.690073 -0.617878
H34   H     H_    0.627567 0.063907 0.703488 0.237501
H35   H     H_    0.677605 0.141286 0.765934 0.219033
H36   H     H_    0.650724 0.135406 0.574947 0.227518
N13   N     N_2   0.599918 0.838480 0.670113 -0.413498
H37   H     H_    0.647341 0.813620 0.684620 0.264740
C47   C     C_3   0.575571 0.877895 0.798263 -0.644180
H38   H     H_    0.585429 0.937420 0.783773 0.240403
H39   H     H_    0.603760 0.859191 0.899313 0.210072
H40   H     H_    0.519432 0.869487 0.815055 0.218108
N14   N     N_2   0.430756 0.161328 0.271421 -0.429321
H41   H     H_    0.429205 0.186988 0.170054 0.247060
C48   C     C_3   0.368742 0.120899 0.306074 -0.617981
H42   H     H_    0.378315 0.061299 0.290743 0.245452
H43   H     H_    0.325738 0.137386 0.230295 0.217743
H44   H     H_    0.352341 0.130939 0.421295 0.227299

loop_
_geom_bond_atom_site_label_1
_geom_bond_atom_site_label_2
_geom_bond_distance
_ccdc_geom_bond_type
C38   H12   1.082878 S    
C31   N13   1.427892 S    
N11   H29   1.029943 S    
C29   N11   1.428823 S    
C35   H9    1.082980 S    
N10   H25   1.030875 S    
C8    C12   1.392978 A    
C26   N8    1.421068 S    
C44   H26   1.107978 S    
C21   C23   1.412783 A    
N7    H13   1.031047 S    
C2    C17   1.453239 S    
O5    C3    1.284664 A    
N6    O16   1.301340 A    
O1    C1    1.291089 A    
C15   C24   1.476716 S    
C30   C34   1.409936 A    
C9    C18   1.399219 A    
C46   H35   1.110485 S    
C30   N12   1.427799 S    
N3    O10   1.301289 A    
C5    C6    1.187602 T    
C1    C18   1.453301 S    
C36   C37   1.407621 A    
C19   C24   1.412836 A    
O7    Cu1   1.928224 S    
C48   H44   1.112112 S    
C10   C17   1.399279 A    
C3    C5    1.404125 S    
C25   N1    1.375526 A    
C28   N10   1.420981 S    
C10   H4    1.083395 S    
N4    O11   1.301247 A    
C31   C33   1.410200 A    
C19   N3    1.437374 S    
C32   C34   1.410872 A    
N12   H33   1.030374 S    
N9    C43   1.448932 S    
C9    C13   1.392408 A    
O3    Cu1   1.945539 S    
O3    C2    1.290913 A    
C42   H19   1.109913 S    
C27   N1    1.374527 A    
N11   C45   1.449627 S    
Cu1   Cu2   2.671677 S    
N12   C46   1.450215 S    
O2    C2    1.290296 A    
C16   C23   1.476701 S    
C44   H27   1.110061 S    
C12   C16   1.404056 A    
Cu1   N1    2.007765 S    
N14   C48   1.450119 S    
C13   C16   1.403694 A    
C11   H5    1.083139 S    
C36   C39   1.407178 A    
N6    O15   1.301244 A    
C13   H7    1.083115 S    
C32   N14   1.428216 S    
C4    C6    1.404111 S    
C14   H8    1.083131 S    
C20   C23   1.412970 A    
O8    Cu2   1.928225 S    
C46   H36   1.112278 S    
C43   H22   1.107975 S    
N5    O14   1.301284 A    
C29   C33   1.410923 A    
C10   C14   1.392926 A    
C47   H39   1.110265 S    
C42   H18   1.108180 S    
C7    H1    1.083545 S    
C36   H10   1.082895 S    
C9    H3    1.083513 S    
C43   H23   1.109682 S    
N8    H17   1.030965 S    
C27   C31   1.424826 A    
O6    C4    1.284456 A    
C47   H40   1.112533 S    
C35   C40   1.407493 A    
C28   N2    1.374543 A    
N7    C41   1.448381 S    
C45   H31   1.109479 S    
C48   H42   1.109932 S    
Cu2   N2    2.007765 S    
C20   N4    1.437523 S    
C14   C15   1.404086 A    
C12   H6    1.083099 S    
O1    Cu1   1.946121 S    
C44   H28   1.112229 S    
C27   N9    1.421358 S    
C37   C40   1.406890 A    
C41   H15   1.109547 S    
N13   H37   1.030239 S    
C42   H20   1.112406 S    
C38   C39   1.406863 A    
O6    Cu2   1.928186 S    
N8    C42   1.448292 S    
C8    H2    1.083319 S    
C33   C40   1.504701 S    
O4    C1    1.290157 A    
C34   C39   1.504283 S    
C41   H16   1.112386 S    
N14   H41   1.030295 S    
N10   C44   1.448065 S    
C37   H11   1.082964 S    
C25   N7    1.421970 S    
C28   C32   1.425534 A    
C7    C11   1.392479 A    
N5    O13   1.301241 A    
C19   C21   1.405677 A    
C26   C30   1.424467 A    
C46   H34   1.109125 S    
C43   H24   1.112319 S    
C20   C22   1.406023 A    
C8    C18   1.399278 A    
C22   C24   1.412943 A    
C22   N6    1.437519 S    
C45   H32   1.105808 S    
O4    Cu2   1.945543 S    
O2    Cu2   1.946117 S    
O7    C4    1.284678 A    
C48   H43   1.110571 S    
O8    C3    1.284468 A    
C41   H14   1.109622 S    
C26   N2    1.374774 A    
O5    Cu1   1.928187 S    
N4    O12   1.301337 A    
N3    O9    1.301243 A    
C35   C38   1.407475 A    
C45   H30   1.110559 S    
C21   N5    1.437346 S    
C7    C17   1.399246 A    
N9    H21   1.030943 S    
C25   C29   1.427653 A    
C47   H38   1.109151 S    
C11   C15   1.403771 A    
N13   C47   1.451171 S    
