data_mof_unit_39468.cif
_audit_creation_date              2012-12-10T19:15:20-0500
_audit_creation_method            fapswitch 2.2
_symmetry_space_group_name_H-M    P1
_symmetry_Int_Tables_number       1
_space_group_crystal_system       triclinic
_cell_length_a                    10.6344
_cell_length_b                    9.679955
_cell_length_c                    23.459487
_cell_angle_alpha                 90.313851
_cell_angle_beta                  89.939925
_cell_angle_gamma                 89.942132
_cell_volume                      2414.8928333

loop_
_atom_site_label
_atom_site_type_symbol
_atom_type_description
_atom_site_fract_x
_atom_site_fract_y
_atom_site_fract_z
_atom_type_partial_charge
C1    C     C_R   0.257578 0.500143 0.499786 0.893266
C2    C     C_R   0.259119 0.585994 0.970566 0.518125
C3    C     C_R   0.262972 0.586713 0.030509 -0.278182
C4    C     C_R   0.371284 0.545627 0.059855 -0.081567
C5    C     C_R   0.479947 0.508361 0.029336 -0.021780
C6    C     C_R   0.590875 0.473123 0.058687 0.015531
C7    C     C_R   0.699019 0.434908 0.028200 -0.184928
C8    C     C_R   0.697515 0.432449 0.969033 -0.186228
C9    C     C_R   0.373985 0.541831 0.119466 0.541587
C10   C     C_R   0.591063 0.477548 0.118118 0.502232
C11   C     C_R   0.525567 0.385276 0.235993 -0.213144
C12   C     C_R   0.501713 0.499703 0.389215 0.931888
C13   C     C_R   0.541195 0.384934 0.295062 0.434783
C14   C     C_R   0.499675 0.500126 0.327014 -0.153397
C15   C     C_R   0.455850 0.618525 0.298932 -0.300815
C16   C     C_R   0.450780 0.621659 0.239885 -0.100771
C17   C     C_R   0.484300 0.504512 0.208223 0.244609
C18   C     C_R   0.462258 0.381567 0.761772 0.144781
C19   C     C_R   0.469468 0.379765 0.702487 -0.280829
C20   C     C_R   0.494570 0.501891 0.672768 -0.103391
C21   C     C_R   0.512672 0.626224 0.702582 -0.200556
C22   C     C_R   0.506512 0.628995 0.761710 0.105373
C23   C     C_R   0.742567 0.500296 0.500330 0.858352
C24   C     C_R   0.480932 0.506167 0.791282 0.289694
C25   C     C_3   0.071384 0.651150 0.505447 -0.454355
C26   C     C_3   0.072371 0.419556 0.551647 -0.457790
C27   C     C_3   0.928647 0.651579 0.504718 -0.406718
C28   C     C_3   0.928350 0.414929 0.550433 -0.407486
C29   C     C_3   0.071135 0.432807 0.441688 0.253351
C30   C     C_3   0.121119 0.500156 0.498943 0.172343
C31   C     C_3   0.878662 0.501165 0.499689 0.155147
C32   C     C_3   0.924928 0.437710 0.442719 -0.479516
C33   C     C_3   0.376813 0.081225 0.479968 -0.228074
C34   C     C_3   0.376861 0.918532 0.479908 -0.240372
C35   C     C_3   0.596942 0.080734 0.459885 -0.244571
C36   C     C_3   0.597287 0.918026 0.459917 -0.237906
C37   C     C_3   0.525260 0.081918 0.556379 -0.229867
C38   C     C_3   0.525205 0.919403 0.556385 -0.229515
C39   C     C_R   0.499414 0.500423 0.610710 0.891988
C40   C     C_R   0.586426 0.470392 0.880047 0.512846
C41   C     C_R   0.371271 0.542883 0.879831 0.536084
C42   C     C_R   0.368149 0.546102 0.939777 -0.126723
C43   C     C_R   0.478483 0.507737 0.969441 -0.086226
C44   C     C_R   0.588290 0.469613 0.939360 0.024197
H1    H     H_    0.454598 0.283208 0.679915 0.154331
H2    H     H_    0.532576 0.721245 0.680097 0.162256
H3    H     H_    0.107567 0.719906 0.471374 0.174744
H4    H     H_    0.110880 0.312873 0.553353 0.174783
H5    H     H_    0.104262 0.696690 0.546539 0.180326
H6    H     H_    0.103876 0.471680 0.591592 0.175632
H7    H     H_    0.893119 0.701338 0.544539 0.179754
H8    H     H_    0.890334 0.456322 0.591348 0.172250
H9    H     H_    0.895627 0.714540 0.468035 0.171570
H10   H     H_    0.897097 0.305562 0.546406 0.174530
H11   H     H_    0.887696 0.499533 0.406570 0.143419
H12   H     H_    0.884987 0.332348 0.437300 0.164621
H13   H     H_    0.353962 0.119661 0.436585 0.170873
H14   H     H_    0.354162 0.879089 0.436491 0.149190
H15   H     H_    0.181840 0.622432 0.054228 0.200991
H16   H     H_    0.300763 0.119111 0.508648 0.149847
H17   H     H_    0.300753 0.881450 0.508518 0.146037
H18   H     H_    0.579633 0.117954 0.415912 0.212928
H19   H     H_    0.581549 0.878960 0.415830 0.157729
H20   H     H_    0.617407 0.120791 0.572114 0.147621
H21   H     H_    0.617325 0.880670 0.572123 0.143724
H22   H     H_    0.452974 0.120080 0.586948 0.144513
H23   H     H_    0.452928 0.882078 0.586941 0.148408
H24   H     H_    0.691283 0.119244 0.472695 0.140804
H25   H     H_    0.691754 0.880316 0.472887 0.144776
H26   H     H_    0.785161 0.406867 0.049882 0.190953
H27   H     H_    0.782526 0.402510 0.946678 0.179780
H28   H     H_    0.550955 0.294462 0.211348 0.163614
H29   H     H_    0.425775 0.709131 0.322616 0.178731
H30   H     H_    0.420585 0.715123 0.218729 0.165983
N1    N     N_R   0.479322 0.506666 0.851951 -0.355208
N2    N     N_R   0.482890 0.508384 0.147289 -0.342016
N3    N     N_3   0.499750 0.138610 0.498760 -0.040330
N4    N     N_3   0.499750 0.861390 0.498760 -0.032466
O1    O     O_R   0.314910 0.616040 0.499990 -0.641496
O2    O     O_R   0.314910 0.383960 0.499990 -0.619432
O3    O     O_R   0.500080 0.616070 0.416130 -0.638327
O4    O     O_R   0.500080 0.383930 0.416130 -0.571315
O5    O     O_R   0.685320 0.616040 0.499970 -0.638945
O6    O     O_R   0.685320 0.383960 0.499970 -0.635167
O7    O     O_R   0.500150 0.616010 0.583820 -0.634049
O8    O     O_R   0.500150 0.383990 0.583820 -0.632499
O9    O     O_2   0.690718 0.435585 0.850362 -0.566694
O10   O     O_2   0.267845 0.574449 0.849270 -0.507714
O11   O     O_2   0.268310 0.569355 0.149382 -0.565120
O12   O     O_2   0.698845 0.452392 0.146641 -0.583200
Zn1   Zn    Zn3+2 0.500150 0.654960 0.499970 0.903228
Zn2   Zn    Zn3+2 0.500150 0.345040 0.499970 0.929386
O13   O     O_3   0.156626 0.640764 0.941586 -0.560712
C45   C     C_3   0.040499 0.584118 0.959632 0.123115
H31   H     H_    0.048326 0.497869 0.990766 0.108217
H32   H     H_    0.992500 0.540398 0.921588 0.194034
C46   C     C_3   0.957749 0.698696 0.984036 -0.816463
H33   H     H_    0.941664 0.779178 0.951273 0.270837
H34   H     H_    0.865595 0.656089 0.997260 0.223469
H35   H     H_    0.003315 0.747037 0.021688 0.252081
N5    N     N_3   0.528096 0.756788 0.791144 -0.465876
H36   H     H_    0.448162 0.780479 0.815250 0.211472
H37   H     H_    0.603483 0.743137 0.819126 0.200530
N6    N     N_3   0.120011 0.509730 0.392243 -0.459958
H38   H     H_    0.078743 0.607517 0.390006 0.172166
H39   H     H_    0.093756 0.458995 0.354613 0.190578
N7    N     N_3   0.114096 0.288129 0.436627 -0.448401
H40   H     H_    0.087406 0.248084 0.396937 0.174089
H41   H     H_    0.069519 0.226119 0.466837 0.163833
O14   O     O_3   0.597360 0.272764 0.321231 -0.619561
C47   C     C_3   0.727637 0.274637 0.308651 0.119458
H42   H     H_    0.772399 0.368833 0.327028 0.129613
H43   H     H_    0.745278 0.271682 0.261853 0.173363
C48   C     C_3   0.791166 0.148219 0.333966 -0.881467
H44   H     H_    0.742577 0.052653 0.319638 0.265405
H45   H     H_    0.890867 0.143899 0.319931 0.217574
H46   H     H_    0.789460 0.153998 0.381074 0.230174
N8    N     N_3   0.436655 0.257190 0.792413 -0.441551
H47   H     H_    0.506328 0.185044 0.781982 0.199227
H48   H     H_    0.350528 0.218166 0.778171 0.189934

loop_
_geom_bond_atom_site_label_1
_geom_bond_atom_site_label_2
_ccdc_geom_bond_type
N3    Zn2   S    
O13   C45   S    
C11   C13   A    
C41   C42   A    
C19   C20   A    
C37   H20   S    
C7    H26   S    
N6    H39   S    
C46   H33   S    
O7    Zn1   S    
C7    C8    A    
C13   O14   S    
C22   N5    S    
C23   O5    A    
C16   H30   S    
C40   O9    S    
C29   C32   S    
C26   H6    S    
C5    C6    A    
C15   C16   A    
O4    Zn2   S    
C18   C19   A    
N8    H47   S    
O14   C47   S    
C10   N2    A    
C35   C36   S    
C16   C17   A    
C17   N2    S    
N7    H40   S    
C9    N2    A    
C47   C48   S    
C36   H19   S    
C18   N8    S    
C32   H11   S    
O1    Zn1   S    
C26   H4    S    
C5    C43   A    
N5    H37   S    
C21   C22   A    
N7    H41   S    
N6    H38   S    
C46   H34   S    
C27   H7    S    
C48   H44   S    
N8    H48   S    
C2    O13   S    
C23   O6    A    
C27   C31   S    
N5    H36   S    
C9    O11   S    
C20   C39   S    
C28   H10   S    
C11   H28   S    
C38   N4    S    
C45   C46   S    
C37   N3    S    
C35   N3    S    
C34   H17   S    
C29   N6    S    
C23   C31   S    
O2    Zn2   S    
C43   C44   A    
C37   C38   S    
C41   N1    A    
C31   C32   S    
C38   H21   S    
C37   H22   S    
C27   H9    S    
C33   C34   S    
C12   O4    A    
C47   H43   S    
C20   C21   A    
C45   H32   S    
C15   H29   S    
C12   C14   S    
C26   C30   S    
C33   H16   S    
C1    O1    A    
C18   C24   A    
C42   C43   A    
C39   O7    A    
C3    C4    A    
C46   H35   S    
C36   H25   S    
C21   H2    S    
C25   C30   S    
C41   O10   S    
C25   H3    S    
C11   C17   A    
C8    H27   S    
C33   H13   S    
C47   H42   S    
C28   C31   S    
C8    C44   A    
C4    C5    A    
C6    C10   A    
C48   H45   S    
C19   H1    S    
C24   N1    S    
C6    C7    A    
N4    Zn1   S    
C25   C27   S    
O5    Zn1   S    
C26   C28   S    
C40   N1    A    
C2    C3    A    
O8    Zn2   S    
C34   N4    S    
C28   H8    S    
C33   N3    S    
C35   H24   S    
C2    C42   A    
C1    C30   S    
C12   O3    A    
C35   H18   S    
C22   C24   A    
C45   H31   S    
C25   H5    S    
C48   H46   S    
C29   C30   S    
O3    Zn1   S    
C40   C44   A    
C38   H23   S    
C10   O12   S    
C34   H14   S    
C1    O2    A    
C14   C15   A    
C29   N7    S    
C36   N4    S    
O6    Zn2   S    
C39   O8    A    
C4    C9    A    
C13   C14   A    
C32   H12   S    
C3    H15   S    
