data_mof_unit_12710.cif
_audit_creation_date              2012-12-11T14:46:08-0500
_audit_creation_method            fapswitch 2.2
_symmetry_space_group_name_H-M    P1
_symmetry_Int_Tables_number       1
_space_group_crystal_system       triclinic
_cell_length_a                    10.906095
_cell_length_b                    10.934638
_cell_length_c                    18.873603
_cell_angle_alpha                 89.853108
_cell_angle_beta                  90.100667
_cell_angle_gamma                 119.872101
_cell_volume                      1951.71282032

loop_
_atom_site_label
_atom_site_type_symbol
_atom_type_description
_atom_site_fract_x
_atom_site_fract_y
_atom_site_fract_z
_atom_type_partial_charge
C1    C     C_R   0.864630 0.637173 0.603518 0.547268
C2    C     C_R   0.964014 0.176641 0.712480 0.025964
C3    C     C_R   0.964125 0.189453 0.787409 0.049517
C4    C     C_R   0.270094 0.632400 0.603864 0.544405
C5    C     C_R   0.717401 0.120491 0.708898 0.016343
C6    C     C_R   0.725833 0.155672 0.780781 0.022329
C7    C     C_R   0.586401 0.067740 0.673308 -0.067499
C8    C     C_R   0.475601 0.077202 0.704106 -0.118474
C9    C     C_R   0.492912 0.136194 0.770959 -0.136281
C10   C     C_R   0.617281 0.177146 0.808672 -0.075180
C11   C     C_R   0.842771 0.153694 0.672570 -0.047893
C12   C     C_R   0.421587 0.623860 0.777628 -0.122617
C13   C     C_R   0.724780 0.536192 0.713296 -0.162926
C14   C     C_R   0.715955 0.548264 0.786287 -0.216926
C15   C     C_R   0.804281 0.677430 0.819173 0.028850
C16   C     C_R   0.861077 0.222117 0.601982 0.527466
C17   C     C_R   0.893588 0.796651 0.777701 0.361934
C18   C     C_R   0.898150 0.785422 0.705559 -0.102941
C19   C     C_R   0.820313 0.654437 0.673305 -0.035517
C20   C     C_R   0.402339 0.617363 0.295734 -0.137240
C21   C     C_R   0.422825 0.626103 0.223515 -0.123085
C22   C     C_R   0.373893 0.698784 0.181012 0.038695
C23   C     C_R   0.400012 0.614714 0.705474 -0.134857
C24   C     C_R   0.312069 0.770566 0.211990 -0.095887
C25   C     C_R   0.290746 0.761370 0.284873 -0.113216
C26   C     C_R   0.331184 0.679975 0.326459 0.021622
C27   C     C_R   0.714856 0.129541 0.292975 -0.095545
C28   C     C_R   0.865065 0.638681 0.397619 0.545598
C29   C     C_R   0.706748 0.124890 0.220553 0.228242
C30   C     C_R   0.821830 0.135071 0.180121 0.035860
C31   C     C_R   0.944788 0.156961 0.214947 -0.186854
C32   C     C_R   0.955809 0.174673 0.288162 -0.152737
C33   C     C_R   0.841348 0.164633 0.326915 -0.015872
C34   C     C_R   0.322917 0.671680 0.675345 0.025075
C35   C     C_R   0.896627 0.787533 0.294997 -0.139193
C36   C     C_R   0.890414 0.797979 0.222676 -0.125138
C37   C     C_R   0.805713 0.677758 0.181597 0.024414
C38   C     C_R   0.721175 0.547451 0.214272 -0.145788
C39   C     C_R   0.729550 0.536184 0.287306 -0.133011
C40   C     C_R   0.272304 0.635467 0.396808 0.546198
C41   C     C_R   0.821758 0.655792 0.327404 0.020587
C42   C     C_R   0.808075 0.106812 0.895415 0.535833
C43   C     C_R   0.400396 0.702692 0.895150 0.541883
C44   C     C_R   0.793953 0.697595 0.894552 0.565274
C45   C     C_R   0.840482 0.166376 0.822249 -0.034263
C46   C     C_R   0.801916 0.099175 0.105019 0.555732
C47   C     C_R   0.402936 0.707093 0.105817 0.546882
C48   C     C_R   0.795381 0.698724 0.106539 0.545111
C49   C     C_R   0.861314 0.226171 0.396877 0.546338
C50   C     C_R   0.273024 0.743723 0.717725 -0.126055
C51   C     C_R   0.297778 0.755756 0.790250 -0.130009
C52   C     C_R   0.368220 0.691700 0.820435 0.035337
C53   C     C_R   0.090350 0.232223 0.825591 -0.013334
C54   C     C_R   0.212262 0.253664 0.791161 -0.072301
C55   C     C_R   0.208952 0.227366 0.718918 -0.101097
C56   C     C_R   0.085784 0.187119 0.680021 -0.059405
Cl1   Cl    Cl    0.549805 0.113964 0.186702 -0.646901
Cr1   Cr    Cr6+3 0.791660 0.390250 0.499930 1.014347
Cr2   Cr    Cr6+3 0.098520 0.708290 0.500540 1.006762
Cr3   Cr    Cr6+3 0.109770 0.401430 0.499480 1.010051
Cr4   Cr    Cr6+3 0.874790 0.925890 0.000070 1.058525
Cr5   Cr    Cr6+3 0.574120 0.948670 0.999300 1.069622
Cr6   Cr    Cr6+3 0.551420 0.625320 0.000920 1.017762
F1    F     F_    0.978694 0.925322 0.806435 -0.633998
H1    H     H_    0.209657 0.785351 0.695429 0.142645
H2    H     H_    0.276883 0.829464 0.179852 0.161346
H3    H     H_    0.258775 0.810669 0.822698 0.139676
H4    H     H_    0.234540 0.810073 0.307777 0.146843
H5    H     H_    0.625148 0.120137 0.322347 0.167115
H6    H     H_    0.032947 0.163345 0.185487 0.134970
H7    H     H_    0.055194 0.202279 0.313799 0.144333
H8    H     H_    0.966961 0.881217 0.324891 0.132271
H9    H     H_    0.952627 0.901238 0.198965 0.144990
H10   H     H_    0.651836 0.454985 0.183408 0.167741
H11   H     H_    0.670610 0.432888 0.311543 0.155194
H12   H     H_    0.378014 0.042723 0.675235 0.108483
H13   H     H_    0.479898 0.577053 0.800144 0.138755
H14   H     H_    0.438063 0.557919 0.673798 0.127724
H15   H     H_    0.309034 0.289431 0.820922 0.093583
H16   H     H_    0.302465 0.239170 0.692740 0.091844
H17   H     H_    0.096655 0.253702 0.881834 0.113693
H18   H     H_    0.086417 0.161244 0.624858 0.121235
H19   H     H_    0.628269 0.227883 0.859260 0.135504
H20   H     H_    0.571879 0.024802 0.620311 0.124072
H21   H     H_    0.409122 0.147982 0.794263 0.118571
H22   H     H_    0.663112 0.433441 0.689022 0.158121
H23   H     H_    0.642904 0.457198 0.817028 0.121258
H24   H     H_    0.971142 0.878046 0.675620 0.145445
H25   H     H_    0.435238 0.555333 0.326918 0.132487
H26   H     H_    0.476108 0.574382 0.200762 0.147744
O1    O     O_R   0.766500 0.250040 0.579790 -0.517010
O2    O     O_R   0.413330 0.603360 0.920440 -0.532461
O3    O     O_R   0.676110 0.626250 0.926750 -0.524403
O4    O     O_R   0.798570 0.516780 0.574780 -0.499182
O5    O     O_R   0.895350 0.809870 0.080950 -0.525469
O6    O     O_R   0.872490 0.049760 0.073800 -0.526939
O7    O     O_R   0.691680 0.088070 0.079070 -0.445974
O8    O     O_R   0.451720 0.825250 0.074050 -0.470262
O9    O     O_R   0.413580 0.606370 0.080960 -0.527189
O10   O     O_R   0.676340 0.629040 0.075550 -0.504727
O11   O     O_3   0.666780 0.833290 0.000090 -0.267881
O12   O     O_R   0.218690 0.701900 0.425960 -0.507006
O13   O     O_R   0.984000 0.732950 0.581090 -0.533937
O14   O     O_R   0.218600 0.700890 0.574760 -0.512485
O15   O     O_R   0.249390 0.515350 0.579940 -0.519672
O16   O     O_R   0.982790 0.280900 0.573700 -0.509031
O17   O     O_R   0.766600 0.251130 0.419260 -0.529860
O18   O     O_R   0.798660 0.517790 0.425980 -0.506759
O19   O     O_R   0.984100 0.734040 0.420570 -0.525562
O20   O     O_R   0.249490 0.516440 0.419420 -0.520891
O21   O     O_R   0.982880 0.281910 0.424890 -0.502645
O22   O     O_3   0.999980 0.499990 0.499980 -0.237253
O23   O     O_R   0.895110 0.806860 0.920430 -0.438212
O24   O     O_R   0.872260 0.046970 0.925000 -0.464068
O25   O     O_R   0.691430 0.085060 0.918550 -0.530057
O26   O     O_R   0.451490 0.822460 0.925250 -0.494497

loop_
_geom_bond_atom_site_label_1
_geom_bond_atom_site_label_2
_ccdc_geom_bond_type
C55   C56   A    
C6    C45   A    
C27   C29   A    
C10   H19   S    
C35   C36   A    
Cr6   O11   S    
Cr4   O6    S    
C7    C8    A    
C49   O17   A    
C53   C54   A    
C27   C33   A    
C12   C23   A    
C29   C30   A    
C47   O8    A    
Cr1   O22   S    
Cr2   O14   S    
C36   C37   A    
C48   O5    A    
C14   H23   S    
C5    C11   A    
C17   F1    S    
C30   C31   A    
C43   C52   S    
C33   C49   S    
C28   C41   S    
C8    H12   S    
C47   O9    A    
C53   H17   S    
Cr1   O17   S    
C20   H25   S    
Cr6   O9    S    
C44   O3    A    
C9    H21   S    
Cr5   O8    S    
C42   O24   A    
C31   H6    S    
C1    O4    A    
C13   H22   S    
C39   H11   S    
C9    C10   A    
C1    O13   A    
C27   H5    S    
C16   O16   A    
C49   O21   A    
Cr5   O11   S    
C7    H20   S    
C13   C14   A    
Cr1   O1    S    
C25   H4    S    
C2    C11   A    
C12   C52   A    
C50   C51   A    
C32   H7    S    
C21   H26   S    
C38   C39   A    
C48   O10   A    
C4    C34   S    
C34   C50   A    
C1    C19   S    
C13   C19   A    
C51   C52   A    
C24   C25   A    
C39   C41   A    
C36   H9    S    
C5    C7    A    
C8    C9    A    
C40   O20   A    
Cr6   O10   S    
C25   C26   A    
C3    C45   A    
C18   H24   S    
C42   C45   S    
Cr6   O2    S    
Cr4   O11   S    
Cr5   O26   S    
C37   C38   A    
Cr3   O22   S    
C43   O26   A    
Cr5   O7    S    
C11   C16   S    
C31   C32   A    
C23   C34   A    
C12   H13   S    
Cr2   O22   S    
C51   H3    S    
C37   C48   S    
C46   O7    A    
C29   Cl1   S    
C35   H8    S    
Cr4   O23   S    
C15   C44   S    
C22   C24   A    
Cr3   O16   S    
C54   H15   S    
C38   H10   S    
C15   C17   A    
C54   C55   A    
Cr2   O12   S    
C30   C46   S    
C44   O23   A    
Cr4   O5    S    
C56   H18   S    
C24   H2    S    
C28   O19   A    
C4    O15   A    
Cr6   O3    S    
C43   O2    A    
C17   C18   A    
Cr2   O13   S    
C32   C33   A    
C2    C3    A    
Cr1   O4    S    
Cr5   O25   S    
Cr3   O21   S    
C2    C56   A    
C55   H16   S    
C3    C53   A    
C26   C40   S    
C5    C6    A    
C20   C26   A    
C28   O18   A    
C4    O14   A    
Cr2   O19   S    
C22   C47   S    
Cr1   O18   S    
C23   H14   S    
C35   C41   A    
C50   H1    S    
Cr3   O20   S    
C6    C10   A    
C40   O12   A    
C42   O25   A    
C46   O6    A    
C20   C21   A    
C16   O1    A    
Cr4   O24   S    
C18   C19   A    
C14   C15   A    
C21   C22   A    
Cr3   O15   S    
