data_mof_unit_23656.cif
_audit_creation_date              2012-12-11T15:20:18-0500
_audit_creation_method            fapswitch 2.2
_symmetry_space_group_name_H-M    P1
_symmetry_Int_Tables_number       1
_space_group_crystal_system       triclinic
_cell_length_a                    13.082848
_cell_length_b                    13.004707
_cell_length_c                    15.377262
_cell_angle_alpha                 117.332312
_cell_angle_beta                  63.582284
_cell_angle_gamma                 97.622593
_cell_volume                      2073.02290136

loop_
_atom_site_label
_atom_site_type_symbol
_atom_type_description
_atom_site_fract_x
_atom_site_fract_y
_atom_site_fract_z
_atom_type_partial_charge
C1    C     C_R   0.003790 0.834692 0.053344 -0.167744
C2    C     C_R   0.302295 0.587789 0.788188 -0.021324
C3    C     C_R   0.258516 0.427443 0.058576 -0.178086
C4    C     C_R   0.679641 0.476611 0.219803 -0.174643
C5    C     C_R   0.053354 0.276770 0.683716 -0.146300
C6    C     C_R   0.361436 0.452748 0.993140 0.125344
C7    C     C_R   0.035911 0.165176 0.674838 0.052141
C8    C     C_R   0.300958 0.551619 0.689995 0.087362
C9    C     C_R   0.026210 0.146273 0.026828 0.012313
C10   C     C_R   0.195732 0.957090 0.378872 0.520003
C11   C     C_R   0.166743 0.058067 0.477527 -0.346691
C12   C     C_R   0.671886 0.549025 0.322473 -0.108015
C13   C     C_R   0.087411 0.056365 0.574999 0.122001
C14   C     C_R   0.059334 0.948706 0.574829 -0.171719
C15   C     C_R   0.080702 0.851169 0.477549 -0.256382
C16   C     C_R   0.757828 0.507995 0.887227 -0.186822
C17   C     C_R   0.133560 0.860078 0.379529 0.081043
C18   C     C_R   0.591961 0.504408 0.473989 -0.345543
C19   C     C_R   0.501283 0.504205 0.565099 0.529493
C20   C     C_R   0.394311 0.554731 0.597721 0.037104
C21   C     C_R   0.376711 0.602825 0.540183 -0.273894
C22   C     C_R   0.468691 0.603672 0.449493 -0.149655
C23   C     C_R   0.668270 0.443773 0.918382 0.120784
C24   C     C_R   0.575862 0.556095 0.418459 0.113849
C25   C     C_2   0.469640 0.427978 0.982957 -0.207696
C26   C     C_2   0.567416 0.425633 0.900107 -0.225762
C27   C     C_2   0.845491 0.969263 0.090997 0.470850
C28   C     C_R   0.029130 0.693931 0.295842 -0.051937
C29   C     C_2   0.831377 0.045315 0.191398 -0.113076
C30   C     C_R   0.682714 0.411036 0.984634 0.044216
C31   C     C_R   0.105447 0.794713 0.203428 0.036895
C32   C     C_R   0.781927 0.562736 0.314328 0.521109
C33   C     C_R   0.907898 0.752090 0.953555 0.083732
C34   C     C_R   0.095175 0.786174 0.294133 -0.020628
C35   C     C_R   0.920507 0.858330 0.030193 -0.096075
C36   C     C_R   0.338203 0.530262 0.964863 0.070266
C37   C     C_R   0.959797 0.178251 0.778420 0.024033
C38   C     C_R   0.202294 0.500493 0.691879 -0.157631
C39   C     C_R   0.061577 0.252907 0.078772 -0.109193
C40   C     C_R   0.963826 0.167347 0.982467 -0.061064
H1    H     H_    0.032874 0.896733 0.111627 0.116725
H2    H     H_    0.609387 0.443422 0.199267 0.133060
H3    H     H_    0.044148 0.773381 0.482177 0.141273
H4    H     H_    0.674762 0.462344 0.445083 0.153063
H5    H     H_    0.292674 0.639755 0.565928 0.145627
H6    H     H_    0.456835 0.640533 0.403787 0.134514
H7    H     H_    0.466770 0.429624 0.055028 0.132675
H8    H     H_    0.570142 0.426971 0.829217 0.151467
H9    H     H_    0.874060 0.032267 0.232442 0.063250
H10   H     H_    0.779971 0.528250 0.820764 0.102309
H11   H     H_    0.019534 0.648824 0.342571 0.143219
H12   H     H_    0.169936 0.475023 0.631918 0.096774
H13   H     H_    0.839160 0.073338 0.749880 0.105970
H14   H     H_    0.814006 0.141310 0.879547 0.117769
H15   H     H_    0.321758 0.025396 0.300542 0.319849
H16   H     H_    0.594780 0.421430 0.586922 0.310515
H17   H     H_    0.816175 0.946299 0.971020 0.309674
H18   H     H_    0.573692 0.318491 0.059271 0.085941
H19   H     H_    0.636225 0.246211 0.922298 0.113901
H20   H     H_    0.166821 0.946235 0.203355 0.134398
H21   H     H_    0.267958 0.826922 0.124313 0.180489
H22   H     H_    0.746098 0.667986 0.463987 0.314833
H23   H     H_    0.102155 0.271082 0.131320 0.092499
H24   H     H_    0.766552 0.727837 0.927751 0.127061
H25   H     H_    0.893367 0.667037 0.812161 0.091932
H26   H     H_    0.452920 0.648517 0.988110 0.121825
H27   H     H_    0.472834 0.571379 0.857235 0.123067
H28   H     H_    0.916599 0.104116 0.944607 0.126416
H29   H     H_    0.359142 0.646656 0.816568 0.098717
H30   H     H_    0.247175 0.379736 0.103540 0.104446
H31   H     H_    0.102479 0.300783 0.619173 0.105142
H32   H     H_    0.205387 0.136776 0.477174 0.126371
H33   H     H_    0.013838 0.939304 0.648498 0.139955
N1    N     N_R   0.037310 0.720000 0.995790 -0.041184
N2    N     N_R   0.824890 0.517960 0.936420 -0.049612
N3    N     N_R   0.003210 0.648190 0.211380 -0.049588
N4    N     N_R   0.774330 0.457010 0.995840 -0.048589
N5    N     N_R   0.053760 0.709140 0.151960 -0.056689
N6    N     N_R   0.853860 0.498840 0.211410 -0.074484
N7    N     N_R   0.974240 0.667310 0.936390 -0.054800
N8    N     N_R   0.225670 0.542990 0.004160 -0.055322
N9    N     N_3   0.879242 0.097551 0.801213 -0.238352
N10   N     N_3   0.650229 0.303436 0.990030 -0.218618
N11   N     N_3   0.184464 0.857402 0.150452 -0.222983
N12   N     N_R   0.946240 0.290860 0.848040 -0.051694
N13   N     N_3   0.852672 0.738774 0.887746 -0.232655
N14   N     N_3   0.411221 0.613543 0.937668 -0.231866
N15   N     N_R   0.146140 0.501160 0.788590 -0.042150
N16   N     N_R   0.025760 0.332690 0.063610 -0.044274
N17   N     N_R   0.962690 0.280000 0.004210 -0.047791
N18   N     N_R   0.209210 0.553840 0.847990 -0.049717
N19   N     N_R   0.175110 0.482040 0.063580 -0.052612
N20   N     N_R   0.996790 0.351810 0.788620 -0.046025
N21   N     N_R   0.790790 0.446160 0.152010 -0.063849
Ni1   Ni    Ni4+2 0.130310 0.630310 0.999970 0.212984
Ni2   Ni    Ni4+2 0.869690 0.369690 0.000030 0.219711
Ni3   Ni    Ni4+2 0.985640 0.509470 0.863740 0.198804
Ni4   Ni    Ni4+2 0.014360 0.490530 0.136260 0.228157
O1    O     O_3   0.287272 0.950079 0.285019 -0.801073
O2    O     O_3   0.513683 0.451939 0.620980 -0.781138
O3    O     O_3   0.782214 0.994781 0.050610 -0.749664
O4    O     O_3   0.814022 0.619136 0.397654 -0.802317

loop_
_geom_bond_atom_site_label_1
_geom_bond_atom_site_label_2
_ccdc_geom_bond_type
N7    Ni3   S    
C27   C29   D    
C16   N2    A    
H20   N11   S    
N6    Ni4   S    
C19   C20   A    
C9    C39   A    
C3    C6    A    
N19   Ni4   S    
H25   N13   S    
C29   H9    S    
C8    C20   S    
C18   C24   A    
C1    N1    A    
N3    N5    A    
C37   N12   A    
H19   N10   S    
N8    Ni1   S    
C28   H11   S    
C6    C25   S    
C38   H12   S    
C10   C17   A    
N3    Ni4   S    
N2    Ni3   S    
C18   C19   A    
C23   C26   S    
C30   N10   S    
N8    N19   A    
N12   N20   A    
C4    C12   A    
C2    H29   S    
C25   H7    S    
N15   Ni3   S    
C26   H8    S    
C28   C34   A    
N1    N7    A    
C13   C14   A    
C12   C32   A    
C30   N4    A    
C10   O1    S    
C8    C38   A    
H24   N13   S    
C21   H5    S    
C36   N14   S    
C14   H33   S    
C3    H30   S    
N6    N21   A    
H26   N14   S    
C5    C7    A    
C11   H32   S    
C27   C35   S    
C25   C26   D    
C27   O3    S    
C9    C40   A    
C31   N11   S    
C38   N15   A    
H13   N9    S    
N5    Ni1   S    
C33   N13   S    
C23   C30   A    
C18   H4    S    
N15   N18   A    
C36   N8    A    
C7    C37   A    
C31   C34   A    
N21   Ni2   S    
N2    N4    A    
C4    N21   A    
C1    H1    S    
C22   H6    S    
C16   C23   A    
C32   O4    S    
C37   N9    S    
C17   C34   S    
H16   O2    S    
C28   N3    A    
N20   Ni3   S    
H14   N9    S    
H17   O3    S    
C1    C35   A    
C31   N5    A    
C15   C17   A    
N1    Ni1   S    
C2    C8    A    
C16   H10   S    
H21   N11   S    
C5    N20   A    
C19   O2    S    
C33   N7    A    
N17   Ni2   S    
C39   H23   S    
C12   C24   S    
N4    Ni2   S    
H27   N14   S    
N16   Ni4   S    
C15   H3    S    
C5    H31   S    
H18   N10   S    
C32   N6    A    
C11   C13   A    
C4    H2    S    
N12   Ni2   S    
C33   C35   A    
C6    C36   A    
C22   C24   A    
C2    N18   A    
C10   C11   A    
N18   Ni1   S    
C7    C13   S    
C20   C21   A    
C40   H28   S    
H15   O1    S    
C14   C15   A    
C3    N19   A    
C40   N17   A    
N16   N17   A    
C21   C22   A    
C39   N16   A    
H22   O4    S    
