data_mof_unit_64128.cif
_audit_creation_date              2012-12-10T19:45:04-0500
_audit_creation_method            fapswitch 2.2
_symmetry_space_group_name_H-M    P1
_symmetry_Int_Tables_number       1
_space_group_crystal_system       triclinic
_cell_length_a                    18.863314
_cell_length_b                    18.747281
_cell_length_c                    18.636148
_cell_angle_alpha                 109.232618
_cell_angle_beta                  109.49667
_cell_angle_gamma                 109.687663
_cell_volume                      5073.03354663

loop_
_atom_site_label
_atom_site_type_symbol
_atom_type_description
_atom_site_fract_x
_atom_site_fract_y
_atom_site_fract_z
_atom_type_partial_charge
C1    C     C_R   0.120755 0.000727 0.620721 0.912715
C2    C     C_R   0.957581 0.983399 0.163794 -0.119737
C3    C     C_R   0.241369 0.248346 0.422481 -0.213731
C4    C     C_R   0.314492 0.315722 0.503233 -0.082921
C5    C     C_R   0.323986 0.317882 0.582465 0.007827
C6    C     C_R   0.257408 0.252793 0.578617 -0.223868
C7    C     C_R   0.184126 0.186063 0.497889 -0.066760
C8    C     C_R   0.175868 0.182412 0.418714 -0.011837
C9    C     C_R   0.450772 0.364233 0.723175 -0.142634
C10   C     C_R   0.522586 0.428870 0.806139 -0.133572
C11   C     C_R   0.544818 0.516370 0.836665 -0.122341
C12   C     C_R   0.118691 0.120010 0.498540 0.869938
C13   C     C_R   0.495179 0.539330 0.784341 -0.105525
C14   C     C_R   0.423442 0.474856 0.701244 -0.098167
C15   C     C_R   0.400980 0.386875 0.669797 0.117351
C16   C     C_R   0.232288 0.960260 0.664881 0.048705
C17   C     C_R   0.191685 0.006509 0.687922 -0.138500
C18   C     C_R   0.222783 0.060975 0.777249 -0.168312
C19   C     C_R   0.285651 0.059243 0.841258 -0.218618
C20   C     C_R   0.316728 0.003077 0.815598 -0.047473
C21   C     C_R   0.294399 0.958758 0.728364 -0.060449
C22   C     C_3   0.261605 0.864284 0.670026 0.218240
C23   C     C_R   0.879819 0.999681 0.379873 0.862869
C24   C     C_3   0.193435 0.866321 0.599628 0.198736
C25   C     C_R   0.829173 0.763589 0.529233 0.015672
C26   C     C_R   0.811473 0.815220 0.496181 -0.194863
C27   C     C_R   0.725905 0.802402 0.462115 0.421350
C28   C     C_R   0.662826 0.737944 0.464114 -0.190668
C29   C     C_R   0.684225 0.687308 0.499503 -0.191712
C30   C     C_R   0.768598 0.703023 0.531890 -0.036521
C31   C     C_3   0.830079 0.676808 0.574387 0.264147
C32   C     C_3   0.899551 0.746812 0.571009 0.130821
C33   C     C_R   0.747771 0.924687 0.238252 0.132364
C34   C     C_R   0.879819 0.880295 0.499477 0.913513
C35   C     C_R   0.814910 0.000858 0.314752 -0.106601
C36   C     C_R   0.817031 0.080110 0.327521 -0.211928
C37   C     C_R   0.752747 0.080238 0.262541 -0.211280
C38   C     C_R   0.684939 0.000813 0.186514 -0.091236
C39   C     C_R   0.684451 0.924471 0.177552 0.129003
C40   C     C_3   0.638289 0.828408 0.117859 -0.493651
C41   C     C_3   0.710583 0.828526 0.188076 -0.474181
C42   C     C_R   0.501392 0.621073 0.620421 0.856897
C43   C     C_R   0.380159 0.381153 0.501751 0.862377
C44   C     C_R   0.501326 0.381541 0.379970 0.997811
C45   C     C_R   0.039542 0.991615 0.186572 -0.124119
C46   C     C_R   0.619799 0.620541 0.500076 0.930436
C47   C     C_R   0.501170 0.119994 0.121010 0.891900
C48   C     C_R   0.380446 0.000305 0.880054 0.900416
C49   C     C_R   0.500470 0.879568 0.880440 0.875660
C50   C     C_R   0.619673 0.999597 0.119709 0.859171
C51   C     C_R   0.429214 0.667388 0.696457 0.024999
C52   C     C_R   0.502799 0.686186 0.688071 -0.121204
C53   C     C_R   0.581273 0.763744 0.753023 -0.196934
C54   C     C_R   0.581514 0.827803 0.817933 -0.210290
C55   C     C_R   0.503795 0.812276 0.818953 -0.098939
C56   C     C_R   0.110591 0.056166 0.269989 -0.095473
C57   C     C_R   0.430045 0.729374 0.762202 0.036995
C58   C     C_3   0.338973 0.704531 0.704017 -0.341888
C59   C     C_3   0.338521 0.636966 0.631087 0.222779
C60   C     C_R   0.429594 0.249277 0.240808 -0.162184
C61   C     C_R   0.505265 0.319236 0.315042 -0.218451
C62   C     C_R   0.585649 0.324558 0.328047 0.413650
C63   C     C_R   0.586057 0.256569 0.265607 0.317805
C64   C     C_R   0.505471 0.185984 0.190313 -0.231543
C65   C     C_R   0.429500 0.184707 0.181917 0.012452
C66   C     C_3   0.332997 0.134122 0.124235 0.230356
C67   C     C_R   0.099745 0.112234 0.331647 0.113233
C68   C     C_3   0.332710 0.207916 0.193060 0.264990
C69   C     C_R   0.017227 0.103657 0.308383 -0.131686
C70   C     C_R   0.946574 0.039701 0.224404 -0.118655
H1    H     H_    0.902717 0.933801 0.098998 0.128063
H2    H     H_    0.512262 0.607073 0.808357 0.142578
H3    H     H_    0.385207 0.493162 0.661464 0.139567
H4    H     H_    0.195938 0.101463 0.797497 0.172062
H5    H     H_    0.307493 0.098845 0.909906 0.130120
H6    H     H_    0.048150 0.948340 0.139405 0.140107
H7    H     H_    0.755534 0.141473 0.271872 0.172325
H8    H     H_    0.573208 0.794413 0.110520 0.223736
H9    H     H_    0.639814 0.811698 0.055547 0.194083
H10   H     H_    0.687461 0.795139 0.221821 0.217873
H11   H     H_    0.173985 0.062449 0.286638 0.151115
H12   H     H_    0.753455 0.811353 0.166070 0.207007
H13   H     H_    0.640665 0.776385 0.750659 0.153868
H14   H     H_    0.641086 0.889767 0.865151 0.164373
H15   H     H_    0.336151 0.757703 0.691993 0.174538
H16   H     H_    0.332770 0.649191 0.575332 0.124119
H17   H     H_    0.008018 0.147205 0.354694 0.117420
H18   H     H_    0.883339 0.034040 0.205900 0.145420
H19   H     H_    0.235611 0.246804 0.361996 0.196528
H20   H     H_    0.434206 0.296646 0.700318 0.136000
O1    O     O_R   0.091630 0.948280 0.539910 -0.638197
O2    O     O_R   0.551690 0.591610 0.643360 -0.623190
O3    O     O_R   0.356650 0.408410 0.448330 -0.622907
O4    O     O_R   0.460080 0.408380 0.551740 -0.615602
O5    O     O_R   0.448280 0.408420 0.356720 -0.630843
O6    O     O_R   0.551710 0.408390 0.460130 -0.565645
O7    O     O_R   0.539890 0.591650 0.448340 -0.638225
O8    O     O_R   0.643320 0.591620 0.551750 -0.597050
O9    O     O_R   0.551740 0.143400 0.091610 -0.619452
O10   O     O_R   0.448290 0.040010 0.091660 -0.574514
O11   O     O_R   0.460120 0.051750 0.908410 -0.626810
O12   O     O_R   0.091590 0.051710 0.643320 -0.620423
O13   O     O_R   0.356670 0.948360 0.908460 -0.595304
O14   O     O_R   0.551710 0.960090 0.908440 -0.625919
O15   O     O_R   0.448260 0.856700 0.908490 -0.612047
O16   O     O_R   0.643330 0.051740 0.091640 -0.628687
O17   O     O_R   0.539880 0.948350 0.091690 -0.616645
O18   O     O_R   0.091640 0.039900 0.448300 -0.610755
O19   O     O_R   0.091600 0.143340 0.551710 -0.623861
O20   O     O_R   0.908410 0.948290 0.356680 -0.619208
O21   O     O_R   0.908370 0.051720 0.460090 -0.621569
O22   O     O_R   0.908400 0.856660 0.448290 -0.636037
O23   O     O_R   0.908360 0.960100 0.551700 -0.599342
O24   O     O_R   0.448260 0.591640 0.539950 -0.636365
Zn1   Zn    Zn3+2 0.000030 0.930940 0.430950 0.960817
Zn2   Zn    Zn3+2 0.999970 0.069060 0.569050 0.991526
Zn3   Zn    Zn3+2 0.430920 0.500040 0.430990 0.969016
Zn4   Zn    Zn3+2 0.569050 0.499990 0.569090 1.024851
Zn5   Zn    Zn3+2 0.569070 0.069080 0.000020 0.976947
Zn6   Zn    Zn3+2 0.430930 0.931020 0.000080 1.021305
H21   H     H_    0.600329 0.566335 0.900947 0.130429
H22   H     H_    0.310193 0.853937 0.653880 0.158478
O25   O     O_3   0.226007 0.809482 0.700123 -0.773701
H23   H     H_    0.184498 0.823325 0.714751 0.340271
O26   O     O_3   0.208577 0.857655 0.529343 -0.748025
H24   H     H_    0.158021 0.852598 0.483872 0.354147
H25   H     H_    0.124678 0.823510 0.579633 0.110673
O27   O     O_3   0.700648 0.849144 0.425771 -0.756622
H26   H     H_    0.748457 0.886965 0.421441 0.325940
H27   H     H_    0.597470 0.727855 0.438120 0.192621
H28   H     H_    0.842290 0.690646 0.641443 0.164247
O28   O     O_3   0.807785 0.590823 0.520289 -0.717604
H29   H     H_    0.794307 0.581906 0.460674 0.340816
O29   O     O_3   0.964335 0.818312 0.654361 -0.758245
H30   H     H_    0.007728 0.801398 0.677299 0.335667
H31   H     H_    0.924385 0.722494 0.527430 0.116464
H32   H     H_    0.868787 0.141401 0.386248 0.173471
H33   H     H_    0.293913 0.676463 0.725889 0.245763
O30   O     O_3   0.280517 0.551589 0.605905 -0.735666
H34   H     H_    0.282076 0.512704 0.555946 0.336352
O31   O     O_3   0.661620 0.396099 0.401695 -0.712241
H35   H     H_    0.712563 0.392255 0.401382 0.395382
O32   O     O_3   0.664619 0.260439 0.281100 -0.770080
H36   H     H_    0.654241 0.201187 0.247444 0.336825
H37   H     H_    0.311410 0.129248 0.058603 0.038388
O33   O     O_3   0.296772 0.053943 0.121487 -0.705672
H38   H     H_    0.233006 0.026278 0.084020 0.343987
H39   H     H_    0.310028 0.246940 0.168212 0.107262
O34   O     O_3   0.293929 0.181817 0.239582 -0.751887
H40   H     H_    0.325990 0.159419 0.271275 0.368773
H41   H     H_    0.262916 0.253631 0.638796 0.151917
H42   H     H_    0.560917 0.411096 0.846817 0.138375

loop_
_geom_bond_atom_site_label_1
_geom_bond_atom_site_label_2
_ccdc_geom_bond_type
C50   O17   A    
C66   C68   S    
C16   C21   A    
O16   Zn5   S    
C34   O22   A    
C19   C20   A    
C70   H18   S    
O27   H26   S    
C41   H10   S    
C54   H14   S    
O34   H40   S    
C7    C8    A    
C53   C54   A    
O5    Zn3   S    
C34   O23   A    
C26   C27   A    
C31   O28   S    
O25   H23   S    
C45   H6    S    
O18   Zn1   S    
O6    Zn4   S    
C28   C29   A    
C37   C38   A    
C5    C6    A    
C33   C35   A    
C48   O11   A    
O32   H36   S    
C11   C13   A    
C43   O4    A    
C47   O9    A    
C18   C19   A    
C22   C24   S    
O2    Zn4   S    
C66   H37   S    
C31   H28   S    
C68   O34   S    
O19   Zn2   S    
C10   H42   S    
C26   C34   S    
C35   C36   A    
C45   C56   A    
O28   H29   S    
C24   H25   S    
O15   Zn6   S    
C22   H22   S    
O21   Zn2   S    
C51   C57   A    
C9    C10   A    
C28   H27   S    
C61   C62   A    
C68   H39   S    
O14   Zn5   S    
C58   H33   S    
C25   C32   S    
C46   O8    A    
C16   C24   S    
C13   C14   A    
O7    Zn3   S    
C11   H21   S    
O3    Zn3   S    
C49   O14   A    
C12   O19   A    
C42   O24   A    
O8    Zn4   S    
C2    C45   A    
C7    C12   S    
C66   O33   S    
C51   C52   A    
O11   Zn5   S    
C14   H3    S    
C56   H11   S    
C3    C8    A    
C47   C64   S    
C32   H31   S    
C16   C17   A    
C49   O15   A    
C25   C26   A    
C49   C55   S    
C48   O13   A    
C37   H7    S    
C47   O10   A    
C60   C61   A    
C67   C69   A    
C29   C30   A    
C44   O6    A    
C27   O27   S    
C31   C32   S    
C59   O30   S    
C30   C31   S    
C62   C63   A    
C17   C18   A    
C40   H9    S    
C33   C39   A    
C20   C48   S    
O10   Zn6   S    
C6    H41   S    
C40   C41   S    
C13   H2    S    
C46   O7    A    
C60   C65   A    
C23   C35   S    
C55   C57   A    
O26   H24   S    
C40   H8    S    
C51   C59   S    
C62   O31   S    
C3    C4    A    
C58   H15   S    
O17   Zn6   S    
C39   C40   S    
C52   C53   A    
C12   O18   A    
O33   H38   S    
C36   H32   S    
C25   C30   A    
C23   O20   A    
C54   C55   A    
C36   C37   A    
C4    C5    A    
C69   H17   S    
C9    H20   S    
O30   H34   S    
C6    C7    A    
C38   C50   S    
C4    C43   S    
C44   C61   S    
C56   C67   A    
C23   O21   A    
O29   H30   S    
C1    C17   S    
C53   H13   S    
C29   C46   S    
C3    H19   S    
C33   C41   S    
C64   C65   A    
O23   Zn2   S    
C19   H5    S    
C58   C59   S    
C59   H16   S    
C22   O25   S    
C2    C70   A    
O31   H35   S    
C32   O29   S    
O4    Zn4   S    
C57   C58   S    
C38   C39   A    
C41   H12   S    
C1    O12   A    
C43   O3    A    
O13   Zn6   S    
O1    Zn1   S    
C42   O2    A    
C9    C15   A    
C69   C70   A    
C5    C15   S    
O24   Zn3   S    
O12   Zn2   S    
C10   C11   A    
O9    Zn5   S    
C63   C64   A    
C20   C21   A    
C60   C68   S    
C8    C67   S    
C18   H4    S    
C65   C66   S    
C1    O1    A    
C27   C28   A    
C50   O16   A    
C63   O32   S    
C14   C15   A    
C24   O26   S    
C21   C22   S    
O20   Zn1   S    
O22   Zn1   S    
C44   O5    A    
C2    H1    S    
C42   C52   S    
