data_mof_unit_43363.cif
_audit_creation_date              2012-12-11T15:56:03-0500
_audit_creation_method            fapswitch 2.2
_symmetry_space_group_name_H-M    P1
_symmetry_Int_Tables_number       1
_space_group_crystal_system       triclinic
_cell_length_a                    10.99693
_cell_length_b                    10.976745
_cell_length_c                    18.756327
_cell_angle_alpha                 90.522239
_cell_angle_beta                  90.359955
_cell_angle_gamma                 59.740592
_cell_volume                      1955.52519177

loop_
_atom_site_label
_atom_site_type_symbol
_atom_type_description
_atom_site_fract_x
_atom_site_fract_y
_atom_site_fract_z
_atom_type_partial_charge
C1    C     C_R   0.363016 0.762472 0.394517 0.546543
C2    C     C_R   0.612513 0.190617 0.152007 0.039292
C3    C     C_R   0.346781 0.340450 0.163289 -0.013184
C4    C     C_R   0.488978 0.274431 0.268810 -0.140927
C5    C     C_R   0.481537 0.274272 0.194956 -0.092373
C6    C     C_R   0.023823 0.667315 0.305813 0.373230
C7    C     C_R   0.914985 0.760185 0.350797 -0.022956
C8    C     C_R   0.626324 0.241682 0.085829 -0.086622
C9    C     C_R   0.723224 0.149801 0.035733 -0.046376
C10   C     C_R   0.224775 0.423432 0.205307 0.379534
C11   C     C_R   0.233244 0.426986 0.279179 -0.013470
C12   C     C_R   0.390439 0.357291 0.386430 0.540924
C13   C     C_R   0.886984 0.711752 0.413493 0.038698
C14   C     C_R   0.961495 0.567495 0.428451 -0.041239
C15   C     C_R   0.060764 0.471392 0.380261 0.079461
C16   C     C_R   0.102676 0.521632 0.321273 0.092969
C17   C     C_R   0.367276 0.346370 0.311042 -0.054752
C18   C     C_R   0.839767 0.345718 0.179239 0.025666
C19   C     C_R   0.857377 0.234298 0.221676 0.011725
C20   C     C_R   0.812237 0.257221 0.291083 -0.003185
C21   C     C_R   0.722295 0.506700 0.277249 -0.151779
C22   C     C_R   0.764437 0.484134 0.206153 -0.125490
C23   C     C_R   0.714632 0.414761 0.395172 0.557910
C24   C     C_3   0.988071 0.098606 0.239346 -0.242017
C25   C     C_3   0.936805 0.122999 0.315751 -0.250437
C26   C     C_R   0.751897 0.391897 0.320897 0.017464
C27   C     C_R   0.366299 0.824724 0.171306 -0.014737
C28   C     C_R   0.429758 0.875394 0.218429 -0.040081
C29   C     C_R   0.432761 0.852982 0.291081 0.047944
C30   C     C_R   0.329186 0.708800 0.270850 -0.120375
C31   C     C_R   0.327165 0.730099 0.197405 -0.127957
C32   C     C_3   0.403031 0.021254 0.229339 -0.200706
C33   C     C_3   0.408984 0.995385 0.308895 0.240494
C34   C     C_R   0.372267 0.704282 0.610798 0.559518
C35   C     C_R   0.366893 0.783888 0.318575 -0.033545
C36   C     C_R   0.315167 0.313979 0.812916 0.024262
C37   C     C_R   0.399149 0.195995 0.769966 0.019089
C38   C     C_R   0.406179 0.207235 0.698028 0.012077
C39   C     C_R   0.252355 0.458895 0.708706 -0.176068
C40   C     C_R   0.247712 0.447752 0.782578 -0.186900
C41   C     C_3   0.400687 0.059429 0.763274 -0.234530
C42   C     C_3   0.406518 0.073192 0.683360 -0.261010
C43   C     C_R   0.327865 0.336963 0.665741 0.011399
C44   C     C_R   0.838382 0.326617 0.831166 0.067850
C45   C     C_R   0.369122 0.350996 0.595371 0.545930
C46   C     C_R   0.893628 0.389943 0.787689 0.035023
C47   C     C_R   0.887084 0.390126 0.715675 0.042490
C48   C     C_R   0.766663 0.257928 0.722880 -0.133139
C49   C     C_R   0.780233 0.252950 0.797710 -0.109526
C50   C     C_3   0.897530 0.523658 0.791858 -0.216911
C51   C     C_3   0.898607 0.520666 0.710794 0.216450
C52   C     C_R   0.813671 0.334506 0.681664 0.019841
C53   C     C_R   0.315420 0.807342 0.833075 0.028775
C54   C     C_R   0.206230 0.816641 0.790808 0.030896
C55   C     C_R   0.226618 0.778538 0.719942 -0.046186
C56   C     C_R   0.762242 0.376669 0.610260 0.542265
C57   C     C_R   0.473632 0.693596 0.732913 -0.149254
C58   C     C_R   0.452722 0.735446 0.805193 -0.177171
C59   C     C_3   0.066015 0.942677 0.775785 0.239953
C60   C     C_3   0.086306 0.897999 0.698351 -0.195555
C61   C     C_R   0.357702 0.728173 0.688042 0.005788
C62   C     C_R   0.911802 0.315698 0.112009 0.548383
C63   C     C_R   0.326452 0.295820 0.092639 0.546821
C64   C     C_R   0.309923 0.895517 0.103971 0.534429
C65   C     C_R   0.880208 0.311064 0.905434 0.540443
C66   C     C_R   0.296471 0.287819 0.885758 0.543275
C67   C     C_R   0.816478 0.008164 0.053142 0.135073
C68   C     C_R   0.278339 0.888195 0.899646 0.578272
C69   C     C_R   0.813661 0.961242 0.121910 -0.077462
C70   C     C_R   0.712566 0.051398 0.171060 -0.132500
Cr1   Cr    Cr6+3 0.601740 0.606840 0.505840 1.034910
Cr2   Cr    Cr6+3 0.291500 0.601560 0.495070 1.000561
Cr3   Cr    Cr6+3 0.606780 0.291630 0.499130 1.044076
Cr4   Cr    Cr6+3 0.062440 0.063060 0.008240 1.044634
Cr5   Cr    Cr6+3 0.062950 0.375000 0.998920 1.060975
Cr6   Cr    Cr6+3 0.374550 0.061770 0.992470 1.012593
H1    H     H_    0.591579 0.219013 0.293733 0.173056
H2    H     H_    0.939218 0.529380 0.476865 0.173827
H3    H     H_    0.674388 0.612060 0.299240 0.158456
H4    H     H_    0.747106 0.573165 0.174139 0.160654
H5    H     H_    0.085294 0.104152 0.232263 0.125332
H6    H     H_    0.990700 0.005409 0.214209 0.202642
H7    H     H_    0.906459 0.046385 0.334063 0.153670
H8    H     H_    0.005421 0.139547 0.353450 0.158562
H9    H     H_    0.295874 0.638509 0.290742 0.180549
H10   H     H_    0.722067 0.188557 0.982856 0.095454
H11   H     H_    0.283201 0.683350 0.162161 0.179127
H12   H     H_    0.297733 0.103885 0.210233 0.083104
H13   H     H_    0.492178 0.029197 0.208911 0.181301
H14   H     H_    0.309162 0.061949 0.337809 0.099326
H15   H     H_    0.197144 0.562380 0.685107 0.145976
H16   H     H_    0.188081 0.541525 0.815006 0.114954
H17   H     H_    0.301083 0.067658 0.781657 0.213413
H18   H     H_    0.498621 0.970085 0.785651 0.156982
H19   H     H_    0.507304 0.990814 0.659451 0.183274
H20   H     H_    0.853834 0.870753 0.337615 0.159957
H21   H     H_    0.309801 0.090231 0.655274 0.152954
H22   H     H_    0.711651 0.209888 0.698127 0.141199
H23   H     H_    0.744393 0.194390 0.828765 0.098148
H24   H     H_    0.995280 0.508581 0.816454 0.128885
H25   H     H_    0.799305 0.611982 0.814875 0.147027
H26   H     H_    0.999039 0.498946 0.686523 0.129145
H27   H     H_    0.578123 0.640983 0.711364 0.214475
H28   H     H_    0.541227 0.720173 0.837441 0.118339
H29   H     H_    0.977065 0.940864 0.802535 0.108638
H30   H     H_    0.013879 0.861071 0.680055 0.101447
H31   H     H_    0.093678 0.974026 0.662344 0.184204
H32   H     H_    0.886458 0.852966 0.136391 0.203649
H33   H     H_    0.708596 0.009572 0.222450 0.144098
H34   H     H_    0.552864 0.349327 0.070424 0.088066
O1    O     O_R   0.748670 0.497520 0.427970 -0.524909
O2    O     O_R   0.300170 0.471020 0.567120 -0.524000
O3    O     O_R   0.491630 0.259030 0.574940 -0.502359
O4    O     O_R   0.718640 0.304340 0.577850 -0.514055
O5    O     O_3   0.500010 0.500010 0.500020 -0.311639
O6    O     O_R   0.186620 0.923750 0.087000 -0.495622
O7    O     O_R   0.957350 0.194160 0.084660 -0.503416
O8    O     O_R   0.935120 0.407280 0.085350 -0.470407
O9    O     O_R   0.203800 0.365060 0.067090 -0.429114
O10   O     O_R   0.417470 0.174910 0.067830 -0.525536
O11   O     O_R   0.375160 0.946380 0.070880 -0.504316
O12   O     O_R   0.476470 0.723930 0.429450 -0.499480
O13   O     O_R   0.160500 0.919670 0.926690 -0.486089
O14   O     O_R   0.933140 0.190380 0.936050 -0.488493
O15   O     O_R   0.909010 0.403210 0.925030 -0.541515
O16   O     O_R   0.179590 0.361290 0.918480 -0.511129
O17   O     O_R   0.391360 0.170840 0.907510 -0.526189
O18   O     O_R   0.350950 0.942600 0.922260 -0.512434
O19   O     O_3   0.166650 0.166610 0.999880 -0.252624
O20   O     O_R   0.264730 0.744140 0.416740 -0.513091
O21   O     O_R   0.309440 0.472410 0.418220 -0.522315
O22   O     O_R   0.501630 0.260530 0.414310 -0.466991
O23   O     O_R   0.727920 0.305730 0.428950 -0.497183
O24   O     O_R   0.738670 0.496020 0.588600 -0.461723
O25   O     O_R   0.467190 0.722540 0.578350 -0.478227
O26   O     O_R   0.254720 0.742640 0.577370 -0.519058
N1    N     N_3   0.780295 0.809462 0.460904 -0.568164
H35   H     H_    0.704636 0.779191 0.466263 0.279040
H36   H     H_    0.826468 0.800589 0.510924 0.224113
N2    N     N_3   0.111247 0.324502 0.390354 -0.630789
H37   H     H_    0.104434 0.282241 0.341370 0.218325
H38   H     H_    0.216011 0.273678 0.406642 0.245858
F1    F     F_    0.526376 0.987704 0.340884 -0.626024
F2    F     F_    0.783100 0.638217 0.682798 -0.656563
F3    F     F_    0.070844 0.064967 0.785817 -0.661645
N3    N     N_3   0.913776 0.910799 0.001753 -0.578765
H39   H     H_    0.898751 0.960471 0.952542 0.227200
H40   H     H_    0.889007 0.831368 0.993779 0.199852
F4    F     F_    0.052521 0.720966 0.247700 -0.663993
F5    F     F_    0.094259 0.493393 0.175435 -0.585906

loop_
_geom_bond_atom_site_label_1
_geom_bond_atom_site_label_2
_ccdc_geom_bond_type
C44   C49   A    
C7    C13   A    
Cr4   O14   S    
C21   C26   A    
Cr2   O2    S    
C64   O6    A    
C12   O21   A    
C41   C42   S    
Cr1   O12   S    
C19   C20   A    
Cr1   O24   S    
C45   O2    A    
C53   C54   A    
C33   F1    S    
C51   H26   S    
C7    H20   S    
N1    H36   S    
Cr2   O5    S    
Cr6   O10   S    
C30   C35   A    
Cr6   O11   S    
C21   C22   A    
C28   C29   A    
N2    H38   S    
C38   C42   S    
Cr1   O25   S    
C30   C31   A    
C36   C66   S    
Cr2   O26   S    
C20   C25   S    
C64   O11   A    
C32   H12   S    
C29   C33   S    
Cr3   O3    S    
C66   O17   A    
C18   C19   A    
C11   C16   S    
C65   O14   A    
C23   C26   S    
C53   C68   S    
C24   H6    S    
C1    O12   A    
C62   O7    A    
C54   C55   A    
C6    F4    S    
C41   H17   S    
C41   H18   S    
C8    C9    A    
Cr1   O1    S    
C12   C17   S    
C25   H8    S    
C68   O18   A    
Cr4   O13   S    
Cr3   O22   S    
C59   C60   S    
C13   C14   A    
C44   C65   S    
Cr5   O8    S    
C68   O13   A    
C39   H15   S    
C69   H32   S    
C44   C46   A    
N3    H40   S    
C54   C59   S    
C57   H27   S    
C31   H11   S    
C23   O23   A    
C27   C31   A    
C42   H19   S    
C28   C32   S    
Cr5   O9    S    
C24   C25   S    
C1    O20   A    
C10   C11   A    
C42   H21   S    
C39   C40   A    
C18   C62   S    
C39   C43   A    
C51   F2    S    
Cr5   O19   S    
C34   C61   S    
C40   H16   S    
Cr3   O4    S    
C66   O16   A    
Cr5   O15   S    
C65   O15   A    
C24   H5    S    
C9    C67   A    
C37   C38   A    
C70   H33   S    
C8    H34   S    
C9    H10   S    
C49   H23   S    
C63   O9    A    
Cr6   O19   S    
C56   O24   A    
C32   H13   S    
C34   O26   A    
Cr4   O6    S    
C21   H3    S    
C67   N3    S    
C50   C51   S    
Cr1   O5    S    
C59   H29   S    
C45   O3    A    
N2    H37   S    
C30   H9    S    
C57   C61   A    
C43   C45   S    
C6    C7    A    
C60   H31   S    
C4    C17   A    
C59   F3    S    
C48   C49   A    
Cr3   O23   S    
Cr6   O18   S    
C2    C5    S    
C58   H28   S    
C36   C40   A    
C60   H30   S    
C1    C35   S    
Cr2   O21   S    
C15   N2    S    
Cr4   O7    S    
C46   C50   S    
C46   C47   A    
C36   C37   A    
C12   O22   A    
C18   C22   A    
C2    C8    A    
C4    C5    A    
C3    C5    A    
C11   C17   A    
C47   C51   S    
C53   C58   A    
Cr2   O20   S    
C47   C52   A    
C3    C63   S    
C23   O1    A    
N1    H35   S    
C29   C35   A    
C50   H24   S    
Cr3   O5    S    
Cr5   O16   S    
C32   C33   S    
C19   C24   S    
C22   H4    S    
C38   C43   A    
C3    C10   A    
C2    C70   A    
C33   H14   S    
C10   F5    S    
C63   O10   A    
C57   C58   A    
C20   C26   A    
C34   O25   A    
C55   C61   A    
N3    H39   S    
C48   H22   S    
C14   H2    S    
C37   C41   S    
C69   C70   A    
C62   O8    A    
C27   C64   S    
C6    C16   A    
C52   C56   S    
C4    H1    S    
C48   C52   A    
C50   H25   S    
Cr4   O19   S    
C27   C28   A    
C25   H7    S    
Cr6   O17   S    
C56   O4    A    
C14   C15   A    
C67   C69   A    
C55   C60   S    
C15   C16   A    
C13   N1    S    
