data_mof_unit_54907.cif
_audit_creation_date              2013-03-05T15:48:58-0500
_audit_creation_method            fapswitch 2.2
_symmetry_space_group_name_H-M    P1
_symmetry_Int_Tables_number       1
_space_group_crystal_system       triclinic
_cell_length_a                    8.199936
_cell_length_b                    18.766267
_cell_length_c                    19.025351
_cell_angle_alpha                 98.54878
_cell_angle_beta                  94.52534
_cell_angle_gamma                 91.780251
_cell_volume                      2883.38911445

loop_
_atom_site_label
_atom_site_type_symbol
_atom_site_description
_atom_site_fract_x
_atom_site_fract_y
_atom_site_fract_z
_atom_type_partial_charge
P1    P     P_3+3 0.947550 0.663200 0.567530 0.463356
O1    O     O_2   0.118870 0.674530 0.547560 -0.368271
O2    O     O_3   0.870460 0.585330 0.542110 -0.405502
O3    O     O_3   0.354280 0.631750 0.418430 -0.386018
O4    O     O_2   0.226855 0.755976 0.465655 -0.378784
O5    O     O_3   0.972252 0.679586 0.660847 -0.573633
O6    O     O_3   0.323449 0.746454 0.337843 -0.506889
H1    H     H_    0.313622 0.641097 0.285875 0.138605
C1    C     C_3   0.367641 0.715525 0.214799 -0.940734
H2    H     H_    0.236720 0.721747 0.198126 0.273015
H3    H     H_    0.436436 0.767486 0.215351 0.294505
P2    P     P_3+3 0.354660 0.445020 0.336980 0.462469
P3    P     P_3+3 0.912404 0.596672 0.288716 0.465041
O7    O     O_2   0.180880 0.466650 0.327890 -0.365663
O8    O     O_3   0.939000 0.596010 0.380670 -0.346651
O9    O     O_2   0.039127 0.546555 0.254010 -0.384376
O10   O     O_3   0.342433 0.351415 0.311047 -0.562660
O11   O     O_3   0.976644 0.682141 0.272979 -0.511031
C2    C     C_3   0.843215 0.727089 0.275678 0.183701
H4    H     H_    0.791235 0.730755 0.328381 0.084827
H5    H     H_    0.748039 0.706473 0.231826 0.065324
C3    C     C_3   0.902510 0.802476 0.265305 -0.066323
H6    H     H_    0.977558 0.828810 0.314003 0.134558
H7    H     H_    0.980942 0.798073 0.219870 0.143483
C4    C     C_3   0.790293 0.381374 0.312067 0.441549
H8    H     H_    0.672702 0.397679 0.332471 0.090231
H9    H     H_    0.883472 0.426304 0.326939 0.132421
C5    C     C_3   0.768018 0.363768 0.231140 -0.980286
H10   H     H_    0.669022 0.321428 0.214791 0.267810
H11   H     H_    0.735160 0.412394 0.207607 0.228816
H12   H     H_    0.883833 0.344174 0.210186 0.268951
Ba1   Ba    Ba6+2 0.152460 0.535140 0.468980 1.554517
C6    C     C_3   0.015439 0.616512 0.687220 0.438489
H13   H     H_    0.128996 0.596794 0.665256 0.088376
H14   H     H_    0.916915 0.573948 0.673135 0.137025
C7    C     C_3   0.042479 0.633578 0.768092 -0.970127
H15   H     H_    0.148784 0.672378 0.783666 0.271744
H16   H     H_    0.066366 0.583828 0.791242 0.228671
H17   H     H_    0.931580 0.657435 0.790195 0.267851
C8    C     C_3   0.293787 0.317613 0.367068 0.452035
H18   H     H_    0.172863 0.336203 0.381622 0.088152
H19   H     H_    0.384773 0.328900 0.414140 0.122331
C9    C     C_3   0.280603 0.236629 0.342115 -1.025711
H20   H     H_    0.183847 0.223628 0.297367 0.278697
H21   H     H_    0.249240 0.207628 0.386198 0.209752
H22   H     H_    0.399379 0.217843 0.323754 0.264464
P4    P     P_3+3 0.862750 0.336790 0.432410 0.463458
O12   O     O_2   0.691430 0.325420 0.452420 -0.372010
O13   O     O_3   0.939830 0.414660 0.457830 -0.408159
O14   O     O_3   0.456020 0.368240 0.581510 -0.377618
O15   O     O_3   0.840245 0.319579 0.339106 -0.574771
P5    P     P_3+3 0.891005 0.401649 0.711843 0.475020
O16   O     O_3   0.374170 0.535780 0.585810 -0.397710
O17   O     O_3   0.871300 0.403980 0.619270 -0.338496
O18   O     O_2   0.773067 0.456755 0.745491 -0.387183
O19   O     O_3   0.804614 0.319727 0.728851 -0.531310
Ba2   Ba    Ba6+2 0.657710 0.464850 0.530960 1.569210
P6    P     P_3+3 0.368731 0.725158 0.423577 0.465589
C10   C     C_3   0.384724 0.692927 0.288408 0.542921
H23   H     H_    0.516084 0.685120 0.302690 -0.022190
H24   H     H_    0.417285 0.673815 0.175586 0.207631
O20   O     O_3   0.436130 0.464210 0.414140 -0.406318
C11   C     C_3   0.512220 0.683220 0.647627 0.449233
H25   H     H_    0.634667 0.664736 0.634119 0.093791
H26   H     H_    0.424125 0.672232 0.599469 0.118223
C12   C     C_3   0.525731 0.764273 0.671794 -1.015008
H27   H     H_    0.617077 0.777351 0.718623 0.279065
H28   H     H_    0.565197 0.792080 0.628025 0.214197
H29   H     H_    0.404971 0.784005 0.686663 0.262487
P7    P     P_3+3 0.447953 0.555931 0.675539 0.433419
O21   O     O_2   0.629420 0.533310 0.672080 -0.358988
O22   O     O_3   0.457799 0.649325 0.703029 -0.567238
C13   C     C_3   0.925159 0.270761 0.743307 0.971233
H30   H     H_    0.050146 0.289933 0.735647 -0.167639
C14   C     C_3   0.923361 0.258949 0.821248 -1.042510
H31   H     H_    0.804731 0.233245 0.830373 0.270084
H32   H     H_    0.023663 0.223833 0.835171 0.244318
H33   H     H_    0.940697 0.311116 0.857350 0.222502
P8    P     P_3+3 0.440949 0.274887 0.575917 0.498208
C15   C     C_3   0.407668 0.300143 0.709879 0.440105
H34   H     H_    0.279522 0.306256 0.688846 -0.000901
O23   O     O_2   0.578772 0.243423 0.531715 -0.339182
O24   O     O_3   0.492287 0.254387 0.661284 -0.480796
H35   H     H_    0.471209 0.354307 0.720996 0.121892
H36   H     H_    0.333303 0.304568 0.817181 0.157125
C16   C     C_3   0.405365 0.269746 0.779861 -0.665216
H37   H     H_    0.532050 0.268986 0.804731 0.221839
C17   C     C_R   0.001641 0.951503 0.533283 0.015824
C18   C     C_R   0.097900 0.903707 0.567445 0.119902
C19   C     C_R   0.256194 0.926500 0.597541 -0.184304
C20   C     C_R   0.318122 0.996079 0.594276 -0.178071
C21   C     C_R   0.222209 0.044649 0.561663 0.127096
C22   C     C_R   0.063539 0.022406 0.530766 0.031566
C23   C     C_R   0.281828 0.115349 0.560899 -0.229920
C24   C     C_R   0.183837 0.165703 0.531229 -0.007549
C25   C     C_R   0.026244 0.142900 0.497625 0.062454
C26   C     C_R   0.966753 0.071008 0.497775 0.009961
C27   C     C_R   0.236447 0.238800 0.535994 0.143585
C28   C     C_R   0.130968 0.288127 0.510290 -0.491195
C29   C     C_R   0.979799 0.266319 0.472909 0.292371
C30   C     C_R   0.926440 0.192183 0.465438 -0.004400
C31   C     C_R   0.843176 0.928794 0.502549 -0.008796
C32   C     C_R   0.783504 0.856937 0.502774 0.000761
C33   C     C_R   0.883597 0.807579 0.534584 -0.033775
C34   C     C_R   0.036203 0.833590 0.570261 -0.135633
H38   H     H_    0.332805 0.890320 0.623268 0.136934
H39   H     H_    0.440789 0.012143 0.617926 0.155586
H40   H     H_    0.171009 0.344328 0.516222 0.166909
H41   H     H_    0.403793 0.130839 0.585266 0.192476
H42   H     H_    0.111091 0.799425 0.599102 0.164998
C35   C     C_R   0.774297 0.166014 0.429433 -0.140830
C36   C     C_R   0.712004 0.096101 0.432904 0.126144
C37   C     C_R   0.808260 0.048318 0.467093 0.022899
C38   C     C_R   0.745739 0.977650 0.470270 0.021545
C39   C     C_R   0.552630 0.073696 0.403977 -0.172834
C40   C     C_R   0.489353 0.004682 0.408718 -0.136114
C41   C     C_R   0.585502 0.956000 0.441049 0.149520
C42   C     C_R   0.624134 0.834687 0.470878 -0.024972
C43   C     C_R   0.524890 0.885588 0.442771 -0.140788
C44   C     C_R   0.570382 0.761761 0.466733 0.174319
C45   C     C_R   0.674564 0.712538 0.493547 -0.520827
C46   C     C_R   0.828537 0.733835 0.528473 0.278624
H43   H     H_    0.699311 0.200230 0.400690 0.162049
H44   H     H_    0.475943 0.109842 0.378301 0.133665
H45   H     H_    0.365634 0.989045 0.386194 0.134481
H46   H     H_    0.401409 0.870606 0.419991 0.170569
H47   H     H_    0.633002 0.656642 0.489045 0.179401
C47   C     C_R   0.606431 0.534259 0.301550 -0.507801
C48   C     C_R   0.461598 0.494656 0.276394 0.325176
C49   C     C_R   0.408352 0.486602 0.203716 -0.255396
C50   C     C_R   0.502135 0.516623 0.155459 0.023331
C51   C     C_R   0.652525 0.553574 0.181460 -0.312928
C52   C     C_R   0.705037 0.561438 0.254220 0.218860
C53   C     C_R   0.469208 0.563158 0.038041 -0.168790
C54   C     C_R   0.417862 0.554197 0.965288 -0.158804
C55   C     C_R   0.343635 0.488476 0.930221 0.162378
C56   C     C_R   0.319918 0.432272 0.970134 -0.172475
C57   C     C_R   0.370932 0.441323 0.043073 -0.160549
C58   C     C_R   0.446647 0.506874 0.077942 0.167463
C59   C     C_R   0.144805 0.441754 0.823734 -0.305156
C60   C     C_R   0.098661 0.433744 0.750189 0.211510
C61   C     C_R   0.343211 0.502602 0.733143 0.298123
C62   C     C_R   0.392205 0.509116 0.805893 -0.253607
C63   C     C_R   0.294153 0.478405 0.852164 0.034876
C64   C     C_R   0.201335 0.462194 0.705204 -0.486243
H48   H     H_    0.504499 0.539644 0.826356 0.150106
H49   H     H_    0.434928 0.599210 0.936632 0.129523
H50   H     H_    0.525032 0.614606 0.063241 0.126832
H51   H     H_    0.294836 0.456279 0.184956 0.154497
H52   H     H_    0.264940 0.380738 0.944623 0.121373
H53   H     H_    0.354062 0.396371 0.071828 0.125396
H54   H     H_    0.061429 0.423113 0.858981 0.139431
H55   H     H_    0.731489 0.573678 0.145134 0.150844
H56   H     H_    0.163456 0.458547 0.648953 0.163786
H57   H     H_    0.648577 0.539142 0.357458 0.172055
N1    N     N_R   0.764028 0.846495 0.250747 0.238495
O25   O     O_R   0.744591 0.871081 0.190351 -0.369703
O26   O     O_R   0.661000 0.862659 0.298554 -0.419278
N2    N     N_R   0.889080 0.203186 0.694442 0.233439
O27   O     O_R   0.868717 0.204937 0.626348 -0.386892
O28   O     O_R   0.873774 0.141509 0.717391 -0.409763
C65   C     C_1   0.331882 0.196122 0.767769 0.268104
N3    N     N_1   0.274209 0.138064 0.758049 -0.048261

loop_
_geom_bond_atom_site_label_1
_geom_bond_atom_site_label_2
_geom_bond_distance
_ccdc_geom_bond_type
C62   H48   1.082587 S    
C12   H28   1.109811 S    
C34   H42   1.079404 S    
C11   H26   1.110828 S    
C22   C26   1.411493 A    
C13   H30   1.103321 S    
P8    C27   1.850152 S    
C24   C25   1.419751 A    
C15   H35   1.111387 S    
C47   C48   1.393394 A    
C24   C27   1.412844 A    
O12   Ba2   2.846663 S    
P4    O13   1.566247 S    
C3    N1    1.457822 S    
H36   C16   1.110228 S    
C4    C5    1.521083 S    
C28   H40   1.081729 S    
O4    P6    1.542703 D    
C1    H24   1.108647 S    
C21   C22   1.408971 A    
C5    H10   1.110686 S    
C2    H5    1.112369 S    
C45   H47   1.081788 S    
C41   C43   1.403113 A    
H1    C10   1.111166 S    
C12   H29   1.110647 S    
C33   C46   1.427445 A    
C62   C63   1.409722 A    
C6    C7    1.521285 S    
O13   Ba2   2.903148 S    
C40   C41   1.403523 A    
O1    Ba1   2.846151 S    
P1    O1    1.500914 D    
C42   C43   1.411444 A    
C33   C34   1.412248 A    
C15   C16   1.525637 S    
C47   H57   1.081805 S    
C37   C38   1.418335 A    
C8    C9    1.521154 S    
C2    H4    1.113786 S    
C51   C52   1.401659 A    
P2    O10   1.750082 S    
C7    H15   1.110624 S    
N2    O28   1.302272 A    
P7    O21   1.563687 D    
C16   C65   1.468633 S    
C54   C55   1.407600 A    
C1    H2    1.109873 S    
C59   H54   1.080153 S    
O6    P6    1.750883 S    
P5    O18   1.541917 D    
C60   C64   1.395691 A    
C17   C18   1.409366 A    
C8    H19   1.109901 S    
C12   H27   1.110545 S    
C11   C12   1.520152 S    
C10   H23   1.109500 S    
C25   C30   1.427033 A    
P2    Ba1   3.388909 S    
C13   C14   1.532710 S    
C61   C64   1.392404 A    
O2    Ba1   2.902315 S    
Ba1   Ba2   4.524809 S    
C15   O24   1.405614 S    
O16   P7    1.747622 S    
O6    C10   1.403963 S    
C36   C37   1.409439 A    
C14   H33   1.107427 S    
P5    O17   1.763064 S    
C6    H13   1.102472 S    
C7    H17   1.110805 S    
P7    C61   1.833461 S    
O14   P8    1.739175 S    
P2    C48   1.842059 S    
C35   H43   1.079487 S    
P1    O5    1.750621 S    
P4    O12   1.501292 D    
C20   H39   1.083745 S    
Ba2   O20   2.755829 S    
C2    C3    1.527177 S    
C59   C60   1.404979 A    
C19   H38   1.082567 S    
C20   C21   1.403557 A    
O16   Ba2   2.903210 S    
C16   H37   1.108412 S    
O11   C2    1.401626 S    
P4    O15   1.750323 S    
C4    H8    1.102806 S    
P1    Ba1   3.394479 S    
P4    C29   1.878549 S    
P1    O2    1.566275 S    
O10   C8    1.396370 S    
C14   H31   1.109718 S    
C4    O15   1.396727 S    
C31   C38   1.411250 A    
P4    Ba2   3.395078 S    
P2    O20   1.550521 S    
N2    O27   1.298532 A    
P3    O8    1.747788 S    
C25   C26   1.420793 A    
C49   H51   1.082558 S    
C21   C23   1.402188 A    
C51   H55   1.082683 S    
C23   C24   1.411173 A    
Ba2   O21   2.829155 S    
C14   H32   1.110002 S    
C45   C46   1.397369 A    
O3    Ba1   2.744773 S    
C39   H44   1.082007 S    
C64   H56   1.082097 S    
P3    O11   1.747820 S    
C8    H18   1.103488 S    
P2    O7    1.497725 D    
C54   H49   1.082585 S    
C40   H45   1.083716 S    
C1    H3    1.109516 S    
C9    H20   1.110598 S    
C3    H7    1.112415 S    
C56   H52   1.083025 S    
C32   C42   1.419867 A    
C4    H9    1.108930 S    
P6    C44   1.851392 S    
C26   C37   1.408222 A    
C50   C51   1.412424 A    
O2    Ba2   2.784650 S    
Ba1   O16   2.756604 S    
C53   C58   1.405191 A    
C44   C45   1.401306 A    
C65   N3    1.157235 T    
C17   C22   1.418167 A    
N1    O25   1.300734 A    
O19   C13   1.409166 S    
C35   C36   1.405730 A    
C61   C62   1.396762 A    
O14   Ba2   2.744122 S    
P3    C52   1.839640 S    
C5    H12   1.110808 S    
C59   C63   1.413476 A    
O7    Ba1   2.829011 S    
C15   H34   1.110062 S    
O8    Ba1   2.724373 S    
P8    O23   1.541720 D    
C17   C31   1.408392 A    
C53   C54   1.398525 A    
C57   H53   1.082558 S    
C30   C35   1.412055 A    
C53   H50   1.082521 S    
C56   C57   1.401226 A    
C13   N2    1.463814 S    
C23   H41   1.080894 S    
P5    C60   1.845004 S    
O5    C6    1.397436 S    
C18   C34   1.405030 A    
N1    O26   1.299288 A    
C49   C50   1.410656 A    
C48   C49   1.401410 A    
Ba1   O20   2.904042 S    
C9    H21   1.107601 S    
C28   C29   1.397372 A    
C7    H16   1.106352 S    
P8    O24   1.746701 S    
C19   C20   1.398075 A    
C5    H11   1.106107 S    
C29   C30   1.428569 A    
C6    H14   1.106624 S    
C31   C32   1.420882 A    
C9    H22   1.110553 S    
C42   C44   1.413636 A    
Ba1   O13   2.784066 S    
C38   C41   1.408899 A    
C50   C58   1.491380 S    
C57   C58   1.408458 A    
C11   H25   1.109212 S    
C43   H46   1.081179 S    
P5    O19   1.756842 S    
C11   O22   1.403813 S    
C55   C63   1.490792 S    
C27   C28   1.400620 A    
P3    O9    1.544227 D    
O3    P6    1.740855 S    
C32   C33   1.425965 A    
C3    H6    1.111901 S    
C55   C56   1.405551 A    
P7    O22   1.750398 S    
P1    C46   1.876280 S    
C1    C10   1.519865 S    
C18   C19   1.403930 A    
C47   C52   1.396635 A    
C36   C39   1.403965 A    
C39   C40   1.398241 A    
O17   Ba2   2.725017 S    
