data_mof_unit_24634.cif
_audit_creation_date              2012-12-10T19:20:29-0500
_audit_creation_method            fapswitch 2.2
_symmetry_space_group_name_H-M    P1
_symmetry_Int_Tables_number       1
_space_group_crystal_system       triclinic
_cell_length_a                    14.963436
_cell_length_b                    15.726781
_cell_length_c                    16.699238
_cell_angle_alpha                 90.064693
_cell_angle_beta                  84.545481
_cell_angle_gamma                 89.26964
_cell_volume                      3911.65345274

loop_
_atom_site_label
_atom_site_type_symbol
_atom_type_description
_atom_site_fract_x
_atom_site_fract_y
_atom_site_fract_z
_atom_type_partial_charge
C1    C     C_R   0.499436 0.661997 0.500738 0.893525
C2    C     C_R   0.408025 0.452895 0.785114 0.376861
C3    C     C_R   0.479031 0.381616 0.153659 0.432183
C4    C     C_R   0.461478 0.415248 0.232069 0.273182
C5    C     C_R   0.601774 0.494765 0.212947 0.408167
C6    C     C_R   0.613520 0.467320 0.133667 -0.386087
C7    C     C_R   0.549703 0.415879 0.102957 -0.104846
C8    C     C_2   0.475433 0.472083 0.993342 0.406746
C9    C     C_2   0.542033 0.421588 0.016425 0.438123
C10   C     C_R   0.524098 0.470703 0.261880 -0.275378
C11   C     C_3   0.413523 0.951894 0.476636 0.092893
C12   C     C_R   0.487260 0.499467 0.653874 0.913555
C13   C     C_3   0.586705 0.943634 0.436329 0.725672
C14   C     C_3   0.587244 0.045126 0.425887 0.655445
C15   C     C_1   0.502713 0.249365 0.494738 -0.189015
C16   C     C_3   0.506088 0.916874 0.500359 -0.148996
C17   C     C_3   0.419177 0.050218 0.467173 0.056072
C18   C     C_3   0.512443 0.082805 0.491560 -0.175334
C19   C     C_3   0.522199 0.051573 0.580558 0.186570
C20   C     C_3   0.521553 0.951645 0.587047 0.628214
C21   C     C_1   0.507346 0.174209 0.491528 0.172806
C22   C     C_1   0.501444 0.825484 0.502724 0.202433
C23   C     C_R   0.500655 0.337915 0.498956 0.889930
C24   C     C_1   0.499038 0.750458 0.502328 -0.179222
C25   C     C_3   0.944024 0.591184 0.500554 0.101230
C26   C     C_3   0.956840 0.456326 0.414060 0.745682
C27   C     C_3   0.061943 0.443762 0.421994 0.810651
C28   C     C_3   0.910381 0.497075 0.495334 -0.299384
C29   C     C_3   0.049939 0.595623 0.501567 0.650768
C30   C     C_3   0.090440 0.500728 0.496760 -0.292576
C31   C     C_3   0.044279 0.457806 0.576035 0.205077
C32   C     C_3   0.940823 0.446801 0.569593 0.326840
C33   C     C_1   0.190833 0.501569 0.499837 0.117354
C34   C     C_R   0.513056 0.495510 0.346391 0.949587
C35   C     C_1   0.809421 0.498223 0.497150 0.128958
C36   C     C_R   0.479169 0.497050 0.741417 -0.276421
C37   C     C_R   0.545542 0.537082 0.782454 0.453423
C38   C     C_R   0.539454 0.533820 0.866007 -0.259336
C39   C     C_R   0.471029 0.488369 0.908039 -0.083546
C40   C     C_R   0.403688 0.451168 0.868525 -0.147172
H1    H     H_    0.668799 0.491913 0.094141 0.201931
H2    H     H_    0.413574 0.065571 0.402901 0.251124
H3    H     H_    0.457889 0.072948 0.612755 0.144461
H4    H     H_    0.362529 0.935269 0.526689 0.115264
H5    H     H_    0.926105 0.625312 0.445955 0.225014
H6    H     H_    0.905835 0.476048 0.624910 0.015980
H7    H     H_    0.050512 0.499594 0.629166 0.118936
H8    H     H_    0.351295 0.415416 0.902204 0.187989
H9    H     H_    0.589917 0.564071 0.898290 0.156426
N1    N     N_1   0.268730 0.501370 0.501580 -0.096768
N2    N     N_1   0.731270 0.498640 0.498400 -0.108628
O1    O     O_R   0.425740 0.622790 0.499920 -0.617152
O2    O     O_R   0.574190 0.622930 0.500090 -0.597853
O3    O     O_R   0.417000 0.499930 0.615710 -0.601936
O4    O     O_R   0.565450 0.500080 0.615870 -0.582523
O5    O     O_R   0.425810 0.377070 0.499910 -0.593994
O6    O     O_R   0.574260 0.377210 0.500080 -0.643333
O7    O     O_R   0.434550 0.499920 0.384130 -0.562766
O8    O     O_R   0.583000 0.500070 0.384290 -0.602354
Zn1   Zn    Zn3+2 0.400880 0.499910 0.499890 0.998193
Zn2   Zn    Zn3+2 0.599120 0.500090 0.500110 0.970201
O9    O     O_3   0.613830 0.582611 0.740681 -0.620474
C41   C     C_3   0.698905 0.545125 0.750416 0.119527
H10   H     H_    0.731018 0.527111 0.689931 0.165283
H11   H     H_    0.696074 0.485756 0.787175 0.130499
C42   C     C_3   0.758269 0.610038 0.787410 -0.335284
H12   H     H_    0.772276 0.663278 0.744516 0.243121
H13   H     H_    0.722664 0.636440 0.843560 0.220032
C43   C     C_3   0.846872 0.569896 0.807277 -0.969194
H14   H     H_    0.834299 0.518145 0.851999 0.275083
H15   H     H_    0.888566 0.618867 0.833119 0.271461
H16   H     H_    0.884581 0.543543 0.752239 0.250320
O10   O     O_3   0.390375 0.912625 0.404786 -0.633805
C44   C     C_3   0.296530 0.913973 0.399799 0.117166
H17   H     H_    0.273073 0.980018 0.388788 0.165631
H18   H     H_    0.259534 0.888916 0.455590 0.147627
C45   C     C_3   0.275445 0.856773 0.330115 -0.347040
H19   H     H_    0.309312 0.881461 0.272770 0.228917
H20   H     H_    0.301616 0.791392 0.339838 0.229569
C46   C     C_3   0.174518 0.852510 0.323594 -0.954737
H21   H     H_    0.139511 0.826766 0.380092 0.278263
H22   H     H_    0.161593 0.809819 0.272940 0.273286
H23   H     H_    0.147029 0.916939 0.312010 0.263539
O11   O     O_3   0.667903 0.916057 0.467663 -0.629132
C47   C     C_3   0.741964 0.901922 0.409414 0.227278
H24   H     H_    0.801646 0.931478 0.432285 0.142635
H25   H     H_    0.734148 0.931948 0.350037 0.156687
C48   C     C_3   0.759702 0.806197 0.400357 -0.344347
H26   H     H_    0.770554 0.778608 0.459997 0.252841
H27   H     H_    0.700042 0.775589 0.378809 0.241185
C49   C     C_3   0.841923 0.786798 0.341647 -0.981490
H28   H     H_    0.833122 0.814098 0.281564 0.264972
H29   H     H_    0.851144 0.716866 0.335253 0.273187
H30   H     H_    0.903049 0.813626 0.364383 0.275608
O12   O     O_3   0.578688 0.899601 0.362856 -0.816302
H31   H     H_    0.528748 0.923286 0.334998 0.382396
O13   O     O_3   0.563121 0.065272 0.348525 -0.868155
H32   H     H_    0.611534 0.043378 0.308725 0.344094
O14   O     O_3   0.677079 0.073819 0.432657 -0.697612
C50   C     C_3   0.698394 0.161317 0.419276 0.093072
H33   H     H_    0.772160 0.165252 0.421763 0.170085
H34   H     H_    0.671056 0.202106 0.469658 0.131524
C51   C     C_3   0.678250 0.199579 0.337867 -0.342584
H35   H     H_    0.705059 0.157024 0.287883 0.228306
H36   H     H_    0.604884 0.209289 0.336139 0.256903
C52   C     C_3   0.720868 0.286621 0.324537 -0.974369
H37   H     H_    0.700615 0.329645 0.376035 0.281190
H38   H     H_    0.697600 0.315301 0.269381 0.264036
H39   H     H_    0.795173 0.280259 0.316722 0.284737
O15   O     O_3   0.453442 0.923128 0.645677 -0.771122
H40   H     H_    0.397856 0.957799 0.645446 0.289993
O16   O     O_3   0.603280 0.920834 0.611502 -0.719592
H41   H     H_    0.596685 0.859448 0.624230 0.371570
O17   O     O_3   0.384216 0.395401 0.280236 -0.773951
H42   H     H_    0.338827 0.373272 0.246425 0.350188
O18   O     O_3   0.345068 0.092885 0.508998 -0.786138
H43   H     H_    0.330221 0.066070 0.562123 0.323351
O19   O     O_3   0.581471 0.096873 0.627107 -0.627029
C53   C     C_3   0.674619 0.083198 0.608941 0.225803
H44   H     H_    0.704273 0.143389 0.585383 0.108635
H45   H     H_    0.692815 0.032600 0.564627 0.236998
C54   C     C_3   0.716886 0.062295 0.686578 -0.325348
H46   H     H_    0.699422 0.113339 0.731570 0.212193
H47   H     H_    0.689568 0.001827 0.712244 0.270753
C55   C     C_3   0.818867 0.053973 0.671658 -0.976638
H48   H     H_    0.837606 0.001620 0.628324 0.278989
H49   H     H_    0.847453 0.039495 0.729152 0.273215
H50   H     H_    0.848026 0.114322 0.647354 0.266166
O20   O     O_3   0.085167 0.644587 0.435918 -0.863592
H51   H     H_    0.148979 0.655970 0.443069 0.333419
O21   O     O_3   0.922662 0.374731 0.397179 -0.737466
H52   H     H_    0.861999 0.366994 0.425022 0.325314
O22   O     O_3   0.945670 0.513940 0.349505 -0.729789
C56   C     C_3   0.876136 0.495691 0.300409 0.158767
H53   H     H_    0.848329 0.557636 0.281797 0.170274
H54   H     H_    0.818567 0.461494 0.331880 0.161422
C57   C     C_3   0.915324 0.448103 0.224690 -0.300537
H55   H     H_    0.974409 0.483016 0.197005 0.222904
H56   H     H_    0.937886 0.383356 0.240897 0.251597
C58   C     C_3   0.847479 0.440953 0.162543 -0.945989
H57   H     H_    0.787231 0.406691 0.188133 0.284669
H58   H     H_    0.878028 0.405080 0.109301 0.255148
H59   H     H_    0.827383 0.505197 0.142661 0.277537
O23   O     O_3   0.111394 0.451338 0.343854 -0.679019
C59   C     C_3   0.138159 0.532092 0.315493 0.081049
H60   H     H_    0.192996 0.556216 0.349070 0.157651
H61   H     H_    0.080751 0.576712 0.316662 0.256217
C60   C     C_3   0.175481 0.524064 0.227289 -0.325756
H62   H     H_    0.244502 0.496681 0.223479 0.240703
H63   H     H_    0.133270 0.480510 0.195014 0.236537
C61   C     C_3   0.177224 0.610424 0.185530 -0.970741
H64   H     H_    0.108040 0.636842 0.185325 0.268009
H65   H     H_    0.205983 0.602976 0.122261 0.275344
H66   H     H_    0.218433 0.655656 0.216925 0.273110
O24   O     O_3   0.071717 0.356218 0.444364 -0.547759
C62   C     C_3   0.158416 0.319173 0.425603 0.252525
H67   H     H_    0.176146 0.283701 0.479483 0.181887
H68   H     H_    0.212787 0.365708 0.411132 0.147894
C63   C     C_3   0.156025 0.256363 0.355754 -0.341458
H69   H     H_    0.098203 0.213074 0.368094 0.241591
H70   H     H_    0.147008 0.291784 0.299492 0.245387
C64   C     C_3   0.242321 0.203119 0.343806 -0.979738
H71   H     H_    0.301776 0.244718 0.334949 0.287117
H72   H     H_    0.240698 0.161754 0.290049 0.256037
H73   H     H_    0.248658 0.162071 0.397025 0.309474
O25   O     O_3   0.667847 0.543845 0.241992 -0.643585
C65   C     C_3   0.640344 0.630289 0.247332 0.110000
H74   H     H_    0.668981 0.657846 0.300283 0.170700
H75   H     H_    0.566173 0.639957 0.258026 0.106421
C66   C     C_3   0.677525 0.678592 0.172162 -0.389906
H76   H     H_    0.751872 0.671596 0.164596 0.226440
H77   H     H_    0.650210 0.651478 0.118230 0.215327
C67   C     C_3   0.652373 0.772896 0.178325 -0.911889
H78   H     H_    0.578289 0.781420 0.185332 0.276927
H79   H     H_    0.679579 0.806010 0.122770 0.258065
H80   H     H_    0.680847 0.802311 0.230552 0.284043
O26   O     O_3   0.920262 0.358920 0.563448 -0.538360
C68   C     C_3   0.852761 0.333435 0.623587 0.109922
H81   H     H_    0.823089 0.273906 0.602753 0.144328
H82   H     H_    0.796491 0.380679 0.632097 0.104048
C69   C     C_3   0.892967 0.315183 0.703113 -0.303179
H83   H     H_    0.941670 0.261261 0.694317 0.248753
H84   H     H_    0.929451 0.371581 0.722394 0.222409
C70   C     C_3   0.820337 0.293104 0.769869 -1.005713
H85   H     H_    0.772456 0.347226 0.781188 0.264907
H86   H     H_    0.851692 0.279349 0.826151 0.277733
H87   H     H_    0.783249 0.236248 0.753094 0.270245
O27   O     O_3   0.896419 0.635657 0.564873 -0.776856
H88   H     H_    0.914358 0.612691 0.616167 0.343532
O28   O     O_3   0.073965 0.633933 0.574474 -0.674913
C71   C     C_3   0.058862 0.723345 0.579654 0.178229
H89   H     H_    0.013428 0.736455 0.634974 0.161031
H90   H     H_    0.025540 0.750946 0.528530 0.191406
C72   C     C_3   0.147791 0.768162 0.587644 -0.371328
H91   H     H_    0.179037 0.742029 0.640342 0.245346
H92   H     H_    0.194750 0.756435 0.533059 0.219911
C73   C     C_3   0.133692 0.863911 0.598856 -0.975408
H93   H     H_    0.104614 0.891802 0.545840 0.262733
H94   H     H_    0.199165 0.894397 0.605333 0.265622
H95   H     H_    0.087932 0.877431 0.653872 0.274417
O29   O     O_3   0.084740 0.379441 0.593483 -0.692107
H96   H     H_    0.140002 0.391975 0.619632 0.336542
O30   O     O_3   0.614591 0.400462 0.961253 -0.689446
C74   C     C_3   0.636994 0.313146 0.965548 0.087725
H97   H     H_    0.653768 0.290305 0.902872 0.174836
H98   H     H_    0.580347 0.273346 0.990960 0.127984
C75   C     C_3   0.719693 0.300116 0.011868 -0.357926
H99   H     H_    0.774632 0.341673 0.986047 0.236595
H100  H     H_    0.703346 0.317542 0.076024 0.225056
C76   C     C_3   0.752295 0.207762 0.007463 -0.965510
H101  H     H_    0.698817 0.165074 0.033928 0.264680
H102  H     H_    0.811910 0.200378 0.041818 0.270815
H103  H     H_    0.771542 0.188819 0.943998 0.269168
O31   O     O_3   0.420192 0.326372 0.121423 -0.643017
C77   C     C_3   0.419223 0.246708 0.161420 0.049286
H104  H     H_    0.349779 0.222105 0.163455 0.180728
H105  H     H_    0.436209 0.249879 0.224936 0.154573
C78   C     C_3   0.483068 0.183343 0.115211 -0.386331
H106  H     H_    0.467894 0.180599 0.051409 0.236445
H107  H     H_    0.553225 0.204661 0.117758 0.214281
C79   C     C_3   0.473907 0.094460 0.151371 -0.923717
H108  H     H_    0.486999 0.095802 0.215628 0.296999
H109  H     H_    0.523240 0.050567 0.118433 0.263965
H110  H     H_    0.405268 0.070089 0.146538 0.263735
O32   O     O_3   0.344783 0.406994 0.749116 -0.745575
H111  H     H_    0.373744 0.381667 0.698759 0.340025
O33   O     O_3   0.407679 0.502643 0.049071 -0.647628
C80   C     C_3   0.402322 0.592658 0.046660 0.084708
H112  H     H_    0.334729 0.611122 0.029986 0.169121
H113  H     H_    0.452412 0.623279 0.002305 0.125407
C81   C     C_3   0.415856 0.627958 0.129857 -0.351512
H114  H     H_    0.370720 0.595511 0.176427 0.248309
H115  H     H_    0.485977 0.614755 0.142556 0.212533
C82   C     C_3   0.398359 0.723694 0.134795 -0.977730
H116  H     H_    0.446070 0.757337 0.091092 0.272815
H117  H     H_    0.407691 0.746559 0.196348 0.264288
H118  H     H_    0.328568 0.738963 0.121723 0.272364

loop_
_geom_bond_atom_site_label_1
_geom_bond_atom_site_label_2
_ccdc_geom_bond_type
C72   H92   S    
O30   C74   S    
C41   H11   S    
O28   C71   S    
O22   C56   S    
C73   H95   S    
C18   C21   S    
O29   H96   S    
C14   C18   S    
C42   H13   S    
O12   H31   S    
N2    Zn2   S    
C58   H59   S    
C56   C57   S    
C80   H113  S    
O13   H32   S    
C74   H98   S    
C14   O14   S    
C65   H75   S    
C38   H9    S    
O3    Zn1   S    
C47   H24   S    
O18   H43   S    
C25   C28   S    
C57   H56   S    
C13   O11   S    
C26   C27   S    
C37   C38   A    
C44   H18   S    
C78   C79   S    
C4    O17   S    
C36   C37   A    
C58   H58   S    
C64   H71   S    
C79   H110  S    
C3    C7    A    
C77   H105  S    
C59   H60   S    
C5    C6    A    
C53   C54   S    
C42   C43   S    
C49   H29   S    
C66   H76   S    
O7    Zn1   S    
C70   H85   S    
C43   H15   S    
C18   C19   S    
O10   C44   S    
C61   H66   S    
C73   H94   S    
C1    O2    A    
O19   C53   S    
C80   H112  S    
O1    Zn1   S    
C20   O16   S    
O2    Zn2   S    
C51   H36   S    
C29   O20   S    
O33   C80   S    
C28   C35   S    
C8    C9    D    
C6    H1    S    
C17   C18   S    
C75   C76   S    
C61   H64   S    
C63   H70   S    
C8    C39   S    
C12   C36   S    
C9    O30   S    
C45   H19   S    
C15   C23   S    
C42   H12   S    
C41   C42   S    
C65   H74   S    
C31   H7    S    
C13   C14   S    
C27   C30   S    
C25   C29   S    
C74   H97   S    
O25   C65   S    
C43   H14   S    
C82   H117  S    
C2    O32   S    
C46   H23   S    
O16   H41   S    
C59   H61   S    
C8    O33   S    
C19   H3    S    
C68   H81   S    
C65   C66   S    
C64   H72   S    
C53   H45   S    
C27   O24   S    
C57   C58   S    
O8    Zn2   S    
C44   H17   S    
C47   H25   S    
C75   H99   S    
C12   O4    A    
C23   O5    A    
C60   C61   S    
C45   H20   S    
C60   H62   S    
C19   O19   S    
C46   H22   S    
C11   O10   S    
C69   H84   S    
C49   H28   S    
O31   C77   S    
O23   C59   S    
C56   H54   S    
C72   C73   S    
O15   H40   S    
C33   N1    T    
C69   H83   S    
C44   C45   S    
C50   C51   S    
O5    Zn1   S    
O27   H88   S    
C3    O31   S    
C82   H118  S    
C43   H16   S    
C77   H104  S    
C71   H90   S    
C29   C30   S    
C25   O27   S    
C2    C40   A    
C55   H50   S    
C64   H73   S    
C11   C16   S    
C78   H107  S    
C63   H69   S    
C74   C75   S    
C28   C32   S    
C30   C31   S    
C16   C20   S    
O9    C41   S    
C50   H34   S    
O32   H111  S    
C63   C64   S    
C11   H4    S    
C10   C34   S    
C5    O25   S    
O11   C47   S    
C55   H49   S    
C56   H53   S    
C67   H79   S    
C20   O15   S    
C48   H27   S    
C76   H101  S    
C76   H102  S    
C81   H115  S    
C35   N2    T    
C55   H48   S    
C22   C24   T    
C32   O26   S    
C77   C78   S    
C82   H116  S    
C4    C10   A    
O21   H52   S    
C25   H5    S    
C17   H2    S    
C59   C60   S    
C14   O13   S    
C34   O7    A    
O20   H51   S    
C47   C48   S    
C2    C36   A    
C71   H89   S    
C23   O6    A    
C40   H8    S    
C62   H67   S    
C16   C22   S    
C69   C70   S    
C30   C33   S    
C34   O8    A    
C32   H6    S    
C31   C32   S    
C60   H63   S    
C46   H21   S    
C11   C17   S    
C79   H108  S    
C68   H82   S    
C53   H44   S    
C70   H87   S    
O6    Zn2   S    
C6    C7    A    
C62   C63   S    
C76   H103  S    
C57   H55   S    
C26   C28   S    
O14   C50   S    
N1    Zn1   S    
C19   C20   S    
C62   H68   S    
C71   C72   S    
C5    C10   A    
C79   H109  S    
C26   O22   S    
C49   H30   S    
C45   C46   S    
C27   O23   S    
C78   H106  S    
C38   C39   A    
C48   C49   S    
C52   H38   S    
C54   C55   S    
C58   H57   S    
O4    Zn2   S    
C50   H33   S    
C67   H80   S    
C70   H86   S    
C72   H91   S    
C51   C52   S    
O17   H42   S    
C61   H65   S    
C73   H93   S    
C1    O1    A    
C31   O29   S    
C68   C69   S    
C81   C82   S    
C67   H78   S    
C41   H10   S    
C39   C40   A    
C7    C9    S    
C15   C21   T    
C51   H35   S    
C48   H26   S    
C13   O12   S    
C1    C24   S    
O26   C68   S    
C52   H37   S    
C13   C16   S    
C81   H114  S    
C75   H100  S    
C37   O9    S    
C29   O28   S    
C66   H77   S    
C54   H46   S    
O24   C62   S    
C54   H47   S    
C66   C67   S    
C80   C81   S    
C12   O3    A    
C26   O21   S    
C3    C4    A    
C17   O18   S    
C52   H39   S    
