data_mof_unit_54448.cif
_audit_creation_date              2012-12-10T20:34:49-0500
_audit_creation_method            fapswitch 2.2
_symmetry_space_group_name_H-M    P1
_symmetry_Int_Tables_number       1
_space_group_crystal_system       triclinic
_cell_length_a                    10.64843
_cell_length_b                    10.765275
_cell_length_c                    9.874761
_cell_angle_alpha                 90.441978
_cell_angle_beta                  90.05756
_cell_angle_gamma                 90.401906
_cell_volume                      1131.91405392

loop_
_atom_site_label
_atom_site_type_symbol
_atom_type_description
_atom_site_fract_x
_atom_site_fract_y
_atom_site_fract_z
_atom_type_partial_charge
C1    C     C_R   0.502066 0.259666 0.498439 0.895049
C2    C     C_3   0.879049 0.497130 0.499254 0.060621
C3    C     C_3   0.931341 0.632002 0.524279 -0.133290
C4    C     C_3   0.928035 0.444261 0.362114 -0.384355
C5    C     C_R   0.450493 0.065154 0.607258 0.092472
C6    C     C_R   0.492465 0.126825 0.491824 -0.150339
C7    C     C_R   0.514285 0.058997 0.369108 0.063443
C8    C     C_R   0.498263 0.930935 0.372647 -0.257225
C9    C     C_R   0.481024 0.870648 0.496149 -0.139279
C10   C     C_R   0.448276 0.938164 0.610514 0.127883
C11   C     C_3   0.497799 0.933099 0.751647 -0.477907
C12   C     C_R   0.257933 0.494641 0.499743 0.865011
C13   C     C_3   0.499103 0.073792 0.748992 -0.468038
C14   C     C_R   0.440966 0.407028 0.070368 0.206712
C15   C     C_R   0.567915 0.585182 0.072763 -0.140536
C16   C     C_R   0.567949 0.585167 0.928817 -0.148118
C17   C     C_R   0.440563 0.407300 0.927847 0.221409
C18   C     C_3   0.303791 0.377629 0.922794 -0.523610
C19   C     C_3   0.304769 0.375530 0.076184 -0.529669
C20   C     C_R   0.495783 0.739590 0.500027 0.881997
C21   C     C_R   0.742282 0.497806 0.499897 0.876128
C22   C     C_3   0.071310 0.404400 0.608434 -0.467624
C23   C     C_3   0.927382 0.412988 0.616383 0.348573
C24   C     C_3   0.076466 0.627075 0.529133 -0.425662
C25   C     C_3   0.070835 0.450844 0.359076 -0.416862
C26   C     C_3   0.121702 0.493846 0.499225 0.101334
H1    H     H_    0.110139 0.428605 0.709492 0.139633
H2    H     H_    0.890665 0.496971 0.274555 0.173524
H3    H     H_    0.120045 0.690534 0.453884 0.173539
H4    H     H_    0.511103 0.876599 0.281510 0.175012
H5    H     H_    0.427951 0.894147 0.823623 0.199463
H6    H     H_    0.593311 0.892257 0.757465 0.199428
H7    H     H_    0.430115 0.116138 0.819552 0.200378
H8    H     H_    0.594676 0.115241 0.752680 0.215400
H9    H     H_    0.620787 0.655487 0.127660 0.137568
H10   H     H_    0.100998 0.307753 0.584092 0.191754
H11   H     H_    0.620864 0.655424 0.875233 0.139434
H12   H     H_    0.283881 0.285472 0.875838 0.192344
H13   H     H_    0.248265 0.455907 0.882242 0.211359
H14   H     H_    0.248352 0.451185 0.121894 0.215708
H15   H     H_    0.287376 0.281649 0.118602 0.192060
H16   H     H_    0.901700 0.459674 0.714174 0.050320
H17   H     H_    0.109604 0.658149 0.631003 0.155853
H18   H     H_    0.897669 0.662783 0.625953 0.131973
H19   H     H_    0.099740 0.518142 0.279807 0.180627
H20   H     H_    0.109137 0.358125 0.331131 0.173188
H21   H     H_    0.896565 0.346057 0.348761 0.201340
N1    N     N_R   0.499150 0.499140 0.142800 -0.104112
N2    N     N_R   0.499150 0.499180 0.857150 -0.107641
O1    O     O_R   0.500020 0.316790 0.614690 -0.608884
O2    O     O_R   0.500000 0.316760 0.385350 -0.640023
O3    O     O_R   0.314800 0.500000 0.614670 -0.625990
O4    O     O_R   0.314790 0.499960 0.385330 -0.626982
O5    O     O_R   0.500000 0.683240 0.614650 -0.618674
O6    O     O_R   0.499980 0.683210 0.385310 -0.633826
O7    O     O_R   0.685210 0.500040 0.614670 -0.630670
O8    O     O_R   0.685200 0.500000 0.385330 -0.636458
Zn1   Zn    Zn3+2 0.500010 0.500020 0.653130 0.935898
Zn2   Zn    Zn3+2 0.499990 0.499980 0.346870 0.923143
C27   C     C_3   0.885437 0.729903 0.420920 -0.384283
C28   C     C_3   0.921022 0.862190 0.467130 -0.372927
C29   C     C_3   0.863584 0.960174 0.376105 -0.892036
H22   H     H_    0.889356 0.942851 0.268685 0.257988
H23   H     H_    0.760251 0.958456 0.387610 0.275528
H24   H     H_    0.898444 0.053847 0.406173 0.275306
H25   H     H_    0.886577 0.876529 0.571907 0.225857
H26   H     H_    0.024441 0.875550 0.467066 0.225378
H27   H     H_    0.926351 0.711420 0.319311 0.207716
H28   H     H_    0.781596 0.725024 0.411606 0.205448
C30   C     C_3   0.566854 0.119907 0.241289 -0.351365
C31   C     C_3   0.613155 0.033055 0.127757 -0.395991
C32   C     C_3   0.688777 0.105290 0.023658 -0.922448
H29   H     H_    0.632981 0.183690 0.983626 0.260624
H30   H     H_    0.776725 0.142400 0.069697 0.259594
H31   H     H_    0.713836 0.041519 0.939612 0.259139
H32   H     H_    0.674853 0.959615 0.168330 0.227020
H33   H     H_    0.531312 0.988343 0.076498 0.226340
H34   H     H_    0.492831 0.178793 0.196394 0.215544
H35   H     H_    0.648247 0.178965 0.272447 0.227145
O9    O     O_3   0.873095 0.292544 0.607747 -0.614795
C33   C     C_3   0.874535 0.234682 0.736044 0.117026
H36   H     H_    0.785535 0.255454 0.789975 0.158413
H37   H     H_    0.954764 0.265056 0.801458 0.124393
C34   C     C_3   0.886234 0.095638 0.715751 -0.906001
H38   H     H_    0.970851 0.075676 0.653898 0.264092
H39   H     H_    0.897184 0.049025 0.814767 0.209171
H40   H     H_    0.801160 0.058986 0.663649 0.264325

loop_
_geom_bond_atom_site_label_1
_geom_bond_atom_site_label_2
_ccdc_geom_bond_type
O6    Zn2   S    
C30   H34   S    
C34   H40   S    
C7    C30   S    
C4    C25   S    
O4    Zn2   S    
C7    C8    A    
C21   O8    A    
C23   H16   S    
C34   H39   S    
C32   H31   S    
O5    Zn1   S    
C5    C6    A    
O8    Zn2   S    
C15   C16   A    
C18   C19   S    
C24   H3    S    
C29   H23   S    
C4    H2    S    
C28   H25   S    
C8    C9    A    
C30   C31   S    
C23   O9    S    
C1    O1    A    
C5    C13   S    
C12   O4    A    
C16   H11   S    
C3    C27   S    
C11   H5    S    
C14   C17   A    
C3    C24   S    
C15   N1    A    
C20   O6    A    
C15   H9    S    
C12   O3    A    
C33   H36   S    
C3    H18   S    
C1    C6    S    
O1    Zn1   S    
C34   H38   S    
C20   O5    A    
C19   H14   S    
C17   N2    A    
O9    C33   S    
C14   N1    A    
C25   C26   S    
N2    Zn1   S    
C12   C26   S    
C27   C28   S    
C2    C4    S    
C18   H13   S    
C13   H7    S    
C29   H22   S    
C28   H26   S    
C9    C20   S    
C2    C21   S    
C17   C18   S    
C16   N2    A    
C1    O2    A    
O3    Zn1   S    
C32   H30   S    
C11   H6    S    
C22   H1    S    
O2    Zn2   S    
C25   H19   S    
C31   H33   S    
C33   C34   S    
N1    Zn2   S    
C9    C10   A    
C29   H24   S    
C30   H35   S    
C14   C19   S    
C24   C26   S    
C32   H29   S    
C33   H37   S    
C21   O7    A    
C6    C7    A    
C22   H10   S    
C8    H4    S    
C2    C3    S    
C18   H12   S    
C13   H8    S    
C11   C13   S    
C31   H32   S    
C27   H28   S    
O7    Zn1   S    
C28   C29   S    
C10   C11   S    
C5    C10   A    
C31   C32   S    
C27   H27   S    
C22   C26   S    
C2    C23   S    
C24   H17   S    
C22   C23   S    
C25   H20   S    
C19   H15   S    
C4    H21   S    
