data_mof_unit_30840.cif
_audit_creation_date              2012-12-10T19:08:06-0500
_audit_creation_method            fapswitch 2.2
_symmetry_space_group_name_H-M    P1
_symmetry_Int_Tables_number       1
_space_group_crystal_system       triclinic
_cell_length_a                    9.074734
_cell_length_b                    10.811193
_cell_length_c                    9.567173
_cell_angle_alpha                 90.003465
_cell_angle_beta                  90.003445
_cell_angle_gamma                 90.087805
_cell_volume                      938.621806777

loop_
_atom_site_label
_atom_site_type_symbol
_atom_type_description
_atom_site_fract_x
_atom_site_fract_y
_atom_site_fract_z
_atom_type_partial_charge
C1    C     C_R   0.497331 0.262438 0.500021 0.851738
C2    C     C_R   0.417736 0.937270 0.382722 0.407280
C3    C     C_R   0.469609 0.870527 0.501140 -0.183685
C4    C     C_R   0.499866 0.936288 0.623467 0.006559
C5    C     C_3   0.623430 0.925212 0.726212 -0.481642
C6    C     C_3   0.629376 0.066165 0.725983 0.266873
C7    C     C_R   0.629200 0.504720 0.073497 0.162972
C8    C     C_R   0.372979 0.484933 0.074088 -0.071946
C9    C     C_R   0.372970 0.484990 0.925870 -0.067325
C10   C     C_R   0.629320 0.504067 0.926249 0.201246
C11   C     C_3   0.745005 0.602005 0.917865 -0.544037
C12   C     C_R   0.220735 0.500028 0.499974 0.826587
C13   C     C_3   0.744047 0.604510 0.077093 0.197012
C14   C     C_R   0.491759 0.737471 0.499905 0.807855
C15   C     C_R   0.779244 0.500132 0.500028 0.867857
C16   C     C_1   0.065551 0.500135 0.499984 -0.181629
C17   C     C_1   0.934411 0.500174 0.500025 -0.180037
C18   C     C_R   0.504327 0.063292 0.623512 0.027630
C19   C     C_R   0.480851 0.129539 0.500846 -0.178237
C20   C     C_R   0.428410 0.066421 0.382495 -0.199334
Cu1   Cu    Cu3+1 0.499990 0.499980 0.640670 0.964743
Cu2   Cu    Cu3+1 0.500010 0.500020 0.359330 0.974721
H1    H     H_    0.722409 0.879397 0.681365 0.199452
H2    H     H_    0.598865 0.108976 0.827552 0.148044
H3    H     H_    0.269361 0.474111 0.871808 0.149504
H4    H     H_    0.849884 0.565777 0.874126 0.182252
N1    N     N_R   0.500920 0.500930 0.147930 -0.177057
N2    N     N_R   0.500930 0.500890 0.852020 -0.176787
O1    O     O_R   0.500000 0.319640 0.618810 -0.563428
O2    O     O_R   0.500020 0.319680 0.381230 -0.591910
O3    O     O_R   0.288380 0.499980 0.618770 -0.591129
O4    O     O_R   0.288400 0.500020 0.381190 -0.600648
O5    O     O_R   0.499980 0.680320 0.618770 -0.577863
O6    O     O_R   0.500000 0.680360 0.381190 -0.534553
O7    O     O_R   0.711600 0.499980 0.618810 -0.570795
O8    O     O_R   0.711620 0.500020 0.381230 -0.572612
H5    H     H_    0.396480 0.116831 0.289425 0.183141
H6    H     H_    0.704667 0.687965 0.867347 0.215253
H7    H     H_    0.849340 0.573673 0.125030 0.140948
O9    O     O_3   0.693003 0.716979 0.133418 -0.662390
H8    H     H_    0.598043 0.738545 0.087859 0.353072
O10   O     O_3   0.360196 0.881137 0.265412 -0.715715
H9    H     H_    0.306481 0.805957 0.295635 0.328645
H10   H     H_    0.585184 0.886844 0.827699 0.185696
O11   O     O_3   0.761045 0.114744 0.670228 -0.707508
H11   H     H_    0.779931 0.075088 0.578272 0.334179
H12   H     H_    0.269394 0.473955 0.128154 0.147009

loop_
_geom_bond_atom_site_label_1
_geom_bond_atom_site_label_2
_ccdc_geom_bond_type
C14   O6    A    
C11   H6    S    
Cu1   O7    S    
C6    O11   S    
C7    C10   A    
Cu2   O8    S    
C19   C20   A    
C5    H1    S    
C4    C18   A    
Cu1   O3    S    
C14   O5    A    
C1    O1    A    
C2    C3    A    
C8    H12   S    
C6    H2    S    
Cu1   Cu2   S    
C12   O4    A    
C20   H5    S    
C11   C13   S    
C16   C17   T    
C3    C14   S    
Cu2   O4    S    
C2    O10   S    
C6    C18   S    
C15   O7    A    
O9    H8    S    
Cu1   N2    S    
Cu2   N1    S    
C12   O3    A    
C5    C6    S    
Cu2   O6    S    
C13   H7    S    
Cu1   O5    S    
C10   C11   S    
C2    C20   A    
C3    C4    A    
O11   H11   S    
C15   O8    A    
C7    C13   S    
C7    N1    A    
C18   C19   A    
O10   H9    S    
C10   N2    A    
C15   C17   S    
C8    N1    A    
C4    C5    S    
C13   O9    S    
Cu2   O2    S    
C11   H4    S    
C9    H3    S    
C1    C19   S    
Cu1   O1    S    
C5    H10   S    
C12   C16   S    
C9    N2    A    
C8    C9    A    
C1    O2    A    
