data_mof_unit_39080.cif
_audit_creation_date              2012-12-10T16:58:25-0500
_audit_creation_method            fapswitch 2.2
_symmetry_space_group_name_H-M    P1
_symmetry_Int_Tables_number       1
_space_group_crystal_system       triclinic
_cell_length_a                    7.837225
_cell_length_b                    8.651847
_cell_length_c                    23.339077
_cell_angle_alpha                 93.261141
_cell_angle_beta                  85.276833
_cell_angle_gamma                 93.422682
_cell_volume                      1572.2034024

loop_
_atom_site_label
_atom_site_type_symbol
_atom_type_description
_atom_site_fract_x
_atom_site_fract_y
_atom_site_fract_z
_atom_type_partial_charge
C1    C     C_R   0.544639 0.793863 0.499285 0.898427
C2    C     C_R   0.452021 0.376671 0.294019 -0.047270
C3    C     C_R   0.545501 0.614132 0.765116 -0.136532
C4    C     C_R   0.454500 0.385868 0.234883 -0.136532
C5    C     C_R   0.492885 0.475677 0.790737 0.229160
C6    C     C_R   0.507115 0.524323 0.209263 0.229161
C7    C     C_2   0.565019 0.956470 0.506118 -0.239274
C8    C     C_2   0.434981 0.043530 0.493882 -0.239274
C9    C     C_R   0.500688 0.499949 0.610164 0.868277
C10   C     C_R   0.499311 0.500050 0.389836 0.868277
C11   C     C_R   0.645661 0.464282 0.115917 0.535484
C12   C     C_R   0.455361 0.206137 0.500714 0.898428
C13   C     C_R   0.354338 0.535718 0.884083 0.535484
C14   C     C_R   0.374927 0.580537 0.124490 0.563390
C15   C     C_R   0.625073 0.419463 0.875509 0.563392
C16   C     C_R   0.369113 0.572680 0.064892 -0.023321
C17   C     C_R   0.630886 0.427320 0.935108 -0.023320
C18   C     C_R   0.503810 0.505810 0.030106 -0.018535
C19   C     C_R   0.496189 0.494191 0.969894 -0.018536
C20   C     C_R   0.645318 0.450106 0.055479 -0.066394
C21   C     C_R   0.354681 0.549894 0.944521 -0.066394
C22   C     C_R   0.230375 0.628717 0.039873 -0.183082
C23   C     C_R   0.440800 0.343473 0.757637 0.195624
C24   C     C_R   0.769623 0.371282 0.960127 -0.183082
C25   C     C_R   0.221644 0.618635 0.980453 -0.038861
C26   C     C_R   0.778354 0.381364 0.019547 -0.038861
C27   C     C_1   0.074581 0.682378 0.958769 0.291656
C28   C     C_1   0.925417 0.317618 0.041231 0.291654
C29   C     C_1   0.385131 0.217247 0.663233 0.249542
C30   C     C_1   0.614868 0.782753 0.336767 0.249542
C31   C     C_1   0.592763 0.771467 0.681678 0.240311
C32   C     C_1   0.407237 0.228533 0.318321 0.240311
C33   C     C_1   0.717510 0.016504 0.533777 0.300741
C34   C     C_R   0.559199 0.656528 0.242363 0.195624
C35   C     C_1   0.282490 0.983496 0.466222 0.300741
C36   C     C_R   0.443614 0.351215 0.697787 -0.103096
C37   C     C_R   0.556386 0.648786 0.302213 -0.103096
C38   C     C_R   0.499702 0.491038 0.672014 -0.129999
C39   C     C_R   0.500298 0.508963 0.327986 -0.129999
C40   C     C_R   0.547980 0.623329 0.705980 -0.047269
H1    H     H_    0.127119 0.680651 0.066739 0.202055
H2    H     H_    0.872879 0.319347 0.933261 0.202055
H3    H     H_    0.582048 0.715346 0.791894 0.169593
H4    H     H_    0.417953 0.284654 0.208106 0.169594
I1    I     I_    0.354481 0.135675 0.798894 -0.244315
I2    I     I_    0.645515 0.864327 0.201106 -0.244315
I3    I     I_    0.036759 0.300832 0.420324 -0.162957
I4    I     I_    0.963241 0.699168 0.579676 -0.162957
N1    N     N_R   0.511290 0.526790 0.148312 -0.348553
N2    N     N_1   0.371807 0.109224 0.337365 -0.170191
N3    N     N_1   0.838260 0.065299 0.555599 -0.138293
N4    N     N_1   0.161740 0.934701 0.444401 -0.138293
N5    N     N_R   0.488709 0.473210 0.851688 -0.348553
N6    N     N_2   0.950330 0.457950 0.484560 0.020560
N7    N     N_2   0.049670 0.542050 0.515440 0.020560
N8    N     N_1   0.956666 0.733729 0.941693 -0.150253
N9    N     N_1   0.043331 0.266264 0.058307 -0.150252
N10   N     N_1   0.337479 0.110243 0.635727 -0.170381
N11   N     N_1   0.662521 0.889756 0.364273 -0.170382
N12   N     N_1   0.628192 0.890776 0.662635 -0.170191
O1    O     O_R   0.389250 0.738570 0.503790 -0.611765
O2    O     O_2   0.222600 0.584151 0.857306 -0.514058
O3    O     O_2   0.244828 0.640018 0.158710 -0.510553
O4    O     O_2   0.755170 0.359982 0.841290 -0.510554
O5    O     O_R   0.610750 0.261430 0.496210 -0.611765
O6    O     O_R   0.678390 0.711620 0.493890 -0.606741
O7    O     O_R   0.321610 0.288380 0.506110 -0.606741
O8    O     O_R   0.355400 0.513520 0.588790 -0.597026
O9    O     O_R   0.644600 0.486480 0.411210 -0.597026
O10   O     O_R   0.644550 0.486570 0.578900 -0.603472
O11   O     O_R   0.355450 0.513430 0.421100 -0.603472
O12   O     O_2   0.777399 0.415848 0.142694 -0.514058
Zn1   Zn    Zn3+2 0.306930 0.518000 0.506610 1.050102
Zn2   Zn    Zn3+2 0.693070 0.482000 0.493390 1.050102

loop_
_geom_bond_atom_site_label_1
_geom_bond_atom_site_label_2
_ccdc_geom_bond_type
C31   N12   T    
O10   Zn2   S    
I4    N7    S    
C2    C4    A    
C15   O4    S    
C15   C17   A    
C34   I2    S    
C25   C27   S    
C34   C37   A    
C24   H2    S    
C12   O5    A    
C26   C28   S    
C5    C23   A    
C8    C12   S    
N7    Zn1   S    
C32   N2    T    
C30   N11   T    
C27   N8    T    
C36   C38   A    
C1    O6    A    
O8    Zn1   S    
C9    O8    A    
C13   C21   A    
O9    Zn2   S    
C37   C39   A    
C1    C7    S    
C28   N9    T    
C10   O11   A    
C38   C40   A    
C7    C33   S    
C29   C36   S    
C3    H3    S    
C20   C26   A    
I3    N6    S    
C23   I1    S    
C14   O3    S    
C15   N5    A    
C2    C32   S    
C9    C38   S    
C19   C21   A    
C24   C26   A    
C3    C40   A    
C23   C36   A    
C11   O12   S    
C13   N5    A    
C6    N1    S    
O1    Zn1   S    
C12   O7    A    
C14   C16   A    
C11   C20   A    
C17   C24   A    
C33   N3    T    
C13   O2    S    
O7    Zn1   S    
C4    C6    A    
C22   H1    S    
C10   O9    A    
C6    C34   A    
C7    C8    D    
C1    O1    A    
C9    O10   A    
C14   N1    A    
C18   C20   A    
C16   C18   A    
C18   C19   A    
C5    N5    S    
C35   N4    T    
O11   Zn1   S    
C21   C25   A    
N6    N7    D    
C11   N1    A    
C4    H4    S    
C17   C19   A    
C31   C40   S    
N6    Zn2   S    
C2    C39   A    
C22   C25   A    
O5    Zn2   S    
C29   N10   T    
C30   C37   S    
C16   C22   A    
C10   C39   S    
C3    C5    A    
C8    C35   S    
O6    Zn2   S    
