data_mof_unit_46607.cif
_audit_creation_date              2012-12-10T18:20:31-0500
_audit_creation_method            fapswitch 2.2
_symmetry_space_group_name_H-M    P1
_symmetry_Int_Tables_number       1
_space_group_crystal_system       triclinic
_cell_length_a                    14.177615
_cell_length_b                    13.599266
_cell_length_c                    14.890314
_cell_angle_alpha                 87.639156
_cell_angle_beta                  91.005009
_cell_angle_gamma                 82.802585
_cell_volume                      2845.14349269

loop_
_atom_site_label
_atom_site_type_symbol
_atom_type_description
_atom_site_fract_x
_atom_site_fract_y
_atom_site_fract_z
_atom_type_partial_charge
C1    C     C_R   0.498624 0.502665 0.326936 0.836901
C2    C     C_R   0.430204 0.339892 0.962773 -0.002189
C3    C     C_R   0.809445 0.424285 0.545196 0.165621
C4    C     C_R   0.189541 0.572114 0.451624 0.162955
C5    C     C_R   0.791345 0.572008 0.453095 0.062298
C6    C     C_R   0.211547 0.428639 0.550628 -0.000512
C7    C     C_R   0.889473 0.582686 0.468718 -0.001146
C8    C     C_R   0.112139 0.418641 0.541844 -0.117239
C9    C     C_R   0.950422 0.499789 0.503520 -0.009959
C10   C     C_R   0.050730 0.500705 0.505192 0.026932
C11   C     C_R   0.910691 0.414911 0.533496 -0.024334
C12   C     C_R   0.500803 0.497911 0.672762 0.856694
C13   C     C_R   0.089912 0.584143 0.470469 -0.021380
C14   C     C_R   0.927720 0.673426 0.451977 0.001707
C15   C     C_R   0.072484 0.329750 0.564511 -0.043044
C16   C     C_R   0.517173 0.314445 0.501494 0.892844
C17   C     C_R   0.482771 0.685500 0.499250 0.871785
C18   C     C_R   0.028237 0.675128 0.455074 0.011337
C19   C     C_R   0.973295 0.325205 0.551524 0.067248
C20   C     C_1   0.469092 0.789175 0.498051 -0.102697
C21   C     C_1   0.529691 0.210954 0.513269 -0.080554
C22   C     C_2   0.455870 0.981273 0.500384 0.006401
C23   C     C_R   0.479103 0.506417 0.951747 0.013653
C24   C     C_2   0.530654 0.020416 0.536623 -0.029211
C25   C     C_1   0.534067 0.123671 0.524909 -0.023018
C26   C     C_1   0.459988 0.877003 0.498338 -0.040938
C27   C     C_R   0.484531 0.409495 0.817677 -0.089400
C28   C     C_R   0.507358 0.596404 0.181696 -0.081618
C29   C     C_R   0.500496 0.495921 0.768324 -0.163635
C30   C     C_R   0.492970 0.508963 0.230749 -0.143477
C31   C     C_R   0.506018 0.585163 0.808266 -0.205349
C32   C     C_R   0.465297 0.427389 0.189401 -0.218915
C33   C     C_R   0.497714 0.590547 0.900036 0.128095
C34   C     C_R   0.476544 0.511632 0.045325 0.019426
C35   C     C_R   0.459493 0.426897 0.096977 0.134534
C36   C     C_2   0.613617 0.962813 0.585924 0.473735
C37   C     C_2   0.370418 0.039133 0.455242 0.401935
C38   C     C_2   0.502104 0.312563 0.773602 0.446167
C39   C     C_2   0.544830 0.677130 0.230014 0.508958
C40   C     C_2   0.474603 0.791011 0.063803 0.482596
C41   C     C_2   0.379193 0.261387 0.925403 0.509828
C42   C     C_3   0.770812 0.362127 0.619549 -0.385418
C43   C     C_3   0.809529 0.386711 0.711939 -0.390006
C44   C     C_3   0.766707 0.329738 0.788089 -0.793329
C45   C     C_R   0.464459 0.416935 0.910004 0.102762
C46   C     C_3   0.216805 0.607566 0.357810 -0.348259
C47   C     C_3   0.276652 0.694876 0.351905 -0.353574
C48   C     C_3   0.254797 0.759030 0.265506 -0.856888
C49   C     C_2   0.738952 0.627245 0.376270 0.504464
C50   C     C_2   0.270291 0.374433 0.623943 0.546925
C51   C     C_2   0.862468 0.767892 0.440055 0.414841
C52   C     C_2   0.135180 0.237047 0.588065 0.434498
C53   C     C_3   0.068264 0.774418 0.456465 -0.437019
C54   C     C_3   0.122281 0.786455 0.545037 -0.320821
C55   C     C_3   0.158280 0.887644 0.546696 -0.857418
C56   C     C_R   0.492309 0.600731 0.087210 0.085903
C57   C     C_3   0.940754 0.225715 0.528663 -0.440539
C58   C     C_3   0.939212 0.151278 0.609528 -0.315186
C59   C     C_3   0.872957 0.073745 0.591046 -0.882876
C60   C     C_R   0.502280 0.680912 0.939560 -0.298535
C61   C     C_R   0.433770 0.343481 0.056022 -0.313443
C62   C     C_R   0.493533 0.688717 0.031968 0.008776
H1    H     H_    0.516656 0.650629 0.767242 0.162796
H2    H     H_    0.380157 0.190675 0.962231 0.064065
H3    H     H_    0.689364 0.354215 0.790981 0.273459
H4    H     H_    0.778913 0.248675 0.778128 0.267829
H5    H     H_    0.800252 0.344921 0.853163 0.258389
H6    H     H_    0.888044 0.367766 0.715772 0.239303
H7    H     H_    0.792447 0.467555 0.721841 0.248619
H8    H     H_    0.693948 0.373963 0.620898 0.259736
H9    H     H_    0.785003 0.282456 0.609044 0.193272
H10   H     H_    0.272929 0.714140 0.206082 0.291708
H11   H     H_    0.178660 0.790104 0.260087 0.251719
H12   H     H_    0.451419 0.362608 0.229792 0.152374
H13   H     H_    0.298084 0.821661 0.265137 0.282340
H14   H     H_    0.267008 0.741690 0.410938 0.230828
H15   H     H_    0.352731 0.667100 0.349083 0.245728
H16   H     H_    0.253714 0.543602 0.323189 0.212426
H17   H     H_    0.150486 0.627796 0.316519 0.189960
H18   H     H_    0.663658 0.647904 0.377126 0.113653
H19   H     H_    0.272162 0.406693 0.689262 0.071501
H20   H     H_    0.873566 0.821648 0.386634 0.072467
H21   H     H_    0.176350 0.198662 0.536464 0.125310
H22   H     H_    0.206775 0.896841 0.490079 0.247128
H23   H     H_    0.508008 0.746912 0.897447 0.153492
H24   H     H_    0.097709 0.948072 0.541543 0.262640
H25   H     H_    0.197959 0.893601 0.610791 0.267344
H26   H     H_    0.073996 0.779194 0.602312 0.237106
H27   H     H_    0.184178 0.728201 0.554718 0.228099
H28   H     H_    0.112559 0.783278 0.397932 0.219332
H29   H     H_    0.012650 0.838981 0.449111 0.188742
H30   H     H_    0.798881 0.109722 0.579030 0.248261
H31   H     H_    0.896571 0.031804 0.531245 0.267341
H32   H     H_    0.874154 0.020728 0.649921 0.269709
H33   H     H_    0.011090 0.110531 0.622668 0.253254
H34   H     H_    0.412491 0.282523 0.097034 0.146495
H35   H     H_    0.917078 0.189792 0.671407 0.245081
H36   H     H_    0.870545 0.238079 0.492942 0.210698
H37   H     H_    0.989170 0.190631 0.477857 0.182320
H38   H     H_    0.675525 0.999137 0.601150 0.058875
H39   H     H_    0.322949 0.000670 0.415342 0.045130
H40   H     H_    0.485409 0.307578 0.702760 0.085368
H41   H     H_    0.516920 0.697933 0.294853 -0.001599
H42   H     H_    0.506548 0.850603 0.030199 0.076039
N1    N     N_R   0.750030 0.500040 0.500070 -0.159681
N2    N     N_R   0.249970 0.499960 0.499930 -0.142359
O1    O     O_R   0.580280 0.500020 0.367860 -0.633211
O2    O     O_2   0.350175 0.128161 0.463404 -0.543975
O3    O     O_2   0.540775 0.238518 0.814879 -0.577409
O4    O     O_2   0.609721 0.718300 0.199376 -0.533205
O5    O     O_2   0.418431 0.811032 0.123498 -0.607829
O6    O     O_2   0.330828 0.276925 0.856414 -0.549835
O7    O     O_2   0.780782 0.648054 0.308419 -0.564960
O8    O     O_2   0.315721 0.293720 0.613006 -0.521500
O9    O     O_2   0.796192 0.786443 0.490495 -0.554069
O10   O     O_2   0.142675 0.204721 0.665923 -0.535331
O11   O     O_R   0.419720 0.499980 0.632140 -0.633811
O12   O     O_R   0.419730 0.500030 0.367840 -0.628973
O13   O     O_R   0.580270 0.499970 0.632160 -0.620536
O14   O     O_R   0.591830 0.359650 0.500030 -0.660193
O15   O     O_R   0.408170 0.640350 0.499970 -0.640102
O16   O     O_R   0.431280 0.359660 0.500010 -0.540680
O17   O     O_R   0.568720 0.640340 0.499990 -0.604509
O18   O     O_2   0.613478 0.876716 0.612510 -0.527815
Zn1   Zn    Zn3+2 0.607200 0.499990 0.500020 0.940732
Zn2   Zn    Zn3+2 0.392800 0.500010 0.499980 0.953014

loop_
_geom_bond_atom_site_label_1
_geom_bond_atom_site_label_2
_ccdc_geom_bond_type
C49   O7    D    
C3    C42   S    
C34   C56   A    
C16   C21   S    
C23   C45   A    
C12   C29   S    
C27   C29   A    
C14   C18   A    
C44   H4    S    
C58   H33   S    
C28   C56   A    
C61   H34   S    
C4    C46   S    
C53   C54   S    
C19   C57   S    
C15   C19   A    
C11   C19   A    
C24   C36   S    
C13   C18   A    
C36   O18   D    
C47   H14   S    
C16   O14   A    
C32   H12   S    
C46   H17   S    
O17   Zn1   S    
C27   C38   S    
C57   H37   S    
C42   H8    S    
C17   C20   S    
C40   C62   S    
C60   C62   A    
C34   C35   A    
C4    C13   A    
C16   O16   A    
C1    C30   S    
C37   H39   S    
C18   C53   S    
C46   C47   S    
C17   O17   A    
C39   O4    D    
C47   C48   S    
C43   H6    S    
C23   C33   A    
C41   O6    D    
C53   H29   S    
C31   C33   A    
C59   H32   S    
C7    C14   A    
O11   Zn2   S    
C2    C61   A    
C59   H30   S    
C5    N1    A    
C27   C45   A    
C43   H7    S    
C48   H13   S    
C5    C49   S    
C44   H3    S    
C58   H35   S    
C48   H10   S    
C40   O5    D    
C52   O10   D    
C2    C45   A    
C32   C35   A    
C31   H1    S    
C24   C25   S    
O1    Zn1   S    
C37   O2    D    
C36   H38   S    
C5    C7    A    
O14   Zn1   S    
C6    C8    A    
C28   C39   S    
C58   C59   S    
C22   C37   S    
C4    N2    A    
C3    N1    A    
C50   O8    D    
O16   Zn2   S    
C52   H21   S    
C43   C44   S    
C40   H42   S    
C12   O13   A    
C14   C51   S    
C23   C34   A    
C6    N2    A    
C35   C61   A    
C15   C52   S    
C6    C50   S    
C38   O3    D    
C9    C11   A    
C51   H20   S    
C1    O1    A    
O13   Zn1   S    
C17   O15   A    
C8    C15   A    
C56   C62   A    
C42   C43   S    
C47   H15   S    
C46   H16   S    
C9    C10   A    
C7    C9    A    
C21   C25   T    
C54   C55   S    
C48   H11   S    
C8    C10   A    
C10   C13   A    
C60   H23   S    
C39   H41   S    
C33   C60   A    
C59   H31   S    
N2    Zn2   S    
C49   H18   S    
N1    Zn1   S    
C54   H26   S    
C55   H24   S    
C28   C30   A    
O15   Zn2   S    
C38   H40   S    
C30   C32   A    
C57   C58   S    
C20   C26   T    
C57   H36   S    
C42   H9    S    
C54   H27   S    
C22   C24   D    
C1    O12   A    
C55   H25   S    
C51   O9    D    
C3    C11   A    
C12   O11   A    
C29   C31   A    
C22   C26   S    
C53   H28   S    
C2    C41   S    
C44   H5    S    
O12   Zn2   S    
C41   H2    S    
C55   H22   S    
C50   H19   S    
