data_mof_unit_52564.cif
_audit_creation_date              2012-12-10T17:47:14-0500
_audit_creation_method            fapswitch 2.2
_symmetry_space_group_name_H-M    P1
_symmetry_Int_Tables_number       1
_space_group_crystal_system       triclinic
_cell_length_a                    11.708852
_cell_length_b                    14.782028
_cell_length_c                    14.591508
_cell_angle_alpha                 65.390734
_cell_angle_beta                  103.65229
_cell_angle_gamma                 103.129025
_cell_volume                      2207.37821666

loop_
_atom_site_label
_atom_site_type_symbol
_atom_type_description
_atom_site_fract_x
_atom_site_fract_y
_atom_site_fract_z
_atom_type_partial_charge
C1    C     C_R   0.480743 0.119215 0.311338 0.807749
C2    C     C_R   0.519777 0.880841 0.688681 0.816069
C3    C     C_R   0.428872 0.324423 0.998817 0.115249
C4    C     C_R   0.554001 0.677149 0.002708 0.114440
C5    C     C_R   0.503634 0.466891 0.052941 0.067813
C6    C     C_R   0.479468 0.534381 0.949163 0.066571
C7    C     C_R   0.426542 0.493812 0.873985 -0.219058
C8    C     C_R   0.548771 0.507760 0.128841 -0.219676
C9    C     C_R   0.403096 0.391089 0.898505 -0.198737
C10   C     C_R   0.571529 0.610648 0.104011 -0.191193
C11   C     C_R   0.740719 0.318458 0.597553 -0.231137
C12   C     C_R   0.271169 0.697094 0.367290 -0.216620
C13   C     C_R   0.691911 0.223617 0.599369 0.122299
C14   C     C_R   0.316390 0.785849 0.381804 0.118523
C15   C     C_R   0.502253 0.274559 0.529794 0.062656
C16   C     C_R   0.492331 0.720699 0.479865 0.085701
C17   C     C_R   0.546741 0.375401 0.523261 -0.028170
C18   C     C_R   0.455891 0.629695 0.461520 -0.021907
C19   C     C_R   0.670481 0.395874 0.555921 0.021143
C20   C     C_R   0.338282 0.617194 0.409122 0.012154
C21   C     C_R   0.476337 0.456736 0.483048 -0.126651
C22   C     C_R   0.528892 0.551099 0.494119 -0.117814
C23   C     C_R   0.284017 0.000142 0.499696 0.817799
C24   C     C_R   0.715964 0.999985 0.500097 0.824368
C25   C     C_R   0.654124 0.565530 0.530272 0.438038
C26   C     C_R   0.356936 0.448699 0.430537 0.397515
C27   C     C_R   0.723771 0.493151 0.546349 0.068947
C28   C     C_R   0.288502 0.525826 0.398923 0.099755
C29   C     C_1   0.162286 0.000252 0.499459 -0.164950
C30   C     C_1   0.837662 0.000135 0.499929 -0.160936
C31   C     C_1   0.059837 0.000305 0.499463 0.020776
C32   C     C_1   0.940092 0.000237 0.499693 0.021662
C33   C     C_R   0.467423 0.186073 0.201732 -0.103905
C34   C     C_R   0.530841 0.814353 0.798397 -0.112783
C35   C     C_R   0.401776 0.221029 0.021244 -0.194652
C36   C     C_R   0.582636 0.780663 0.979633 -0.193939
C37   C     C_R   0.419671 0.151482 0.121476 0.167841
C38   C     C_R   0.571464 0.849699 0.878739 0.167047
C39   C     C_R   0.501049 0.289762 0.177636 -0.280945
C40   C     C_R   0.499706 0.710542 0.822655 -0.279598
C41   C     C_R   0.479567 0.360935 0.077234 0.072271
C42   C     C_R   0.509364 0.640213 0.924040 0.093216
Cu1   Cu    Cu3+1 0.469550 0.918260 0.475690 0.970901
Cu2   Cu    Cu3+1 0.530450 0.081740 0.524310 0.966412
H1    H     H_    0.362843 0.363573 0.838230 0.156160
H2    H     H_    0.605503 0.638381 0.164840 0.161006
H3    H     H_    0.470772 0.686075 0.760210 0.163606
H4    H     H_    0.542807 0.313161 0.239566 0.168402
H5    H     H_    0.364077 0.193983 0.960319 0.167558
H6    H     H_    0.615545 0.808168 0.040672 0.171633
H7    H     H_    0.399772 0.538926 0.794953 0.149359
H8    H     H_    0.567189 0.462960 0.209025 0.141891
H9    H     H_    0.570079 0.733435 0.530641 0.183162
H10   H     H_    0.410754 0.248210 0.511080 0.201367
H11   H     H_    0.263252 0.846150 0.350474 0.151532
H12   H     H_    0.748525 0.166113 0.627840 0.147541
H13   H     H_    0.833819 0.330293 0.628369 0.178591
H14   H     H_    0.183698 0.692789 0.322855 0.186933
N1    N     N_R   0.576230 0.204580 0.560790 -0.197244
N2    N     N_R   0.423770 0.795420 0.439210 -0.200440
O1    O     O_R   0.459870 0.022090 0.338120 -0.547020
O2    O     O_R   0.540130 0.977910 0.661880 -0.545371
O3    O     O_R   0.511290 0.160150 0.379180 -0.593956
O4    O     O_R   0.488710 0.839850 0.620820 -0.601084
O5    O     O_R   0.311490 0.930960 0.479480 -0.579882
O6    O     O_R   0.688510 0.069040 0.520520 -0.587175
O7    O     O_R   0.362910 0.069020 0.520540 -0.582110
O8    O     O_R   0.637090 0.930980 0.479460 -0.567226
O9    O     O_3   0.711772 0.655381 0.538063 -0.611423
C43   C     C_3   0.763547 0.642642 0.640797 0.052445
H15   H     H_    0.794589 0.719154 0.641699 0.178495
H16   H     H_    0.843983 0.605729 0.665673 0.185193
C44   C     C_3   0.678898 0.585689 0.720211 -0.442524
H17   H     H_    0.597493 0.621316 0.697068 0.211819
H18   H     H_    0.652435 0.506351 0.726914 0.224255
C45   C     C_3   0.740029 0.585232 0.825114 -0.832124
H19   H     H_    0.825770 0.555504 0.847429 0.257326
H20   H     H_    0.682984 0.536058 0.883222 0.268412
H21   H     H_    0.756514 0.662589 0.824276 0.256273
O10   O     O_3   0.301861 0.364171 0.411030 -0.617378
C46   C     C_3   0.311354 0.378534 0.310890 0.059293
H22   H     H_    0.404634 0.377840 0.306495 0.121974
H23   H     H_    0.284033 0.451544 0.253781 0.173101
C47   C     C_3   0.231179 0.292039 0.284874 -0.298996
H24   H     H_    0.278903 0.225760 0.316772 0.200488
H25   H     H_    0.149640 0.269757 0.320384 0.256920
C48   C     C_3   0.193153 0.321208 0.169963 -0.874246
H26   H     H_    0.133210 0.379215 0.139399 0.269027
H27   H     H_    0.144926 0.254058 0.154095 0.260658
H28   H     H_    0.271350 0.351664 0.130275 0.262567
I1    I     I_    0.621723 0.003278 0.860805 -0.340935
I2    I     I_    0.369931 0.998387 0.138216 -0.348299
I3    I     I_    0.909775 0.538762 0.535324 -0.346694
I4    I     I_    0.102694 0.495278 0.342019 -0.327108

loop_
_geom_bond_atom_site_label_1
_geom_bond_atom_site_label_2
_ccdc_geom_bond_type
C40   H3    S    
C21   C26   A    
C4    C36   A    
C9    H1    S    
C44   H17   S    
Cu2   O6    S    
C47   C48   S    
C48   H26   S    
C46   H22   S    
C1    C33   S    
C39   C41   A    
C11   C19   A    
C33   C39   A    
C34   C40   A    
C23   C29   S    
C35   C37   A    
C47   H25   S    
C5    C6    A    
Cu2   N1    S    
C28   I4    S    
C16   N2    A    
C23   O7    A    
C16   H9    S    
Cu1   O8    S    
C22   C25   A    
C10   H2    S    
C45   H21   S    
C43   H15   S    
C19   C27   A    
C8    H8    S    
C26   O10   S    
C24   O6    A    
C13   H12   S    
C12   H14   S    
C2    C34   S    
C40   C42   A    
C14   H11   S    
C34   C38   A    
C21   C22   A    
C44   H18   S    
C1    O3    A    
C46   H23   S    
C2    O4    A    
Cu1   O4    S    
Cu2   O3    S    
C15   H10   S    
C45   H19   S    
C20   C28   A    
Cu2   O2    S    
C38   I1    S    
C33   C37   A    
Cu1   Cu2   S    
C35   H5    S    
C3    C9    A    
C31   C32   S    
C3    C35   A    
Cu1   O5    S    
C12   C20   A    
C43   C44   S    
C47   H24   S    
Cu1   N2    S    
C16   C18   A    
C12   C14   A    
C48   H27   S    
C44   C45   S    
C27   I3    S    
C25   O9    S    
C4    C10   A    
C46   C47   S    
C36   H6    S    
Cu1   O1    S    
C15   C17   A    
C5    C41   A    
C3    C41   A    
C37   I2    S    
C18   C22   A    
C15   N1    A    
C45   H20   S    
O10   C46   S    
C1    O1    A    
C5    C8    A    
C6    C7    A    
C13   N1    A    
C25   C27   A    
C14   N2    A    
C26   C28   A    
C23   O5    A    
C36   C38   A    
C7    H7    S    
C29   C31   T    
C30   C32   T    
C11   C13   A    
C4    C42   A    
C17   C19   A    
C18   C20   A    
O9    C43   S    
C24   C30   S    
C24   O8    A    
C7    C9    A    
C8    C10   A    
C6    C42   A    
C48   H28   S    
Cu2   O7    S    
C43   H16   S    
C11   H13   S    
C2    O2    A    
C39   H4    S    
C17   C21   A    
