data_mof_unit_27391.cif
_audit_creation_date              2012-12-10T18:12:45-0500
_audit_creation_method            fapswitch 2.2
_symmetry_space_group_name_H-M    P1
_symmetry_Int_Tables_number       1
_space_group_crystal_system       triclinic
_cell_length_a                    12.662136
_cell_length_b                    13.286247
_cell_length_c                    15.688296
_cell_angle_alpha                 91.431705
_cell_angle_beta                  102.540914
_cell_angle_gamma                 83.203644
_cell_volume                      2558.20329505

loop_
_atom_site_label
_atom_site_type_symbol
_atom_type_description
_atom_site_fract_x
_atom_site_fract_y
_atom_site_fract_z
_atom_type_partial_charge
C1    C     C_R   0.440023 0.690609 0.494285 0.857685
C2    C     C_R   0.592049 0.201753 0.530378 -0.223621
C3    C     C_R   0.305235 0.831881 0.431171 -0.235117
C4    C     C_R   0.501404 0.499453 0.661815 0.867106
C5    C     C_R   0.286525 0.929503 0.397913 -0.256694
C6    C     C_R   0.366432 0.995311 0.420586 0.284310
C7    C     C_R   0.459752 0.967536 0.488924 0.076262
C8    C     C_R   0.477944 0.868673 0.522919 0.046858
C9    C     C_R   0.538451 0.033530 0.522147 -0.101606
C10   C     C_R   0.644075 0.995588 0.567352 0.065585
C11   C     C_R   0.658590 0.899136 0.604165 -0.207163
C12   C     C_3   0.505805 0.491079 0.917427 -0.048090
C13   C     C_R   0.572152 0.840738 0.588623 -0.195947
C14   C     C_R   0.510155 0.137255 0.522161 0.459872
C15   C     C_R   0.701592 0.162057 0.558404 -0.367067
C16   C     C_R   0.559641 0.309447 0.513137 0.905216
C17   C     C_R   0.404266 0.798940 0.487906 -0.114325
C18   C     C_R   0.085305 0.350118 0.375263 -0.392094
C19   C     C_R   0.799165 0.634489 0.597844 0.043000
C20   C     C_R   0.896397 0.675436 0.605150 -0.288316
C21   C     C_R   0.973247 0.630082 0.560713 -0.146647
C22   C     C_R   0.957113 0.538310 0.514447 0.046699
C23   C     C_3   0.463540 0.408639 0.018887 0.121256
C24   C     C_R   0.852624 0.505991 0.502091 0.163344
C25   C     C_R   0.038212 0.480360 0.477141 -0.067598
C26   C     C_R   0.007050 0.402919 0.415799 -0.025342
C27   C     C_R   0.899354 0.377333 0.397725 0.220213
C28   C     C_R   0.498982 0.499532 0.338317 0.893757
C29   C     C_R   0.825714 0.426660 0.444307 -0.229076
C30   C     C_R   0.150621 0.492588 0.501654 0.198260
C31   C     C_R   0.190638 0.377255 0.390909 0.632119
C32   C     C_3   0.437159 0.572928 0.016100 0.124292
C33   C     C_3   0.541090 0.576986 0.981749 0.373351
C34   C     C_3   0.499607 0.493151 0.083553 -0.101610
C35   C     C_1   0.505257 0.495931 0.751264 -0.180320
C36   C     C_1   0.497277 0.497287 0.249229 -0.210572
C37   C     C_3   0.399527 0.488419 0.951079 -0.310184
C38   C     C_3   0.601781 0.731821 0.023900 0.106126
C39   C     C_3   0.664233 0.813068 0.998374 -0.856585
C40   C     C_3   0.384368 0.176695 0.605651 0.113146
C41   C     C_3   0.263060 0.201810 0.601601 -0.804079
C42   C     C_3   0.426427 0.079516 0.307651 -0.775563
C43   C     C_3   0.247014 0.363251 0.260887 0.140226
C44   C     C_3   0.180293 0.294985 0.196044 -0.969137
C45   C     C_3   0.567948 0.409707 0.984382 0.374148
C46   C     C_3   0.764303 0.261673 0.324773 -0.803054
C47   C     C_3   0.199326 0.494751 0.660296 -0.757601
C48   C     C_3   0.305167 0.718397 0.962533 -0.792327
C49   C     C_3   0.788278 0.500382 0.057606 0.107292
C50   C     C_3   0.897348 0.503378 0.121046 -0.859054
C51   C     C_3   0.676289 0.261002 0.032814 0.101088
C52   C     C_3   0.768669 0.186572 0.013025 -0.857459
C53   C     C_3   0.378294 0.255796 0.970905 -0.795010
C54   C     C_3   0.893100 0.962266 0.559607 -0.808859
C55   C     C_3   0.604116 0.495669 0.047823 0.264012
C56   C     C_1   0.506992 0.492821 0.826800 0.073126
C57   C     C_1   0.497387 0.495162 0.173976 0.012926
C58   C     C_R   0.728031 0.059353 0.581726 0.235199
H1    H     H_    0.246966 0.779343 0.405331 0.172057
H2    H     H_    0.765458 0.211284 0.566682 0.189173
H3    H     H_    0.733748 0.871276 0.648746 0.164095
H4    H     H_    0.651873 0.694238 0.084335 0.176288
H5    H     H_    0.524559 0.769642 0.038185 0.178511
H6    H     H_    0.615630 0.853784 0.939102 0.262870
H7    H     H_    0.680857 0.868391 0.052497 0.210535
H8    H     H_    0.742915 0.777874 0.984777 0.254824
H9    H     H_    0.428265 0.236133 0.644732 0.140284
H10   H     H_    0.411202 0.101993 0.639029 0.124649
H11   H     H_    0.217965 0.141620 0.565306 0.251956
H12   H     H_    0.213842 0.950795 0.348184 0.143725
H13   H     H_    0.247756 0.207107 0.668720 0.196499
H14   H     H_    0.232770 0.275264 0.567784 0.262788
H15   H     H_    0.276719 0.112019 0.341608 0.246822
H16   H     H_    0.417627 0.154146 0.274969 0.252657
H17   H     H_    0.403713 0.020983 0.257302 0.223012
H18   H     H_    0.513083 0.061330 0.341292 0.238839
H19   H     H_    0.327388 0.360838 0.243016 0.170740
H20   H     H_    0.208975 0.443629 0.252454 0.117959
H21   H     H_    0.092717 0.309443 0.197413 0.242302
H22   H     H_    0.188198 0.311633 0.128844 0.229306
H23   H     H_    0.580842 0.772076 0.626186 0.155454
H24   H     H_    0.209979 0.214007 0.210538 0.271574
H25   H     H_    0.885855 0.314756 0.273033 0.226909
H26   H     H_    0.760065 0.197706 0.277691 0.234826
H27   H     H_    0.695181 0.320521 0.299902 0.244751
H28   H     H_    0.757791 0.232079 0.388804 0.250550
H29   H     H_    0.250358 0.592226 0.576291 0.268364
H30   H     H_    0.228791 0.545094 0.715779 0.227609
H31   H     H_    0.257033 0.424460 0.664777 0.255510
H32   H     H_    0.118634 0.474341 0.666031 0.240539
H33   H     H_    0.317828 0.640927 0.078185 0.231521
H34   H     H_    0.066280 0.286919 0.332375 0.182470
H35   H     H_    0.262702 0.788301 0.985599 0.233755
H36   H     H_    0.243434 0.674236 0.921941 0.234016
H37   H     H_    0.360419 0.740815 0.922042 0.271245
H38   H     H_    0.773356 0.568290 0.014851 0.176773
H39   H     H_    0.794078 0.431206 0.016860 0.179028
H40   H     H_    0.915543 0.435645 0.164056 0.251251
H41   H     H_    0.963034 0.503938 0.084334 0.208883
H42   H     H_    0.895193 0.572715 0.161968 0.262722
H43   H     H_    0.612087 0.216887 0.045431 0.178457
H44   H     H_    0.709075 0.303110 0.093164 0.174622
H45   H     H_    0.738710 0.669339 0.631555 0.124899
H46   H     H_    0.835162 0.228260 0.001173 0.255198
H47   H     H_    0.801444 0.134535 0.069313 0.208787
H48   H     H_    0.738516 0.141179 0.954241 0.264762
H49   H     H_    0.368101 0.336012 0.084554 0.226156
H50   H     H_    0.358971 0.184656 0.996599 0.234844
H51   H     H_    0.439292 0.235874 0.930125 0.269487
H52   H     H_    0.302636 0.295010 0.929873 0.234242
H53   H     H_    0.883702 0.075280 0.651682 0.228929
H54   H     H_    0.901520 0.010993 0.505435 0.248325
H55   H     H_    0.847615 0.898138 0.532101 0.256685
H56   H     H_    0.042537 0.670216 0.561358 0.168008
H57   H     H_    0.975571 0.930620 0.595134 0.236276
H58   H     H_    0.911075 0.743377 0.643277 0.157157
H59   H     H_    0.745807 0.405131 0.432470 0.225904
H60   H     H_    0.316952 0.485362 0.909531 0.168170
N1    N     N_R   0.222180 0.444680 0.455580 -0.174206
N2    N     N_R   0.776980 0.554790 0.543960 -0.123402
N3    N     N_2   0.356068 0.084535 0.369387 -0.233302
N4    N     N_2   0.866972 0.302723 0.332389 -0.299696
N5    N     N_2   0.190873 0.546896 0.578594 -0.308338
N6    N     N_2   0.366032 0.659090 0.036979 -0.307666
N7    N     N_2   0.420755 0.319785 0.043073 -0.310179
N8    N     N_2   0.837827 0.021272 0.619129 -0.312924
O1    O     O_R   0.366730 0.627160 0.478790 -0.647908
O2    O     O_3   0.402396 0.174354 0.519862 -0.557979
O3    O     O_3   0.266096 0.327281 0.348000 -0.570414
O4    O     O_3   0.706123 0.499364 0.105499 -0.613155
O5    O     O_3   0.634572 0.325786 0.960260 -0.617419
O6    O     O_R   0.544830 0.662520 0.507160 -0.610373
O7    O     O_R   0.410960 0.482330 0.609040 -0.628525
O8    O     O_R   0.589060 0.517690 0.637410 -0.616107
O9    O     O_R   0.455170 0.337480 0.492840 -0.512944
O10   O     O_R   0.633270 0.372840 0.521210 -0.655712
O11   O     O_R   0.410940 0.482310 0.362590 -0.614186
O12   O     O_R   0.589040 0.517670 0.390960 -0.614823
O13   O     O_3   0.580287 0.662961 0.954007 -0.619155
Zn1   Zn    Zn3+2 0.381080 0.476390 0.481050 0.967428
Zn2   Zn    Zn3+2 0.618920 0.523610 0.518950 0.936076

loop_
_geom_bond_atom_site_label_1
_geom_bond_atom_site_label_2
_ccdc_geom_bond_type
C53   H52   S    
C33   C55   S    
C8    C13   A    
C23   C45   S    
C48   H37   S    
C27   C29   A    
C47   H31   S    
C15   H2    S    
C32   N6    S    
C19   C20   A    
C18   C26   A    
C43   C44   S    
C1    O6    A    
C39   H8    S    
C7    C8    A    
C51   H44   S    
C39   H6    S    
C54   N8    S    
C42   H17   S    
C5    H12   S    
C48   H36   S    
N1    Zn1   S    
C4    O8    A    
C10   C58   A    
C44   H24   S    
C38   C39   S    
C30   N1    A    
C40   O2    S    
C54   H55   S    
C13   H23   S    
O6    Zn2   S    
C14   O2    S    
C12   C37   S    
C24   C29   A    
C19   H45   S    
C37   H60   S    
C40   H9    S    
C34   C57   S    
C38   O13   S    
C2    C16   S    
C9    C10   A    
C23   N7    S    
C46   H27   S    
C55   O4    S    
C4    C35   S    
C52   H48   S    
C34   C55   S    
C49   H38   S    
C21   C22   A    
C39   H7    S    
C27   N4    S    
O9    Zn1   S    
O11   Zn1   S    
C50   H40   S    
C42   H16   S    
C48   H35   S    
N2    Zn2   S    
C24   N2    A    
C51   C52   S    
C44   H22   S    
C28   O12   A    
H49   N7    S    
C36   C57   T    
C20   H58   S    
C51   O5    S    
C21   H56   S    
C3    C5    A    
C25   C26   A    
C23   C37   S    
C29   H59   S    
C22   C25   A    
C43   H20   S    
C32   C34   S    
C9    C14   A    
C48   N6    S    
O10   Zn2   S    
C45   C55   S    
C47   N5    S    
C43   O3    S    
C23   C34   S    
C54   H57   S    
H53   N8    S    
C50   H41   S    
C54   H54   S    
C32   C37   S    
C30   N5    S    
C2    C15   A    
C31   N1    A    
C12   C56   S    
C53   N7    S    
C41   H14   S    
C46   H26   S    
C40   C41   S    
C19   N2    A    
C58   N8    S    
H15   N3    S    
H33   N6    S    
C26   C27   A    
C47   H32   S    
C22   C24   A    
C43   H19   S    
O1    Zn1   S    
C16   O10   A    
C41   H11   S    
C38   H5    S    
C53   H51   S    
C25   C30   A    
C7    C9    A    
C52   H46   S    
C35   C56   T    
C42   H18   S    
C44   H21   S    
C28   O11   A    
C1    O1    A    
C12   C45   S    
C11   H3    S    
O12   Zn2   S    
C52   H47   S    
C45   O5    S    
C6    C7    A    
C51   H43   S    
C49   O4    S    
C1    C17   S    
C8    C17   A    
C41   H13   S    
C18   H34   S    
C47   H30   S    
C31   O3    S    
C32   C33   S    
O8    Zn2   S    
H29   N5    S    
C11   C13   A    
C53   H50   S    
C5    C6    A    
C33   O13   S    
C15   C58   A    
C3    C17   A    
H25   N4    S    
C2    C14   A    
C50   H42   S    
C10   C11   A    
C49   H39   S    
C20   C21   A    
C28   C36   S    
O7    Zn1   S    
C49   C50   S    
C40   H10   S    
C46   N4    S    
C18   C31   A    
C6    N3    S    
C46   H28   S    
C12   C33   S    
C16   O9    A    
C42   N3    S    
C4    O7    A    
C38   H4    S    
C3    H1    S    
