data_mof_unit_16297.cif
_audit_creation_date              2012-12-10T17:32:12-0500
_audit_creation_method            fapswitch 2.2
_symmetry_space_group_name_H-M    P1
_symmetry_Int_Tables_number       1
_space_group_crystal_system       triclinic
_cell_length_a                    12.328974
_cell_length_b                    13.231504
_cell_length_c                    15.003647
_cell_angle_alpha                 77.098777
_cell_angle_beta                  100.898851
_cell_angle_gamma                 116.555007
_cell_volume                      2122.87496817

loop_
_atom_site_label
_atom_site_type_symbol
_atom_type_description
_atom_site_fract_x
_atom_site_fract_y
_atom_site_fract_z
_atom_type_partial_charge
C1    C     C_R   0.854907 0.286858 0.507075 0.769632
C2    C     C_R   0.100528 0.589908 0.089683 0.072527
C3    C     C_R   0.808721 0.333786 0.050932 -0.209155
C4    C     C_R   0.805754 0.333723 0.957516 -0.214336
C5    C     C_R   0.901386 0.416879 0.907841 0.118400
C6    C     C_R   0.001118 0.501078 0.952423 0.065198
C7    C     C_R   0.098404 0.584314 0.902987 0.115225
C8    C     C_R   0.195033 0.669551 0.946308 -0.221301
C9    C     C_R   0.195584 0.673326 0.038215 -0.207105
C10   C     C_R   0.899456 0.417640 0.814292 -0.256393
C11   C     C_R   0.997746 0.499052 0.766695 -0.045468
C12   C     C_R   0.998206 0.498143 0.670792 0.800547
C13   C     C_R   0.097035 0.581440 0.810610 -0.241997
C14   C     C_R   0.269500 0.030761 0.410743 -0.206659
C15   C     C_R   0.227121 0.835066 0.478224 -0.033197
C16   C     C_R   0.817336 0.083929 0.556079 -0.193331
C17   C     C_R   0.739269 0.968855 0.573304 -0.147897
C18   C     C_R   0.614669 0.932454 0.548922 -0.185454
C19   C     C_R   0.565330 0.010827 0.502422 0.072154
C20   C     C_R   0.647178 0.126286 0.475694 0.082303
C21   C     C_R   0.437740 0.978566 0.480829 0.069678
C22   C     C_R   0.394859 0.060529 0.430741 0.162277
C23   C     C_R   0.144847 0.713264 0.488948 0.804534
C24   C     C_R   0.477333 0.169249 0.396274 -0.255648
C25   C     C_R   0.601355 0.199937 0.415056 -0.210378
C26   C     C_R   0.351090 0.866769 0.505899 -0.243223
C27   C     C_R   0.185814 0.918166 0.433892 -0.192756
C28   C     C_R   0.772559 0.164287 0.509860 -0.103659
C29   C     C_R   0.344595 0.326471 0.646347 -0.298635
C30   C     C_R   0.760986 0.646842 0.376119 0.081686
C31   C     C_R   0.665885 0.680168 0.350434 -0.260999
C32   C     C_R   0.562579 0.625005 0.397801 -0.200949
C33   C     C_R   0.552508 0.535224 0.471392 -0.002960
C34   C     C_R   0.002026 0.502431 0.328974 0.817109
C35   C     C_R   0.652990 0.504906 0.495938 0.286628
C36   C     C_R   0.447381 0.475233 0.521793 -0.039092
C37   C     C_R   0.445663 0.386814 0.595803 0.175722
C38   C     C_R   0.544964 0.359346 0.619310 -0.276180
C39   C     C_R   0.646457 0.417410 0.570796 -0.175330
C40   C     C_R   0.342946 0.498532 0.502243 0.016483
C41   C     C_R   0.245274 0.353717 0.623759 0.074376
C42   C     C_R   0.099091 0.592869 0.182894 -0.064431
C43   C     C_R   0.004433 0.504996 0.232076 -0.096745
C44   C     C_R   0.908834 0.419067 0.188461 -0.265790
C45   C     C_R   0.906516 0.417945 0.095480 0.114910
C46   C     C_R   0.003176 0.502560 0.046141 0.038765
Cu1   Cu    Cu3+1 0.098270 0.475420 0.521130 0.938952
Cu2   Cu    Cu3+1 0.901730 0.524580 0.478870 0.922837
H1    H     H_    0.445879 0.230095 0.352603 0.149670
H2    H     H_    0.236520 0.093310 0.373100 0.134845
H3    H     H_    0.377568 0.801202 0.544707 0.147928
H4    H     H_    0.912784 0.110271 0.581305 0.154932
H5    H     H_    0.560427 0.842162 0.566936 0.130251
H6    H     H_    0.775092 0.907683 0.608858 0.145495
H7    H     H_    0.659941 0.281386 0.379237 0.180105
H8    H     H_    0.166859 0.307371 0.662421 0.123431
H9    H     H_    0.544551 0.292282 0.676248 0.147570
H10   H     H_    0.342494 0.258695 0.703014 0.136059
H11   H     H_    0.835722 0.353396 0.227231 0.132485
H12   H     H_    0.335915 0.563750 0.447039 0.128785
H13   H     H_    0.841296 0.690211 0.339407 0.123136
H14   H     H_    0.492363 0.654520 0.376165 0.130290
H15   H     H_    0.672364 0.749114 0.293949 0.138993
H16   H     H_    0.718231 0.391064 0.594927 0.203093
H17   H     H_    0.734036 0.268547 0.088222 0.141529
H18   H     H_    0.728935 0.268517 0.924190 0.141284
H19   H     H_    0.823256 0.354067 0.778852 0.122633
H20   H     H_    0.171964 0.644321 0.772181 0.132973
H21   H     H_    0.269798 0.734241 0.908781 0.144166
H22   H     H_    0.271665 0.741928 0.068282 0.165350
H23   H     H_    0.089813 0.895215 0.412913 0.149904
N1    N     N_R   0.246280 0.438190 0.553160 -0.182032
N2    N     N_R   0.754320 0.561190 0.447410 -0.209007
O1    O     O_R   0.972510 0.318130 0.526570 -0.582306
O2    O     O_R   0.806530 0.359650 0.490890 -0.607860
O3    O     O_R   0.082980 0.479210 0.647590 -0.579725
O4    O     O_R   0.917000 0.520730 0.611900 -0.594000
O5    O     O_R   0.193470 0.640350 0.509110 -0.587194
O6    O     O_R   0.027490 0.681870 0.473430 -0.590872
O7    O     O_R   0.083000 0.479270 0.388100 -0.575693
O8    O     O_R   0.917020 0.520790 0.352410 -0.592333
C47   C     C_R   0.187441 0.694739 0.224178 0.102797
C48   C     C_R   0.157681 0.787217 0.216754 -0.161764
C49   C     C_R   0.247639 0.892860 0.236856 -0.130528
C50   C     C_R   0.367188 0.906266 0.265729 -0.084675
C51   C     C_R   0.396569 0.813631 0.275975 -0.160900
C52   C     C_R   0.306995 0.707862 0.255080 -0.164019
H24   H     H_    0.066305 0.778936 0.191163 0.125194
H25   H     H_    0.225148 0.964940 0.228318 0.130488
H26   H     H_    0.437455 0.988724 0.279315 0.133188
H27   H     H_    0.489772 0.825471 0.297067 0.128492
H28   H     H_    0.331530 0.638087 0.258083 0.126964

loop_
_geom_bond_atom_site_label_1
_geom_bond_atom_site_label_2
_ccdc_geom_bond_type
C16   C28   A    
C21   C26   A    
C40   H12   S    
C19   C20   A    
C42   C47   S    
C7    C8    A    
C14   H2    S    
C10   H19   S    
C2    C46   A    
C39   H16   S    
C8    H21   S    
C1    O1    A    
Cu2   O6    S    
C36   C37   A    
C19   C21   A    
Cu1   O3    S    
C51   H27   S    
C5    C6    A    
C20   C25   A    
C44   H11   S    
C47   C52   A    
C33   C36   A    
Cu2   O8    S    
C18   C19   A    
C18   H5    S    
C34   O7    A    
C49   C50   A    
Cu1   Cu2   S    
C8    C9    A    
C1    C28   S    
C34   O8    A    
C14   C27   A    
C40   N1    A    
C15   C23   S    
C48   H24   S    
C52   H28   S    
Cu2   O2    S    
C3    H17   S    
Cu1   O7    S    
C38   C39   A    
C1    O2    A    
C31   H15   S    
C36   C40   A    
C24   C25   A    
C16   H4    S    
C30   N2    A    
C51   C52   A    
C16   C17   A    
C15   C26   A    
C20   C28   A    
C50   C51   A    
C3    C45   A    
Cu2   O4    S    
C35   C39   A    
C43   C44   A    
C41   H8    S    
C37   C38   A    
C38   H9    S    
C15   C27   A    
C48   C49   A    
C11   C12   S    
C12   O4    A    
C17   C18   A    
C9    H22   S    
C41   N1    A    
C12   O3    A    
C22   C24   A    
C42   C43   A    
C3    C4    A    
C27   H23   S    
C44   C45   A    
C24   H1    S    
C35   N2    A    
C6    C46   A    
C29   C41   A    
Cu2   N2    S    
C31   C32   A    
C34   C43   S    
C25   H7    S    
Cu1   O1    S    
C4    C5    A    
C50   H26   S    
C6    C7    A    
C32   C33   A    
C14   C22   A    
C32   H14   S    
C5    C10   A    
C26   H3    S    
C4    H18   S    
C11   C13   A    
C30   C31   A    
C2    C42   A    
C33   C35   A    
C23   O5    A    
Cu1   N1    S    
C10   C11   A    
C45   C46   A    
C7    C13   A    
C29   H10   S    
C47   C48   A    
C49   H25   S    
C30   H13   S    
C29   C37   A    
Cu1   O5    S    
C23   O6    A    
C21   C22   A    
C2    C9    A    
C17   H6    S    
C13   H20   S    
