data_mof_unit_54152.cif
_audit_creation_date              2012-12-11T16:35:19-0500
_audit_creation_method            fapswitch 2.2
_symmetry_space_group_name_H-M    P1
_symmetry_Int_Tables_number       1
_space_group_crystal_system       triclinic
_cell_length_a                    6.930022
_cell_length_b                    17.644874
_cell_length_c                    19.534877
_cell_angle_alpha                 109.115817
_cell_angle_beta                  90.43054
_cell_angle_gamma                 90.557212
_cell_volume                      2256.74384142

loop_
_atom_site_label
_atom_site_type_symbol
_atom_type_description
_atom_site_fract_x
_atom_site_fract_y
_atom_site_fract_z
_atom_type_partial_charge
O1    O     O_R   0.505700 0.440210 0.561730 -0.548508
O2    O     O_R   0.169350 0.406300 0.412660 -0.511874
O3    O     O_R   0.005650 0.559790 0.438270 -0.546738
C1    C     C_R   0.338086 0.382479 0.385326 0.821484
O4    O     O_R   0.175560 0.430650 0.559600 -0.525626
O5    O     O_R   0.011900 0.584320 0.586250 -0.541470
C2    C     C_R   0.344739 0.415793 0.581301 0.770597
O6    O     O_R   0.499450 0.415680 0.413750 -0.543427
O7    O     O_3   0.341370 0.550390 0.508570 -0.379527
V1    V     V_3+5 0.063940 0.490650 0.498410 1.488745
O8    O     O_R   0.682570 0.593700 0.587340 -0.542621
C3    C     C_R   0.852661 0.616565 0.615000 0.685253
O9    O     O_R   0.676370 0.569350 0.440400 -0.547916
C4    C     C_R   0.845186 0.584566 0.418975 0.682447
V2    V     V_3+5 0.564750 0.509350 0.501590 1.443100
O10   O     O_3   0.837190 0.449610 0.491430 -0.359469
C5    C     C_R   0.042499 0.718005 0.316712 -0.050184
H1    H     H_    0.177259 0.748658 0.314643 0.153513
C6    C     C_R   0.030311 0.672337 0.363217 -0.170026
H2    H     H_    0.157029 0.667962 0.394444 0.131323
C7    C     C_R   0.856367 0.633911 0.370218 -0.041987
C8    C     C_R   0.694879 0.642189 0.329347 -0.151063
C9    C     C_R   0.708039 0.686708 0.281796 -0.145651
H3    H     H_    0.581962 0.690132 0.249925 0.163974
C10   C     C_R   0.882310 0.725107 0.274570 0.119801
C11   C     C_R   0.739870 0.820995 0.217209 -0.189630
H4    H     H_    0.610383 0.824113 0.248644 0.160949
C12   C     C_R   0.749888 0.866466 0.170497 -0.145637
H5    H     H_    0.627295 0.902662 0.166904 0.133765
C13   C     C_R   0.916903 0.866403 0.130026 -0.135484
C14   C     C_R   0.072972 0.819042 0.136946 -0.247057
H6    H     H_    0.202736 0.816917 0.105836 0.149763
C15   C     C_R   0.062287 0.772376 0.182766 0.617929
C16   C     C_R   0.895585 0.773282 0.224236 -0.035453
H7    H     H_    0.129427 0.634767 0.922360 0.126931
C17   C     C_R   0.781557 0.905946 0.752845 -0.209689
C18   C     C_R   0.712615 0.918710 0.690405 -0.175927
C19   C     C_R   0.694938 0.854953 0.626016 0.676007
C20   C     C_R   0.745852 0.777934 0.623678 -0.231541
C21   C     C_R   0.813934 0.762871 0.686478 -0.014478
C22   C     C_R   0.832479 0.828227 0.752416 0.058713
C23   C     C_R   0.867286 0.684639 0.684023 -0.143757
C24   C     C_R   0.939394 0.671764 0.747482 0.074822
C25   C     C_R   0.958097 0.737138 0.813407 0.061621
C26   C     C_R   0.904672 0.815361 0.815867 -0.160991
C27   C     C_R   0.990077 0.594018 0.747073 -0.151487
C28   C     C_R   0.059170 0.581277 0.809505 -0.125672
C29   C     C_R   0.077148 0.645067 0.873829 -0.106681
C30   C     C_R   0.026370 0.722083 0.876186 -0.140829
H8    H     H_    0.795842 0.957918 0.801076 0.182057
H9    H     H_    0.674144 0.978587 0.691974 0.162459
H10   H     H_    0.732493 0.730678 0.571977 0.136528
H11   H     H_    0.975369 0.542022 0.698881 0.097736
H12   H     H_    0.097512 0.521428 0.808049 0.118267
H13   H     H_    0.040036 0.769284 0.927910 0.102107
H14   H     H_    0.539703 0.485076 0.192905 0.128332
C31   C     C_R   0.257731 0.213946 0.375452 0.591378
C32   C     C_R   0.227168 0.134445 0.371643 -0.146418
C33   C     C_R   0.259216 0.072275 0.307753 -0.222202
C34   C     C_R   0.322968 0.088786 0.246797 -0.149007
C35   C     C_R   0.354051 0.168685 0.248080 0.013917
C36   C     C_R   0.320028 0.233191 0.313734 -0.048891
C37   C     C_R   0.421184 0.184148 0.185312 -0.146933
C38   C     C_R   0.454569 0.264371 0.188024 0.076997
C39   C     C_R   0.419494 0.329080 0.253026 0.056446
C40   C     C_R   0.352218 0.313940 0.316060 -0.186844
C41   C     C_R   0.519492 0.281844 0.126251 -0.147449
C42   C     C_R   0.550674 0.360718 0.128441 -0.111000
C43   C     C_R   0.516382 0.423856 0.191617 -0.104541
C44   C     C_R   0.450746 0.408619 0.253128 -0.146918
H15   H     H_    0.179146 0.120910 0.419024 0.158515
H16   H     H_    0.236092 0.010733 0.305545 0.152510
H17   H     H_    0.349472 0.037908 0.198902 0.117448
H18   H     H_    0.546813 0.234930 0.075580 0.101099
H19   H     H_    0.600824 0.372900 0.080689 0.120399
H20   H     H_    0.423222 0.460056 0.300412 0.089218
C45   C     C_R   0.544033 0.287499 0.687808 -0.132455
C46   C     C_R   0.532007 0.333087 0.641272 -0.151865
H21   H     H_    0.660836 0.341266 0.613290 0.131390
C47   C     C_R   0.355963 0.366725 0.630269 -0.032998
C48   C     C_R   0.192450 0.354075 0.667474 -0.152996
C49   C     C_R   0.204949 0.309256 0.714728 -0.142807
H22   H     H_    0.076790 0.302512 0.743649 0.098639
C50   C     C_R   0.380830 0.274959 0.725411 0.124494
C51   C     C_R   0.236585 0.177660 0.781531 -0.210610
H23   H     H_    0.105987 0.174131 0.749820 0.139989
C52   C     C_R   0.246536 0.131833 0.827890 0.614309
C53   C     C_R   0.415585 0.132437 0.868883 -0.181677
C54   C     C_R   0.573556 0.179783 0.861654 -0.227647
H24   H     H_    0.705445 0.181909 0.892370 0.177640
C55   C     C_R   0.562358 0.226189 0.815678 -0.140719
H25   H     H_    0.685547 0.263261 0.813006 0.119730
C56   C     C_R   0.393496 0.225876 0.774932 0.004591
O11   O     O_R   0.273230 0.084330 0.086440 -0.538631
O12   O     O_R   0.596660 0.069390 0.940470 -0.546009
O13   O     O_R   0.760270 0.915710 0.913690 -0.539962
C57   C     C_R   0.427320 0.083955 0.918511 0.741497
O14   O     O_R   0.603330 0.093680 0.087390 -0.542558
O15   O     O_R   0.766990 0.940160 0.061660 -0.542790
C58   C     C_R   0.434830 0.116756 0.115262 0.677484
O16   O     O_R   0.266510 0.059870 0.938470 -0.497794
O17   O     O_3   0.431050 0.949630 0.991510 -0.377006
V3    V     V_3+5 0.708490 0.009340 0.001580 1.452690
O18   O     O_R   0.096270 0.930570 0.059390 -0.551851
C59   C     C_R   0.927577 0.915545 0.081053 0.705508
O19   O     O_R   0.089600 0.906290 0.912460 -0.533515
C60   C     C_R   0.919436 0.883439 0.884879 0.718748
V4    V     V_3+5 0.207670 0.990600 0.998190 1.474255
O20   O     O_3   0.935250 0.050360 0.008480 -0.356977
F1    F     F_    0.629570 0.867856 0.565207 -0.674413
F2    F     F_    0.226462 0.270707 0.440397 -0.711567
H26   H     H_    0.681138 0.261095 0.693357 0.110916
H27   H     H_    0.055103 0.379832 0.660956 0.110734
H28   H     H_    0.558986 0.613033 0.333094 0.117357
F3    F     F_    0.091253 0.085638 0.831096 -0.704238
F4    F     F_    0.212990 0.724417 0.184377 -0.724433

loop_
_geom_bond_atom_site_label_1
_geom_bond_atom_site_label_2
_ccdc_geom_bond_type
C25   C30   A    
O15   V3    S    
C52   C53   A    
C6    H2    S    
O18   V4    S    
C1    O6    A    
C48   C49   A    
C31   C36   A    
C45   C46   A    
C42   H19   S    
H14   C43   S    
O11   V4    S    
C11   H4    S    
C37   C58   S    
C4    C7    S    
C12   H5    S    
C6    C7    A    
C43   C44   A    
O5    C3    A    
C19   C20   A    
C18   H9    S    
C46   C47   A    
C32   H15   S    
O19   C60   A    
C39   C44   A    
C34   H17   S    
V4    O20   S    
C35   C37   A    
C3    C23   S    
O8    V2    S    
C11   C16   A    
C28   C29   A    
C42   C43   A    
O14   V3    S    
C9    H3    S    
C14   C15   A    
O17   V4    S    
O1    V2    S    
C54   C55   A    
O7    V1    S    
C52   F3    S    
C53   C57   S    
C33   H16   S    
O16   V4    S    
C21   C23   A    
C20   H10   S    
C33   C34   A    
O9    C4    A    
C17   C22   A    
O17   V3    S    
C51   C56   A    
H7    C29   S    
O18   C59   A    
O12   V3    S    
C15   C16   A    
C51   C52   A    
O15   C59   A    
C36   C40   A    
C41   C42   A    
C38   C41   A    
C20   C21   A    
O4    C2    A    
C46   H21   S    
C45   C50   A    
C32   C33   A    
C30   H13   S    
C34   C35   A    
C45   H26   S    
O2    C1    A    
C24   C25   A    
C18   C19   A    
C55   C56   A    
C14   H6    S    
O11   C58   A    
C13   C14   A    
C5    H1    S    
C41   H18   S    
C51   H23   S    
O3    C4    A    
C28   H12   S    
C21   C22   A    
O13   C60   A    
C39   C40   A    
O6    V2    S    
C49   C50   A    
O9    V2    S    
C13   C59   S    
C44   H20   S    
C19   F1    S    
C23   C24   A    
O2    V1    S    
C55   H25   S    
C17   H8    S    
C25   C26   A    
C27   C28   A    
C17   C18   A    
C15   F4    S    
O1    C2    A    
C11   C12   A    
C47   C48   A    
O5    V1    S    
O8    C3    A    
O12   C57   A    
C10   C16   S    
O14   C58   A    
V3    O20   S    
C5    C10   A    
C38   C39   A    
C12   C13   A    
O7    V2    S    
O4    V1    S    
O3    V1    S    
V1    O10   S    
C1    C40   S    
C31   C32   A    
C31   F2    S    
O19   V4    S    
C29   C30   A    
C27   H11   S    
C5    C6    A    
C50   C56   S    
C9    C10   A    
C35   C36   A    
C24   C27   A    
C37   C38   A    
C26   C60   S    
C8    H28   S    
C53   C54   A    
C49   H22   S    
O13   V3    S    
C48   H27   S    
C22   C26   A    
C8    C9    A    
C54   H24   S    
C7    C8    A    
C57   O16   A    
V2    O10   S    
C2    C47   S    
