data_mof_unit_50952.cif
_audit_creation_date              2012-12-11T14:36:10-0500
_audit_creation_method            fapswitch 2.2
_symmetry_space_group_name_H-M    P1
_symmetry_Int_Tables_number       1
_space_group_crystal_system       triclinic
_cell_length_a                    13.523211
_cell_length_b                    13.552807
_cell_length_c                    27.523619
_cell_angle_alpha                 90.659494
_cell_angle_beta                  90.146474
_cell_angle_gamma                 59.976326
_cell_volume                      4367.26809559

loop_
_atom_site_label
_atom_site_type_symbol
_atom_type_description
_atom_site_fract_x
_atom_site_fract_y
_atom_site_fract_z
_atom_type_partial_charge
C1    C     C_R   0.620304 0.100835 0.570273 0.541355
C2    C     C_1   0.634105 0.725452 0.614680 0.022397
C3    C     C_3   0.654344 0.575728 0.768848 0.124982
C4    C     C_3   0.688424 0.642103 0.804535 0.001323
C5    C     C_3   0.573154 0.686954 0.743071 0.193586
C6    C     C_3   0.669858 0.667346 0.707772 0.034377
C7    C     C_3   0.605251 0.755664 0.778910 -0.165103
C8    C     C_3   0.704084 0.733392 0.743714 0.191336
C9    C     C_1   0.694813 0.625004 0.857074 0.003144
C10   C     C_1   0.654100 0.692871 0.655914 0.024528
C11   C     C_3   0.063702 0.181253 0.734319 0.079050
C12   C     C_R   0.600132 0.778565 0.568303 0.542263
C13   C     C_3   0.136618 0.088833 0.771309 0.235913
C14   C     C_1   0.089918 0.205550 0.901105 0.026035
C15   C     C_1   0.227906 0.141455 0.616627 0.022070
C16   C     C_3   0.056011 0.276170 0.769134 -0.158638
C17   C     C_3   0.131992 0.181074 0.806078 -0.006712
C18   C     C_3   0.166949 0.260610 0.745232 0.237424
C19   C     C_3   0.172080 0.168410 0.710301 0.059706
C20   C     C_3   0.240421 0.168666 0.782178 0.265919
C21   C     C_3   0.244902 0.076858 0.747762 0.082083
C22   C     C_1   0.112561 0.190143 0.858506 0.016577
C23   C     C_R   0.277574 0.122278 0.569333 0.541421
C24   C     C_1   0.197926 0.155724 0.658392 0.036624
C25   C     C_3   0.675733 0.249393 0.740198 -0.169254
C26   C     C_3   0.572618 0.280601 0.775278 -0.107762
C27   C     C_1   0.686965 0.206931 0.904368 0.020192
C28   C     C_1   0.636354 0.131045 0.618597 0.026257
C29   C     C_3   0.754316 0.154401 0.775690 0.223443
C30   C     C_3   0.653609 0.184673 0.810359 0.011777
C31   C     C_3   0.732169 0.067713 0.749032 0.265584
C32   C     C_3   0.652689 0.161471 0.713667 0.010024
C33   C     C_3   0.631426 0.098120 0.783338 0.101351
C34   C     C_R   0.624748 0.101418 0.432341 0.559429
C35   C     C_3   0.551838 0.191862 0.748294 0.250847
C36   C     C_1   0.666589 0.195753 0.862687 0.005166
C37   C     C_1   0.646063 0.147597 0.661023 0.013860
C38   C     C_R   0.737352 0.691505 0.359271 0.220614
C39   C     C_R   0.751189 0.676524 0.308233 0.038160
C40   C     C_R   0.770009 0.658048 0.205887 0.000688
C41   C     C_R   0.867056 0.630376 0.234202 0.098495
C42   C     C_R   0.858736 0.636721 0.285089 0.282600
C43   C     C_R   0.780347 0.634535 0.156020 -0.114935
C44   C     C_R   0.687000 0.644910 0.129557 -0.033578
C45   C     C_R   0.600332 0.777316 0.429603 0.534210
C46   C     C_R   0.540360 0.730457 0.350925 0.068079
C47   C     C_R   0.548518 0.733490 0.300775 0.040169
C48   C     C_R   0.653924 0.704708 0.279150 -0.062429
C49   C     C_R   0.451043 0.766805 0.271971 -0.061224
C50   C     C_R   0.458286 0.764362 0.221671 0.106226
C51   C     C_R   0.565089 0.724551 0.199601 0.063179
C52   C     C_R   0.662707 0.697985 0.228238 -0.012043
C53   C     C_R   0.578332 0.699651 0.150047 -0.096751
C54   C     C_R   0.629599 0.724720 0.380507 -0.012611
C55   C     C_R   0.176507 0.087264 0.361725 0.077193
C56   C     C_R   0.281062 0.119105 0.430367 0.526744
C57   C     C_R   0.167627 0.078126 0.310723 0.004154
C58   C     C_R   0.104983 0.115893 0.212894 -0.006896
C59   C     C_R   0.077648 0.045433 0.240393 0.263691
C60   C     C_R   0.109254 0.025987 0.289613 0.217005
C61   C     C_R   0.053466 0.158833 0.167955 0.228034
C62   C     C_R   0.099256 0.207451 0.136611 0.039196
C63   C     C_R   0.306499 0.159730 0.347743 -0.142400
C64   C     C_R   0.293792 0.156580 0.297787 -0.019444
C65   C     C_R   0.217554 0.123974 0.279413 -0.052715
C66   C     C_R   0.354245 0.188030 0.265875 0.281848
C67   C     C_3   0.751275 0.555997 0.733982 0.225574
C68   C     C_R   0.323419 0.208425 0.217132 0.175825
C69   C     C_R   0.234925 0.190790 0.198915 -0.001867
C70   C     C_R   0.187315 0.141934 0.230118 -0.111602
C71   C     C_R   0.191516 0.220757 0.151247 0.167503
C72   C     C_R   0.247213 0.128189 0.379658 0.013990
C73   C     C_R   0.582027 0.249198 0.368042 0.213030
C74   C     C_R   0.599699 0.271661 0.319392 0.034729
C75   C     C_R   0.607308 0.301614 0.218036 -0.006181
C76   C     C_R   0.553808 0.397822 0.249950 0.237450
C77   C     C_R   0.543951 0.382633 0.300063 0.322754
C78   C     C_3   0.785956 0.621912 0.769558 0.277683
C79   C     C_R   0.605225 0.312353 0.166693 0.168891
C80   C     C_R   0.679735 0.217752 0.137628 0.073878
C81   C     C_R   0.750747 0.061053 0.360114 0.221016
C82   C     C_R   0.747071 0.070939 0.309520 0.082935
C83   C     C_R   0.673168 0.178350 0.289023 -0.094509
C84   C     C_R   0.814184 0.975821 0.279218 0.291573
C85   C     C_R   0.803739 0.988219 0.228802 -0.111667
C86   C     C_R   0.733648 0.094947 0.207860 -0.002285
C87   C     C_R   0.671297 0.191812 0.238251 -0.031642
C88   C     C_R   0.732551 0.107917 0.157152 0.219273
C89   C     C_1   0.700149 0.603174 0.899573 0.014635
C90   C     C_R   0.655747 0.141316 0.387851 -0.036182
C91   C     C_R   0.048046 0.236950 0.949682 0.546896
C92   C     C_R   0.711960 0.562165 0.948098 0.542746
C93   C     C_R   0.721433 0.225343 0.951309 0.540352
C94   C     C_R   0.045280 0.246254 0.089108 0.601685
C95   C     C_R   0.707695 0.576662 0.085498 0.545246
C96   C     C_R   0.718282 0.234708 0.089769 0.616055
Cr1   Cr    Cr6+3 0.417550 0.169090 0.500530 1.089410
Cr2   Cr    Cr6+3 0.669180 0.913420 0.499920 1.088069
Cr3   Cr    Cr6+3 0.413260 0.917540 0.499520 1.046994
Cr4   Cr    Cr6+3 0.909170 0.177380 0.020380 1.118850
Cr5   Cr    Cr6+3 0.912710 0.429210 0.018220 1.051814
Cr6   Cr    Cr6+3 0.657170 0.432570 0.019030 1.081716
H1    H     H_    0.978448 0.357741 0.778851 0.191943
H2    H     H_    0.503660 0.366824 0.786358 0.146033
H3    H     H_    0.696807 0.308339 0.721320 0.170200
H4    H     H_    0.863803 0.595367 0.138971 0.179700
H5    H     H_    0.506454 0.710713 0.128422 0.187544
H6    H     H_    0.368084 0.794841 0.288186 0.145080
H7    H     H_    0.362596 0.188055 0.362492 0.157596
H8    H     H_    0.546835 0.836003 0.798391 0.141553
H9    H     H_    0.856120 0.914097 0.206323 0.126716
O1    O     O_R   0.301710 0.195650 0.554160 -0.489437
O2    O     O_R   0.658900 0.818120 0.449760 -0.465890
O3    O     O_R   0.503220 0.801620 0.445520 -0.525278
O4    O     O_R   0.319370 0.022040 0.450020 -0.498868
O5    O     O_3   0.499990 0.000010 0.499990 -0.275994
O6    O     O_R   0.818720 0.150820 0.967160 -0.494804
O7    O     O_R   0.006410 0.181720 0.970200 -0.494000
O8    O     O_R   0.027890 0.334070 0.964920 -0.499582
O9    O     O_R   0.809600 0.521790 0.967960 -0.489957
O10   O     O_R   0.635520 0.542770 0.964420 -0.507877
O11   O     O_R   0.665950 0.325030 0.970100 -0.503872
O12   O     O_R   0.522390 0.158990 0.550460 -0.488180
O13   O     O_R   0.816620 0.158530 0.074540 -0.417635
O14   O     O_R   0.004460 0.188870 0.069750 -0.443715
O15   O     O_R   0.025800 0.341780 0.072300 -0.521940
O16   O     O_R   0.807650 0.528950 0.067500 -0.510562
O17   O     O_R   0.633420 0.550490 0.071810 -0.482972
O18   O     O_R   0.664000 0.332180 0.069640 -0.453621
O19   O     O_3   0.826350 0.346390 0.019210 -0.283772
O20   O     O_R   0.694390 0.003530 0.554040 -0.498934
O21   O     O_R   0.657700 0.819660 0.549320 -0.496107
O22   O     O_R   0.501930 0.803280 0.552920 -0.491757
O23   O     O_R   0.318170 0.023580 0.549580 -0.496314
O24   O     O_R   0.303010 0.193990 0.446760 -0.503995
O25   O     O_R   0.523600 0.157450 0.450900 -0.452708
O26   O     O_R   0.695690 0.001860 0.446640 -0.482970
O27   O     O_3   0.897216 0.589828 0.783842 -0.672911
H10   H     H_    0.939281 0.582225 0.753308 0.346571
O28   O     O_3   0.334201 0.159911 0.807439 -0.630763
H11   H     H_    0.305304 0.233692 0.824889 0.335060
O29   O     O_3   0.184012 0.349684 0.731057 -0.630484
H12   H     H_    0.172078 0.396053 0.760885 0.336982
O30   O     O_3   0.444349 0.212793 0.733215 -0.607548
H13   H     H_    0.457901 0.141992 0.716399 0.339641
N1    N     N_3   0.603770 0.019540 0.806991 -0.554039
H14   H     H_    0.680322 0.949613 0.818381 0.253979
H15   H     H_    0.568884 0.990353 0.780548 0.265897
O31   O     O_3   0.818516 0.958852 0.735183 -0.618948
H16   H     H_    0.856687 0.920941 0.765792 0.368117
O32   O     O_3   0.862340 0.130774 0.791312 -0.654060
H17   H     H_    0.850167 0.201297 0.807944 0.333327
O33   O     O_3   0.824664 0.452592 0.710782 -0.697310
H18   H     H_    0.878822 0.466544 0.691998 0.336973
O34   O     O_3   0.827775 0.678009 0.387467 -0.616742
H19   H     H_    0.823123 0.646719 0.419207 0.322047
N2    N     N_3   0.976420 0.588256 0.211272 -0.638196
H20   H     H_    0.009496 0.640315 0.221802 0.259933
H21   H     H_    0.031451 0.505863 0.223717 0.256182
O35   O     O_3   0.958521 0.598007 0.310901 -0.626265
H22   H     H_    0.962934 0.539160 0.333300 0.348417
N3    N     N_3   0.357883 0.797004 0.193174 -0.620476
H23   H     H_    0.298610 0.881716 0.201806 0.241891
H24   H     H_    0.322965 0.746687 0.203342 0.269037
N4    N     N_3   0.440001 0.733942 0.370574 -0.618357
H25   H     H_    0.462526 0.673614 0.397965 0.290223
H26   H     H_    0.381120 0.816410 0.382480 0.267200
O36   O     O_3   0.952313 0.163176 0.155451 -0.628834
H27   H     H_    0.905402 0.179344 0.185272 0.336741
N5    N     N_3   0.106709 0.064542 0.394151 -0.598757
H28   H     H_    0.021391 0.119815 0.384991 0.253859
H29   H     H_    0.113876 0.084847 0.430172 0.233758
O37   O     O_3   0.027837 0.990281 0.217121 -0.664432
H30   H     H_    0.033598 0.928285 0.237700 0.366102
O38   O     O_3   0.733925 0.813705 0.729789 -0.652794
H31   H     H_    0.668509 0.870628 0.710532 0.330472
O39   O     O_3   0.084389 0.954378 0.315442 -0.659640
H32   H     H_    0.149867 0.908513 0.337160 0.360279
O40   O     O_3   0.238043 0.263016 0.118980 -0.709208
H33   H     H_    0.180985 0.344904 0.115327 0.343967
N6    N     N_3   0.385260 0.246044 0.187599 -0.553359
H34   H     H_    0.423561 0.189302 0.158455 0.275028
H35   H     H_    0.329973 0.328589 0.175517 0.259338
O41   O     O_3   0.444045 0.200551 0.281307 -0.696254
H36   H     H_    0.488557 0.139199 0.304823 0.302521
O42   O     O_3   0.530272 0.412513 0.143839 -0.672719
H37   H     H_    0.457369 0.448506 0.162253 0.359451
O43   O     O_3   0.491289 0.327841 0.395802 -0.629269
H38   H     H_    0.424179 0.366985 0.374163 0.369053
O44   O     O_3   0.518130 0.506783 0.234202 -0.727662
H39   H     H_    0.574545 0.502160 0.210034 0.355696
O45   O     O_3   0.490134 0.475135 0.331523 -0.667854
H40   H     H_    0.445606 0.546119 0.312941 0.380564
O46   O     O_3   0.786396 0.015389 0.125871 -0.652986
H41   H     H_    0.770273 0.955735 0.137231 0.317715
O47   O     O_3   0.885581 0.870398 0.299250 -0.558392
H42   H     H_    0.928679 0.814469 0.273053 0.324113
O48   O     O_3   0.844063 0.970332 0.381331 -0.545625
H43   H     H_    0.858536 0.997995 0.412588 0.333441
O49   O     O_3   0.463144 0.715420 0.728344 -0.695478
H44   H     H_    0.422880 0.715346 0.758376 0.326076
N7    N     N_3   0.624305 0.490950 0.782770 -0.617886
H45   H     H_    0.573848 0.487602 0.754755 0.251117
H46   H     H_    0.570942 0.522742 0.813204 0.220913
O50   O     O_3   0.121165 0.998639 0.785352 -0.633188
H47   H     H_    0.134569 0.951724 0.755578 0.334548
N8    N     N_3   0.969602 0.188265 0.705845 -0.569701
H48   H     H_    0.981080 0.106317 0.702503 0.267614
H49   H     H_    0.894805 0.237695 0.725570 0.294968
N9    N     N_3   0.347619 0.969947 0.736525 -0.600975
H50   H     H_    0.364804 0.919791 0.767296 0.262717
H51   H     H_    0.326925 0.930413 0.708705 0.261486

loop_
_geom_bond_atom_site_label_1
_geom_bond_atom_site_label_2
_ccdc_geom_bond_type
C66   C68   A    
C40   C41   A    
N4    H25   S    
C46   N4    S    
C50   N3    S    
C41   C42   A    
C83   C87   A    
Cr6   O18   S    
C74   C83   A    
Cr2   O2    S    
C2    C12   S    
C56   O24   A    
Cr3   O3    S    
C34   C90   S    
C81   C82   A    
C8    O38   S    
C25   H3    S    
C7    C8    S    
C47   C49   A    
O37   H30   S    
C21   N9    S    
C91   O8    A    
C23   O1    A    
C11   C19   S    
O44   H39   S    
C93   O6    A    
C67   O33   S    
C40   C52   A    
C79   O42   S    
C73   C90   A    
N3    H23   S    
Cr6   O17   S    
Cr3   O4    S    
C5    C6    S    
C31   O31   S    
Cr4   O19   S    
N5    H28   S    
C65   C70   A    
C78   O27   S    
C17   C20   S    
C58   C70   A    
O41   H36   S    
Cr3   O22   S    
C18   C20   S    
C18   C19   S    
C73   C74   A    
C71   O40   S    
C69   C71   A    
C39   C42   A    
C66   O41   S    
C26   H2    S    
C68   C69   A    
C44   C53   A    
C40   C43   A    
O38   H31   S    
O49   H44   S    
C56   C72   S    
C74   C77   A    
Cr2   O20   S    
C1    C28   S    
O32   H17   S    
C31   C33   S    
O48   H43   S    
C5    O49   S    
Cr6   O10   S    
C55   N5    S    
N3    H24   S    
C55   C72   A    
C30   C33   S    
C35   O30   S    
Cr5   O19   S    
C61   C62   A    
C25   C32   S    
C15   C23   S    
O46   H41   S    
C59   C60   A    
N4    H26   S    
C8    C78   S    
C77   O45   S    
C95   O17   A    
C67   C78   S    
C11   N8    S    
C38   O34   S    
C4    C7    S    
C45   O3    A    
C50   C51   A    
C49   H6    S    
N1    H15   S    
C76   C77   A    
C94   O15   A    
C25   C29   S    
C3    C67   S    
C68   N6    S    
N7    H45   S    
C96   O13   A    
Cr2   O26   S    
Cr4   O14   S    
Cr5   O8    S    
C32   C35   S    
C88   O46   S    
C18   O29   S    
C76   O44   S    
C84   C85   A    
C33   N1    S    
N6    H35   S    
C9    C89   T    
Cr3   O5    S    
C5    C7    S    
Cr1   O1    S    
C86   C87   A    
C16   C17   S    
C57   C60   A    
C6    C8    S    
C1    O20   A    
C25   C26   S    
N6    H34   S    
N8    H48   S    
Cr3   O23   S    
O43   H38   S    
C51   C53   A    
C43   H4    S    
C64   C66   A    
C63   H7    S    
C75   C76   A    
C1    O12   A    
C4    C78   S    
C29   C30   S    
Cr5   O16   S    
C95   O16   A    
C29   O32   S    
C11   C16   S    
C53   H5    S    
C16   H1    S    
Cr2   O5    S    
C47   C48   A    
C38   C54   A    
C34   O25   A    
C29   C31   S    
C46   C54   A    
Cr5   O15   S    
C91   O7    A    
C13   C21   S    
C32   C37   S    
O28   H11   S    
C89   C92   S    
C85   C86   A    
O40   H33   S    
N7    H46   S    
O42   H37   S    
C41   N2    S    
C81   C90   A    
Cr1   O12   S    
C16   C18   S    
O36   H27   S    
C45   C54   S    
O39   H32   S    
N9    H51   S    
C12   O22   A    
C55   C57   A    
C43   C44   A    
C49   C50   A    
C13   O50   S    
C58   C59   A    
C80   C96   S    
Cr1   O24   S    
C3    C4    S    
C2    C10   T    
C3    C5    S    
C81   O48   S    
C73   O43   S    
N1    H14   S    
C94   O14   A    
C75   C87   A    
O50   H47   S    
C46   C47   A    
C15   C24   T    
C12   O21   A    
C23   O23   A    
C19   C21   S    
C20   C21   S    
Cr5   O9    S    
C58   C61   A    
C31   C32   S    
C42   O35   S    
Cr6   O19   S    
C57   C65   A    
O47   H42   S    
C59   O37   S    
C6    C10   S    
C26   C30   S    
C30   C36   S    
C27   C36   T    
N2    H20   S    
C34   O26   A    
C82   C84   A    
C17   C22   S    
C7    H8    S    
C13   C17   S    
O30   H13   S    
C61   O36   S    
O45   H40   S    
C14   C22   T    
C62   C94   S    
C19   C24   S    
C60   O39   S    
C51   C52   A    
C80   C88   A    
C44   C95   S    
C6    C67   S    
O31   H16   S    
C64   C65   A    
C11   C13   S    
C20   O28   S    
C38   C39   A    
N5    H29   S    
C28   C37   T    
C84   O47   S    
C63   C64   A    
C33   C35   S    
C56   O4    A    
C62   C71   A    
Cr1   O5    S    
C86   C88   A    
N9    H50   S    
C92   O9    A    
C69   C70   A    
O35   H22   S    
C14   C91   S    
C27   C93   S    
O27   H10   S    
C79   C80   A    
C45   O2    A    
C26   C35   S    
C48   C52   A    
Cr4   O7    S    
C63   C72   A    
N2    H21   S    
C82   C83   A    
Cr2   O21   S    
O34   H19   S    
N8    H49   S    
C3    N7    S    
Cr6   O11   S    
O29   H12   S    
C39   C48   A    
Cr4   O6    S    
Cr1   O25   S    
Cr4   O13   S    
C4    C9    S    
C92   O10   A    
C75   C79   A    
C93   O11   A    
C85   H9    S    
C96   O18   A    
O33   H18   S    
