data_mof_unit_18841.cif
_audit_creation_date              2012-12-11T15:25:37-0500
_audit_creation_method            fapswitch 2.2
_symmetry_space_group_name_H-M    P1
_symmetry_Int_Tables_number       1
_space_group_crystal_system       triclinic
_cell_length_a                    6.950228
_cell_length_b                    23.135176
_cell_length_c                    25.778328
_cell_angle_alpha                 104.49164
_cell_angle_beta                  89.161672
_cell_angle_gamma                 90.950944
_cell_volume                      4012.35470187

loop_
_atom_site_label
_atom_site_type_symbol
_atom_type_description
_atom_site_fract_x
_atom_site_fract_y
_atom_site_fract_z
_atom_type_partial_charge
O1    O     O_R   0.494330 0.439230 0.438150 -0.538451
O2    O     O_R   0.820190 0.446230 0.546380 -0.509950
O3    O     O_R   0.994320 0.560770 0.561850 -0.535878
C1    C     C_R   0.649568 0.432308 0.561559 0.745362
O4    O     O_R   0.823790 0.432220 0.437600 -0.545556
O5    O     O_R   0.997940 0.546660 0.452300 -0.542136
C2    C     C_R   0.655361 0.415335 0.417802 0.698078
O6    O     O_R   0.490700 0.453340 0.547700 -0.540603
O7    O     O_3   0.662060 0.537560 0.504950 -0.373999
V1    V     V_3+5 0.935420 0.493030 0.499080 1.426069
O8    O     O_R   0.327880 0.553770 0.453620 -0.542250
C3    C     C_R   0.160692 0.565835 0.436921 0.706260
O9    O     O_R   0.324280 0.567780 0.562400 -0.542853
C4    C     C_R   0.155184 0.584508 0.582408 0.713162
V2    V     V_3+5 0.435890 0.506970 0.500920 1.398677
O10   O     O_3   0.159380 0.462440 0.495050 -0.370149
C5    C     C_R   0.932786 0.855742 0.831533 -0.201751
C6    C     C_R   0.083687 0.865745 0.868518 -0.108493
C7    C     C_R   0.244974 0.828727 0.858068 -0.165655
C8    C     C_R   0.255501 0.781839 0.811581 0.085352
C9    C     C_R   0.106042 0.772940 0.773812 -0.041878
C10   C     C_R   0.942928 0.810132 0.783627 0.013732
C11   C     C_R   0.414536 0.744055 0.802222 -0.234526
C12   C     C_R   0.427106 0.696606 0.755841 0.393911
C13   C     C_R   0.281869 0.689031 0.716965 0.016758
C14   C     C_R   0.119970 0.726786 0.726388 -0.039726
C15   C     C_R   0.970827 0.717850 0.688658 0.087727
C16   C     C_R   0.809660 0.754914 0.698356 -0.239180
C17   C     C_R   0.793203 0.801664 0.745758 0.436915
C18   C     C_R   0.293791 0.643630 0.669087 -0.192902
C19   C     C_R   0.144615 0.634103 0.631596 -0.114289
C20   C     C_R   0.983071 0.671168 0.641900 -0.166231
H1    H     H_    0.361481 0.835935 0.886539 0.124614
C21   C     C_R   0.238460 0.856359 0.099297 0.380180
C22   C     C_R   0.248756 0.820656 0.136115 -0.235718
C23   C     C_R   0.095118 0.816981 0.171014 -0.089135
C24   C     C_R   0.931084 0.850935 0.169461 -0.236955
H2    H     H_    0.811400 0.848316 0.196000 0.151829
C25   C     C_R   0.922233 0.890390 0.135686 0.384788
C26   C     C_R   0.075423 0.892522 0.099260 -0.252727
N1    N     N_R   0.950406 0.769595 0.238992 -0.282757
N2    N     N_R   0.961774 0.736542 0.274420 -0.289359
C27   C     C_R   0.130912 0.711741 0.282721 0.516489
N3    N     N_R   0.287640 0.720990 0.253509 -0.226260
N4    N     N_R   0.276174 0.753907 0.217950 -0.297604
C28   C     C_R   0.107365 0.779120 0.209966 0.544028
C29   C     C_R   0.317143 0.669051 0.348529 0.450232
C30   C     C_R   0.322599 0.632343 0.384742 -0.252384
C31   C     C_R   0.154811 0.604303 0.398349 -0.102072
C32   C     C_R   0.981236 0.612546 0.373988 -0.170722
H3    H     H_    0.849151 0.591391 0.383054 0.137589
C33   C     C_R   0.975892 0.647074 0.336589 -0.222183
H4    H     H_    0.840584 0.650779 0.317537 0.196569
C34   C     C_R   0.142789 0.675369 0.322911 -0.065695
C35   C     C_R   0.469379 0.377555 0.622514 -0.289880
C36   C     C_R   0.469602 0.338216 0.656607 0.474938
C37   C     C_R   0.646645 0.319308 0.672757 -0.157577
C38   C     C_R   0.811467 0.326688 0.643258 -0.268369
C39   C     C_R   0.805257 0.356818 0.602543 0.430424
C40   C     C_R   0.640341 0.389499 0.596726 -0.231397
N5    N     N_R   0.796731 0.247445 0.716644 -0.323812
N6    N     N_R   0.793319 0.214483 0.752355 -0.275209
C41   C     C_R   0.649706 0.220024 0.789586 0.534213
N7    N     N_R   0.512680 0.261519 0.790431 -0.288558
N8    N     N_R   0.516541 0.294727 0.754941 -0.237408
C42   C     C_R   0.656996 0.287796 0.716678 0.545275
C43   C     C_R   0.459795 0.174488 0.853269 -0.191661
C44   C     C_R   0.440004 0.136973 0.888128 -0.180651
H5    H     H_    0.301709 0.133941 0.907251 0.148735
C45   C     C_R   0.597157 0.104627 0.898788 -0.106203
C46   C     C_R   0.774351 0.110579 0.873419 -0.224865
C47   C     C_R   0.793868 0.145965 0.836477 0.436259
C48   C     C_R   0.636035 0.179867 0.826961 -0.082892
C49   C     C_R   0.476594 0.132598 0.175873 -0.271531
C50   C     C_R   0.584813 0.135632 0.130346 -0.165281
C51   C     C_R   0.704333 0.186086 0.131655 0.378781
C52   C     C_R   0.727428 0.230593 0.180486 0.017610
C53   C     C_R   0.617755 0.226607 0.226164 -0.004568
C54   C     C_R   0.493921 0.177125 0.223822 0.045553
C55   C     C_R   0.858972 0.278561 0.184997 -0.177057
C56   C     C_R   0.871820 0.323733 0.232474 -0.191687
C57   C     C_R   0.756763 0.321526 0.277074 0.129182
C58   C     C_R   0.631930 0.272159 0.274379 0.020733
C59   C     C_R   0.524099 0.267748 0.320167 0.011277
C60   C     C_R   0.418113 0.214883 0.318781 0.383664
C61   C     C_R   0.396267 0.171447 0.270261 -0.249439
C62   C     C_R   0.765798 0.367535 0.324435 -0.204383
C63   C     C_R   0.648147 0.365634 0.368794 -0.083277
C64   C     C_R   0.529055 0.315414 0.366656 -0.222766
H6    H     H_    0.381509 0.094645 0.174047 0.136153
H7    H     H_    0.971894 0.360575 0.234241 0.127577
H8    H     H_    0.861170 0.405596 0.326458 0.114017
H9    H     H_    0.308306 0.132177 0.269636 0.132096
O11   O     O_R   0.738220 0.046730 0.952360 -0.538930
O12   O     O_R   0.404950 0.067790 0.062410 -0.547311
O13   O     O_R   0.230980 0.953320 0.047680 -0.514090
C65   C     C_R   0.573991 0.085200 0.081828 0.764640
O14   O     O_R   0.408720 0.053790 0.953630 -0.547999
O15   O     O_R   0.234780 0.939210 0.938130 -0.542296
C66   C     C_R   0.579503 0.065433 0.936641 0.688550
O16   O     O_R   0.734430 0.060840 0.061910 -0.516052
O17   O     O_3   0.566930 0.962480 0.995080 -0.365354
V3    V     V_3+5 0.293490 0.006960 0.000910 1.445464
O18   O     O_R   0.904820 0.932150 0.937550 -0.552463
C67   C     C_R   0.073843 0.915413 0.917609 0.682081
O19   O     O_R   0.901050 0.946150 0.046320 -0.515955
C68   C     C_R   0.068497 0.933381 0.062489 0.752502
V4    V     V_3+5 0.793050 0.992940 0.999010 1.474669
O20   O     O_3   0.069480 0.037520 0.004920 -0.366129
H10   H     H_    0.809562 0.884835 0.839757 0.167866
H11   H     H_    0.378765 0.795931 0.137416 0.157659
O21   O     O_3   0.763240 0.926592 0.137571 -0.535927
C69   C     C_3   0.736950 0.964695 0.189665 0.118014
H12   H     H_    0.725130 0.011302 0.185803 0.132993
H13   H     H_    0.861430 0.965845 0.216866 0.049559
C70   C     C_3   0.553437 0.946805 0.216203 -0.285372
H14   H     H_    0.528552 0.897859 0.202947 0.210947
H15   H     H_    0.571304 0.958507 0.260408 0.145754
C71   C     C_3   0.375946 0.978291 0.203379 -0.755717
H16   H     H_    0.381146 0.025892 0.225746 0.196337
H17   H     H_    0.244274 0.957504 0.216133 0.210515
H18   H     H_    0.368489 0.975049 0.159755 0.253684
O22   O     O_3   0.485134 0.695597 0.335641 -0.564088
C72   C     C_3   0.541977 0.743431 0.378960 0.072274
H19   H     H_    0.701305 0.747402 0.377367 0.158260
H20   H     H_    0.505226 0.736171 0.419156 0.089284
C73   C     C_3   0.456410 0.802110 0.373270 -0.281189
H21   H     H_    0.496288 0.809189 0.333374 0.232480
H22   H     H_    0.296971 0.799742 0.376267 0.176903
C74   C     C_3   0.529788 0.855096 0.416755 -0.850805
H23   H     H_    0.489150 0.849452 0.457054 0.228547
H24   H     H_    0.464899 0.896810 0.411588 0.233606
H25   H     H_    0.688841 0.859235 0.413905 0.235161
H26   H     H_    0.458934 0.626274 0.402386 0.127624
H27   H     H_    0.334652 0.396226 0.614332 0.191631
O23   O     O_3   0.295245 0.317854 0.672386 -0.560019
C75   C     C_3   0.275221 0.254865 0.651283 0.101609
H28   H     H_    0.145330 0.240183 0.670212 0.185716
H29   H     H_    0.392924 0.228767 0.662388 0.107926
C76   C     C_3   0.255835 0.237269 0.590048 -0.395705
H30   H     H_    0.184836 0.273268 0.576859 0.244535
H31   H     H_    0.401395 0.231751 0.571179 0.181902
C77   C     C_3   0.139918 0.179386 0.571005 -0.830514
H32   H     H_    0.213600 0.142049 0.582127 0.236079
H33   H     H_    0.125058 0.168640 0.526871 0.228779
H34   H     H_    0.993195 0.184342 0.589140 0.237463
H35   H     H_    0.943310 0.306891 0.650181 0.203962
O24   O     O_3   0.957106 0.350948 0.566465 -0.566842
C78   C     C_3   0.901859 0.308496 0.518915 0.052342
H36   H     H_    0.757369 0.318092 0.504926 0.092599
H37   H     H_    0.896664 0.262867 0.525798 0.124543
C79   C     C_3   0.046596 0.309824 0.474165 -0.289734
H38   H     H_    0.055711 0.355607 0.468446 0.231319
H39   H     H_    0.191368 0.297484 0.485160 0.175080
C80   C     C_3   0.984458 0.267582 0.421505 -0.789259
H40   H     H_    0.000763 0.220443 0.423262 0.241604
H41   H     H_    0.072943 0.276410 0.388118 0.265705
H42   H     H_    0.832388 0.275113 0.413218 0.214892
H43   H     H_    0.335343 0.199099 0.846612 0.198874
H44   H     H_    0.899559 0.087600 0.882177 0.130543
O25   O     O_3   0.973791 0.152043 0.814616 -0.573613
C81   C     C_3   0.002112 0.106096 0.767268 0.111974
H45   H     H_    0.102441 0.124279 0.741132 0.167947
H46   H     H_    0.867558 0.092924 0.743817 0.100935
C82   C     C_3   0.093263 0.051047 0.779463 -0.354768
H47   H     H_    0.206172 0.065094 0.810199 0.217011
H48   H     H_    0.981291 0.025112 0.795375 0.177263
C83   C     C_3   0.183961 0.010688 0.729367 -0.845503
H49   H     H_    0.079580 0.999881 0.696066 0.231704
H50   H     H_    0.229089 0.968421 0.738245 0.230567
H51   H     H_    0.312332 0.033056 0.716570 0.235188
O26   O     O_3   0.798628 0.190602 0.084991 -0.574076
C84   C     C_3   0.708755 0.233831 0.063188 0.035889
H52   H     H_    0.805982 0.242417 0.031262 0.158549
H53   H     H_    0.691017 0.277431 0.092995 0.117708
C85   C     C_3   0.513003 0.212009 0.038279 -0.325877
H54   H     H_    0.528597 0.167069 0.011113 0.194493
H55   H     H_    0.407080 0.209093 0.070259 0.189193
C86   C     C_3   0.435318 0.254123 0.006757 -0.790309
H56   H     H_    0.417161 0.299562 0.033423 0.228910
H57   H     H_    0.293171 0.237343 0.989773 0.232879
H58   H     H_    0.535162 0.256494 0.973279 0.242067
H59   H     H_    0.952232 0.281575 0.151739 0.150812
H60   H     H_    0.531510 0.752167 0.830493 0.135346
H61   H     H_    0.443903 0.313128 0.401671 0.147049
O27   O     O_3   0.343621 0.203985 0.365397 -0.581045
C87   C     C_3   0.477240 0.169336 0.384928 0.065882
H62   H     H_    0.625645 0.188694 0.386120 0.121099
H63   H     H_    0.477964 0.122891 0.359040 0.122964
C88   C     C_3   0.419133 0.167430 0.441763 -0.287992
H64   H     H_    0.408601 0.213725 0.467274 0.191438
H65   H     H_    0.276062 0.145088 0.440807 0.193668
C89   C     C_3   0.565640 0.133695 0.466110 -0.855824
H66   H     H_    0.579580 0.087211 0.441223 0.234015
H67   H     H_    0.517549 0.132154 0.506999 0.240490
H68   H     H_    0.708339 0.156604 0.469015 0.226118
O28   O     O_3   0.589395 0.661138 0.745092 -0.576674
C90   C     C_3   0.629898 0.634146 0.787300 0.072425
H69   H     H_    0.626598 0.584984 0.770498 0.145806
H70   H     H_    0.523526 0.643652 0.821157 0.103890
C91   C     C_3   0.832076 0.652907 0.808252 -0.291452
H71   H     H_    0.937672 0.640481 0.774676 0.211529
H72   H     H_    0.838853 0.702069 0.824587 0.193443
C92   C     C_3   0.887504 0.622736 0.852031 -0.835275
H73   H     H_    0.784229 0.634370 0.886194 0.238984
H74   H     H_    0.033674 0.638106 0.866704 0.230698
H75   H     H_    0.888653 0.573483 0.835998 0.240405
H76   H     H_    0.416860 0.614436 0.661386 0.165368
H77   H     H_    0.867317 0.663996 0.613141 0.120815
H78   H     H_    0.697060 0.745565 0.668944 0.114001
O29   O     O_3   0.630737 0.837415 0.759786 -0.569174
C93   C     C_3   0.516933 0.844397 0.716735 0.119505
H79   H     H_    0.387121 0.869444 0.734602 0.137414
H80   H     H_    0.458049 0.801488 0.692464 0.076078
C94   C     C_3   0.619796 0.880931 0.682155 -0.362759
H81   H     H_    0.740309 0.855207 0.659151 0.176975
H82   H     H_    0.515669 0.889765 0.652828 0.158630
C95   C     C_3   0.696987 0.940467 0.715940 -0.695923
H83   H     H_    0.582979 0.964986 0.742796 0.222349
H84   H     H_    0.748130 0.968455 0.689168 0.199477
H85   H     H_    0.819072 0.932805 0.740602 0.240194
O30   O     O_3   0.395857 0.860064 0.066651 -0.538171
C96   C     C_3   0.411960 0.806157 0.026479 0.095790
H86   H     H_    0.278416 0.797130 0.002128 0.090391
H87   H     H_    0.438696 0.767980 0.044386 0.118681
C97   C     C_3   0.581810 0.811588 0.989579 -0.231353
H88   H     H_    0.553131 0.847335 0.969080 0.199714
H89   H     H_    0.714372 0.823838 0.013729 0.200888
C98   C     C_3   0.614905 0.753272 0.947351 -0.915921
H90   H     H_    0.653528 0.717384 0.966823 0.243250
H91   H     H_    0.734857 0.759473 0.920242 0.239149
H92   H     H_    0.483239 0.739603 0.923204 0.231664

loop_
_geom_bond_atom_site_label_1
_geom_bond_atom_site_label_2
_ccdc_geom_bond_type
C77   H34   S    
O15   V3    S    
C62   C63   A    
C88   H64   S    
C10   C17   A    
C80   H41   S    
N1    N2    A    
O2    C1    A    
C7    C8    A    
C76   C77   S    
C37   C42   S    
C1    O6    A    
C62   H8    S    
C5    H10   S    
C16   C17   A    
C3    C31   S    
C92   H74   S    
C96   C97   S    
O22   C72   S    
C84   H52   S    
C36   C37   A    
C46   H44   S    
C75   H29   S    
O11   V4    S    
C14   C15   A    
C82   H47   S    
O9    V2    S    
C25   O21   S    
C58   C59   A    
C21   C26   A    
C30   H26   S    
C23   C24   A    
O26   C84   S    
C76   H31   S    
C6    C7    A    
C98   H92   S    
C29   C34   A    
C78   H37   S    
O5    C3    A    
C18   C19   A    
C55   C56   A    
C84   C85   S    
O19   C68   A    
C16   H78   S    
O14   V3    S    
C50   C65   S    
V4    O20   S    
C21   C22   A    
C91   H71   S    
C55   H59   S    
C51   O26   S    
O18   C67   A    
C87   C88   S    
C88   C89   S    
C69   H12   S    
O8    V2    S    
N5    C42   A    
C85   C86   S    
N6    C41   A    
C96   H86   S    
C33   C34   A    
C44   H5    S    
C89   H67   S    
C32   C33   A    
N1    C28   A    
C79   C80   S    
C12   C13   A    
O17   V4    S    
C45   C46   A    
C43   C48   A    
O9    C4    A    
O7    V1    S    
C4    C19   S    
N5    N6    A    
C69   C70   S    
C71   H17   S    
C39   O24   S    
O16   V4    S    
C85   H55   S    
C39   C40   A    
C82   H48   S    
O1    C2    A    
C35   C40   A    
C80   H42   S    
C92   H73   S    
C91   H72   S    
O17   V3    S    
C21   O30   S    
C90   C91   S    
C53   C58   A    
O21   C69   S    
C36   O23   S    
C98   H90   S    
C45   C66   S    
C17   O29   S    
C81   H46   S    
C51   C52   A    
C83   H51   S    
C76   H30   S    
O15   C67   A    
C75   C76   S    
C80   H40   S    
C49   C50   A    
O12   V3    S    
C43   C44   A    
C29   C30   A    
C59   C60   A    
C7    H1    S    
C78   C79   S    
C25   C26   A    
O4    C2    A    
C53   C54   A    
C13   C18   A    
C41   C48   S    
C32   H3    S    
C38   C39   A    
C52   C53   A    
C57   C58   A    
C56   C57   A    
C86   H56   S    
C22   C23   A    
C74   H24   S    
C50   C51   A    
C73   H22   S    
O29   C93   S    
C24   H2    S    
C61   H9    S    
C24   C25   A    
C81   C82   S    
C27   C34   S    
C95   H84   S    
C2    C63   S    
C8    C11   A    
O11   C66   A    
C47   O25   S    
C89   H68   S    
C18   H76   S    
C1    C40   S    
C35   C36   A    
C96   H87   S    
C5    C6    A    
C97   H88   S    
C63   C64   A    
C23   C28   S    
O3    C4    A    
C60   C61   A    
C90   H69   S    
C84   H53   S    
O27   C87   S    
C26   C68   S    
O1    V2    S    
C30   C31   A    
O13   C68   A    
C93   H80   S    
C12   O28   S    
C31   C32   A    
C82   C83   S    
O14   C66   A    
C49   C54   A    
C72   C73   S    
C27   N3    A    
C91   C92   S    
C94   C95   S    
C74   H25   S    
C59   C64   A    
C73   H21   S    
O2    V1    S    
C8    C9    A    
O18   V4    S    
C22   H11   S    
C33   H4    S    
C95   H85   S    
C72   H20   S    
C81   H45   S    
C71   H18   S    
C60   O27   S    
C77   H33   S    
C83   H49   S    
C88   H65   S    
C15   C20   A    
C38   H35   S    
C93   C94   S    
C64   H61   S    
C19   C20   A    
N3    N4    A    
C79   H39   S    
C47   C48   A    
O5    V1    S    
C43   H43   S    
C71   H16   S    
O12   C65   A    
C29   O22   S    
O6    V2    S    
C97   C98   S    
C75   H28   S    
C97   H89   S    
C5    C10   A    
C70   C71   S    
V3    O20   S    
N7    N8    A    
C86   H58   S    
C85   H54   S    
C77   H32   S    
C13   C14   A    
C73   C74   S    
C11   H60   S    
C98   H91   S    
O3    V1    S    
O25   C81   S    
C78   H36   S    
C20   H77   S    
C52   C55   A    
C49   H6    S    
C95   H83   S    
V1    O10   S    
O19   V4    S    
C35   H27   S    
V2    O10   S    
C9    C14   A    
C83   H50   S    
C70   H15   S    
C70   H14   S    
C74   H23   S    
C92   H75   S    
O24   C78   S    
N8    C42   A    
C94   H81   S    
O7    V2    S    
O28   C90   S    
C87   H63   S    
C94   H82   S    
C11   C12   A    
C41   N7    A    
C56   H7    S    
N4    C28   A    
O4    V1    S    
C46   C47   A    
C93   H79   S    
C87   H62   S    
C44   C45   A    
C89   H66   S    
N2    C27   A    
O13   V3    S    
C15   C16   A    
C6    C67   S    
O23   C75   S    
C90   H70   S    
C79   H38   S    
C86   H57   S    
C37   C38   A    
C9    C10   A    
O30   C96   S    
C54   C61   A    
C65   O16   A    
C57   C62   A    
O8    C3    A    
C72   H19   S    
C69   H13   S    
