data_mof_unit_51958.cif
_audit_creation_date              2012-12-10T17:33:46-0500
_audit_creation_method            fapswitch 2.2
_symmetry_space_group_name_H-M    P1
_symmetry_Int_Tables_number       1
_space_group_crystal_system       triclinic
_cell_length_a                    11.646448
_cell_length_b                    12.412657
_cell_length_c                    13.509071
_cell_angle_alpha                 117.487215
_cell_angle_beta                  75.907036
_cell_angle_gamma                 101.495612
_cell_volume                      1671.72229745

loop_
_atom_site_label
_atom_site_type_symbol
_atom_type_description
_atom_site_fract_x
_atom_site_fract_y
_atom_site_fract_z
_atom_type_partial_charge
C1    C     C_R   0.499059 0.855523 0.289419 0.846628
C2    C     C_R   0.461936 0.230469 0.832054 -0.085396
C3    C     C_R   0.517268 0.826231 0.093037 -0.333642
C4    C     C_R   0.534372 0.753227 0.976608 -0.057059
C5    C     C_R   0.521449 0.625230 0.936648 0.405079
C6    C     C_R   0.467431 0.570602 0.012491 -0.108056
C7    C     C_R   0.437883 0.649268 0.130398 -0.098023
C8    C     C_R   0.448487 0.441133 0.977632 0.050777
C9    C     C_R   0.418885 0.395380 0.060438 0.006948
C10   C     C_R   0.382963 0.474551 0.173971 -0.054165
C11   C     C_R   0.373997 0.596881 0.204486 0.420415
C12   C     C_R   0.715256 0.001982 0.502141 0.857057
C13   C     C_R   0.458195 0.354640 0.863761 -0.187257
C14   C     C_R   0.443071 0.188443 0.914382 -0.177280
C15   C     C_R   0.480416 0.775560 0.170561 -0.113867
C16   C     C_R   0.726352 0.371812 0.385564 -0.280934
C17   C     C_R   0.336813 0.763258 0.644555 0.711659
C18   C     C_R   0.308382 0.673428 0.685309 -0.395335
C19   C     C_R   0.378081 0.578173 0.642392 -0.150494
C20   C     C_R   0.474469 0.564085 0.553412 0.047763
C21   C     C_R   0.507390 0.659306 0.516812 0.123425
C22   C     C_R   0.540969 0.459223 0.500222 -0.070940
C23   C     C_R   0.481336 0.145652 0.712230 0.790361
C24   C     C_R   0.657415 0.470440 0.441871 0.103216
C25   C     C_R   0.701536 0.576838 0.430833 -0.268196
C26   C     C_R   0.622727 0.656068 0.445045 0.014731
C27   C     C_R   0.496330 0.341403 0.496439 0.551989
C28   C     C_R   0.678449 0.259677 0.383256 0.002310
C29   C     C_R   0.284301 0.000051 0.500852 0.821467
C30   C     C_1   0.837114 0.002746 0.502884 -0.125474
C31   C     C_1   0.939443 0.001116 0.502943 0.001541
C32   C     C_1   0.059159 0.999469 0.502423 -0.033139
C33   C     C_1   0.162109 0.999455 0.501683 -0.219559
C34   C     C_R   0.417515 0.269114 0.027223 -0.123007
Cu1   Cu    Cu3+1 0.526510 0.098270 0.475420 0.966021
Cu2   Cu    Cu3+1 0.473490 0.901730 0.524580 1.023291
H1    H     H_    0.442831 0.092492 0.891660 0.179184
H2    H     H_    0.791265 0.581474 0.383859 0.158367
H3    H     H_    0.816149 0.380603 0.341133 0.150024
H4    H     H_    0.357721 0.518873 0.684031 0.215752
H5    H     H_    0.234045 0.675172 0.751581 0.143939
H6    H     H_    0.393736 0.230241 0.087360 0.153583
H7    H     H_    0.456982 0.380644 0.798414 0.224645
H8    H     H_    0.539140 0.923955 0.123452 0.219883
H9    H     H_    0.732721 0.184271 0.342220 0.156793
N1    N     N_R   0.566700 0.246290 0.438210 -0.223673
N2    N     N_R   0.434010 0.754320 0.561170 -0.237543
O1    O     O_R   0.533340 0.972510 0.318140 -0.600348
O2    O     O_R   0.488570 0.806530 0.359650 -0.535944
O3    O     O_R   0.685190 0.083000 0.479260 -0.598242
O4    O     O_R   0.640410 0.917020 0.520770 -0.583748
O5    O     O_R   0.511430 0.193470 0.640350 -0.570909
O6    O     O_R   0.466660 0.027490 0.681860 -0.557575
O7    O     O_R   0.359590 0.082980 0.479230 -0.552174
O8    O     O_R   0.314810 0.917000 0.520740 -0.521026
O9    O     O_3   0.384305 0.321093 0.553201 -0.610359
C35   C     C_3   0.298381 0.305610 0.488321 0.027063
H10   H     H_    0.307212 0.219130 0.408992 0.167829
H11   H     H_    0.307624 0.382582 0.466231 0.176072
C36   C     C_3   0.173385 0.303947 0.557023 -0.316356
H12   H     H_    0.163456 0.241700 0.597181 0.235855
H13   H     H_    0.158621 0.396729 0.626116 0.205050
C37   C     C_3   0.080024 0.263864 0.481243 -0.882782
H14   H     H_    0.081917 0.332683 0.449803 0.274943
H15   H     H_    0.990358 0.253623 0.529818 0.255395
H16   H     H_    0.096847 0.174524 0.407428 0.259856
O10   O     O_3   0.276220 0.866744 0.688560 -0.584840
C38   C     C_3   0.176788 0.878192 0.775855 0.013301
H17   H     H_    0.160849 0.976113 0.819394 0.175199
H18   H     H_    0.193757 0.859189 0.843409 0.125952
C39   C     C_3   0.065046 0.804986 0.726697 -0.375158
H19   H     H_    0.050614 0.834622 0.664986 0.236796
H20   H     H_    0.076755 0.706174 0.681142 0.211853
C40   C     C_3   0.955075 0.825058 0.819385 -0.891960
H21   H     H_    0.965035 0.791687 0.879991 0.246981
H22   H     H_    0.875351 0.774198 0.780617 0.266654
H23   H     H_    0.941326 0.923502 0.865833 0.268942
C41   C     C_2   0.654856 0.683662 0.346127 0.926269
O11   O     O_2   0.743586 0.752388 0.337044 -0.648399
O12   O     O_R   0.604129 0.606556 0.250631 -0.748998
H24   H     H_    0.645242 0.620668 0.181641 0.313407
C42   C     C_2   0.366685 0.431687 0.261663 0.876717
O13   O     O_2   0.270710 0.432118 0.323046 -0.650996
O14   O     O_R   0.461439 0.381505 0.266259 -0.748122
H25   H     H_    0.435852 0.325709 0.304758 0.287327
O15   O     O_3   0.568005 0.556431 0.824680 -0.603080
C43   C     C_3   0.688308 0.543883 0.816479 0.066781
H26   H     H_    0.693709 0.478086 0.849452 0.151043
H27   H     H_    0.738209 0.632894 0.864622 0.130897
C44   C     C_3   0.747173 0.495727 0.692104 -0.280539
H28   H     H_    0.697849 0.407961 0.641842 0.236879
H29   H     H_    0.743990 0.562644 0.659852 0.242534
C45   C     C_3   0.876330 0.475559 0.676577 -0.976945
H30   H     H_    0.926193 0.559686 0.731299 0.265912
H31   H     H_    0.918627 0.450905 0.586974 0.268237
H32   H     H_    0.880785 0.400802 0.698558 0.264276
C46   C     C_2   0.576450 0.812385 0.897854 0.850453
O16   O     O_2   0.605166 0.922489 0.935351 -0.620882
O17   O     O_R   0.581984 0.743417 0.781006 -0.735525
H33   H     H_    0.611978 0.794456 0.737321 0.323873
O18   O     O_3   0.302141 0.662443 0.305825 -0.554917
C47   C     C_3   0.190494 0.663233 0.281875 0.092350
H34   H     H_    0.160864 0.575232 0.212716 0.118834
H35   H     H_    0.197411 0.736905 0.254963 0.100422
C48   C     C_3   0.093502 0.689624 0.387708 -0.330434
H36   H     H_    0.124786 0.769293 0.460930 0.238483
H37   H     H_    0.013679 0.711708 0.371972 0.185740
C49   C     C_3   0.056896 0.583080 0.419571 -0.775940
H38   H     H_    0.040929 0.496031 0.344344 0.251934
H39   H     H_    0.973440 0.599825 0.483082 0.215613
H40   H     H_    0.126395 0.576173 0.459154 0.296670

loop_
_geom_bond_atom_site_label_1
_geom_bond_atom_site_label_2
_ccdc_geom_bond_type
C16   C28   A    
C21   C26   A    
C37   H15   S    
O18   C47   S    
Cu1   Cu2   S    
C34   H6    S    
C43   H26   S    
C46   O16   D    
C35   H10   S    
C49   H38   S    
C7    C11   A    
C48   H37   S    
C28   N1    A    
C45   H30   S    
C40   H22   S    
Cu2   N2    S    
C36   C37   S    
C5    C6    A    
C41   O12   S    
C35   H11   S    
C29   O7    A    
C29   C33   S    
O9    C35   S    
C47   C48   S    
C36   H13   S    
C18   C19   A    
C2    C13   A    
C45   H31   S    
Cu2   O6    S    
C19   C20   A    
C8    C9    A    
C40   H23   S    
C1    C15   S    
C9    C10   A    
C7    C15   A    
C37   H16   S    
C16   C24   A    
C4    C46   S    
Cu1   O7    S    
Cu1   O1    S    
C46   O17   S    
C23   O6    A    
C28   H9    S    
C48   C49   S    
C3    H8    S    
C17   O10   S    
C40   H21   S    
O10   C38   S    
C24   C25   A    
C10   C11   A    
C18   H5    S    
C39   H20   S    
C27   O9    S    
C38   H17   S    
C35   C36   S    
C6    C8    A    
C29   O8    A    
C25   C26   A    
C10   C42   S    
C36   H12   S    
C23   O5    A    
C25   H2    S    
C44   H29   S    
O17   H33   S    
C2    C23   S    
Cu1   O3    S    
C17   C18   A    
C11   O18   S    
C26   C41   S    
O14   H25   S    
C47   H35   S    
Cu2   O4    S    
C5    O15   S    
C27   N1    A    
C20   C22   A    
C45   H32   S    
C42   O14   S    
C22   C27   A    
C43   H27   S    
C9    C34   A    
C22   C24   A    
C3    C4    A    
C13   H7    S    
C12   O4    A    
C3    C15   A    
C44   C45   S    
C12   C30   S    
O15   C43   S    
C31   C32   S    
C17   N2    A    
O12   H24   S    
C14   C34   A    
C39   C40   S    
C12   O3    A    
C1    O1    A    
C6    C7    A    
C48   H36   S    
C49   H40   S    
C32   C33   T    
C39   H19   S    
Cu2   O8    S    
C14   H1    S    
C41   O11   D    
C44   H28   S    
C30   C31   T    
C38   C39   S    
C49   H39   S    
C47   H34   S    
C2    C14   A    
C19   H4    S    
C16   H3    S    
C37   H14   S    
C8    C13   A    
C4    C5    A    
C20   C21   A    
C38   H18   S    
C42   O13   D    
C43   C44   S    
Cu1   O5    S    
Cu1   N1    S    
C1    O2    A    
Cu2   O2    S    
C21   N2    A    
