data_mof_unit_40247.cif
_audit_creation_date              2012-12-10T20:36:36-0500
_audit_creation_method            fapswitch 2.2
_symmetry_space_group_name_H-M    P1
_symmetry_Int_Tables_number       1
_space_group_crystal_system       triclinic
_cell_length_a                    10.573475
_cell_length_b                    10.741236
_cell_length_c                    9.971447
_cell_angle_alpha                 89.174668
_cell_angle_beta                  92.709119
_cell_angle_gamma                 90.523343
_cell_volume                      1131.05550756

loop_
_atom_site_label
_atom_site_type_symbol
_atom_type_description
_atom_site_fract_x
_atom_site_fract_y
_atom_site_fract_z
_atom_type_partial_charge
C1    C     C_R   0.501426 0.260660 0.500639 0.954656
C2    C     C_3   0.953748 0.562029 0.400213 -0.227437
C3    C     C_3   0.019966 0.436754 0.384054 0.378012
C4    C     C_3   0.120189 0.473119 0.494000 -0.203301
C5    C     C_R   0.541145 0.061649 0.615907 0.168441
C6    C     C_R   0.511475 0.129208 0.499125 -0.158676
C7    C     C_R   0.495292 0.068723 0.376212 -0.166369
C8    C     C_R   0.489086 0.940997 0.372545 0.412196
C9    C     C_R   0.505842 0.872353 0.494407 -0.212376
C10   C     C_R   0.539188 0.934278 0.613362 0.068365
C11   C     C_3   0.482005 0.924616 0.747708 -0.399949
C12   C     C_R   0.257720 0.484592 0.497572 0.936386
C13   C     C_3   0.483581 0.065640 0.749632 -0.414887
C14   C     C_R   0.431949 0.415073 0.066780 0.081758
C15   C     C_R   0.576551 0.578867 0.073397 0.451884
C16   C     C_R   0.573788 0.580842 0.930007 -0.172289
C17   C     C_R   0.441877 0.407302 0.927162 0.104796
C18   C     C_3   0.309064 0.369773 0.905491 -0.479794
C19   C     C_3   0.291863 0.392001 0.053995 0.327994
C20   C     C_R   0.498120 0.739775 0.498403 0.910025
C21   C     C_R   0.741854 0.507118 0.503095 0.974382
C22   C     C_3   0.039948 0.414327 0.603205 0.324222
C23   C     C_3   0.940555 0.379288 0.493890 0.390072
C24   C     C_3   0.876203 0.502777 0.509571 -0.185301
C25   C     C_3   0.972307 0.539111 0.621982 -0.235173
C26   C     C_3   0.053183 0.599192 0.511855 -0.258031
H1    H     H_    0.547838 0.881953 0.825183 0.232275
H2    H     H_    0.387242 0.106511 0.744024 0.221358
H3    H     H_    0.549819 0.104630 0.828457 0.233327
H4    H     H_    0.631503 0.647638 0.877662 0.166859
H5    H     H_    0.258589 0.436287 0.836627 0.231296
H6    H     H_    0.301662 0.270661 0.875760 0.258416
H7    H     H_    0.949916 0.583151 0.717738 0.174824
H8    H     H_    0.101248 0.691465 0.518449 0.188093
H9    H     H_    0.917119 0.625302 0.318914 0.226567
H10   H     H_    0.477807 0.120216 0.283047 0.237785
H11   H     H_    0.384811 0.883890 0.742412 0.218163
N1    N     N_R   0.499140 0.499140 0.142800 -0.178486
N2    N     N_R   0.499140 0.499180 0.857150 -0.124115
O1    O     O_R   0.500020 0.316790 0.614690 -0.615656
O2    O     O_R   0.500000 0.316760 0.385350 -0.596862
O3    O     O_R   0.313960 0.499990 0.614650 -0.623113
O4    O     O_R   0.313940 0.499950 0.385310 -0.622035
O5    O     O_R   0.500000 0.683240 0.614650 -0.636361
O6    O     O_R   0.499980 0.683210 0.385310 -0.549757
O7    O     O_R   0.686060 0.500050 0.614690 -0.621570
O8    O     O_R   0.686040 0.500010 0.385350 -0.557298
Zn1   Zn    Zn3+2 0.500010 0.500020 0.653130 0.974460
Zn2   Zn    Zn3+2 0.499990 0.499980 0.346870 1.050852
Cl1   Cl    Cl    0.856031 0.233445 0.488285 -0.485181
Cl2   Cl    Cl    0.680396 0.682044 0.158335 -0.587619
C27   C     C_R   0.200211 0.501669 0.067903 0.092785
C28   C     C_R   0.078333 0.493642 0.003999 -0.046234
C29   C     C_R   0.992686 0.591654 0.007768 -0.127140
C30   C     C_R   0.027595 0.701205 0.073152 -0.103970
C31   C     C_R   0.147911 0.712508 0.135148 -0.108990
C32   C     C_R   0.234041 0.614657 0.131361 -0.123819
H12   H     H_    0.047818 0.409000 0.954745 0.228664
H13   H     H_    0.898813 0.582140 0.960676 0.161941
H14   H     H_    0.961237 0.777099 0.076420 0.194566
H15   H     H_    0.174643 0.797688 0.186122 0.202550
H16   H     H_    0.325732 0.629914 0.178899 0.205063
Cl3   Cl    Cl    0.256386 0.250415 0.140625 -0.495868
Cl4   Cl    Cl    0.079754 0.291887 0.718493 -0.604413
Cl5   Cl    Cl    0.007522 0.342488 0.240950 -0.477401
Cl6   Cl    Cl    0.443915 0.878437 0.214464 -0.583561

loop_
_geom_bond_atom_site_label_1
_geom_bond_atom_site_label_2
_ccdc_geom_bond_type
C2    H9    S    
C27   C32   A    
C4    C26   S    
C23   C24   S    
C4    C12   S    
C13   H2    S    
C8    Cl6   S    
C6    C7    A    
C11   H1    S    
C14   N1    A    
C4    C22   S    
C9    C10   A    
C29   C30   A    
C9    C20   S    
C5    C13   S    
C20   O6    A    
O6    Zn2   S    
C28   H12   S    
C30   C31   A    
C2    C3    S    
C24   C25   S    
C7    C8    A    
O8    Zn2   S    
N1    Zn2   S    
O3    Zn1   S    
C30   H14   S    
C31   C32   A    
C11   C13   S    
C14   C17   A    
C3    Cl5   S    
C15   N1    A    
C14   C19   S    
C1    O2    A    
C17   N2    A    
C20   O5    A    
C26   H8    S    
C17   C18   S    
C12   O4    A    
C15   Cl2   S    
C29   H13   S    
C22   C23   S    
C2    C24   S    
C5    C6    A    
O7    Zn1   S    
C22   Cl4   S    
C18   H6    S    
C10   C11   S    
C16   N2    A    
C16   H4    S    
C15   C16   A    
O5    Zn1   S    
C5    C10   A    
C27   C28   A    
C2    C26   S    
C21   O7    A    
C7    H10   S    
C21   C24   S    
C13   H3    S    
C25   H7    S    
C11   H11   S    
C21   O8    A    
O1    Zn1   S    
C31   H15   S    
C18   C19   S    
C23   Cl1   S    
C12   O3    A    
C18   H5    S    
C1    O1    A    
C32   H16   S    
C25   C26   S    
C28   C29   A    
C3    C23   S    
C19   C27   S    
O2    Zn2   S    
O4    Zn2   S    
C3    C4    S    
C1    C6    S    
C19   Cl3   S    
C8    C9    A    
N2    Zn1   S    
C22   C25   S    
