data_mof_unit_67797.cif
_audit_creation_date              2012-12-10T16:53:54-0500
_audit_creation_method            fapswitch 2.2
_symmetry_space_group_name_H-M    P1
_symmetry_Int_Tables_number       1
_space_group_crystal_system       triclinic
_cell_length_a                    8.876278
_cell_length_b                    9.552524
_cell_length_c                    11.591333
_cell_angle_alpha                 97.244965
_cell_angle_beta                  83.668179
_cell_angle_gamma                 89.574656
_cell_volume                      968.817702928

loop_
_atom_site_label
_atom_site_type_symbol
_atom_type_description
_atom_site_fract_x
_atom_site_fract_y
_atom_site_fract_z
_atom_type_partial_charge
C1    C     C_R   0.539404 0.788976 0.499547 0.844250
C2    C     C_3   0.493903 0.528223 0.127273 -0.528228
C3    C     C_3   0.495375 0.364474 0.066821 0.361043
C4    C     C_3   0.627748 0.623114 0.055371 0.405743
C5    C     C_2   0.561539 0.946082 0.489114 0.210458
C6    C     C_2   0.449344 0.053334 0.514125 0.098086
C7    C     C_R   0.495825 0.491746 0.739070 1.047055
C8    C     C_R   0.462298 0.211308 0.504100 0.914925
C9    C     C_R   0.501067 0.511593 0.263017 1.020675
C10   C     C_3   0.327546 0.568038 0.953764 0.302543
C11   C     C_3   0.338937 0.610129 0.106924 0.416888
C12   C     C_3   0.507393 0.346652 0.928446 0.072302
C13   C     C_3   0.634480 0.573626 0.916373 0.492135
C14   C     C_3   0.488971 0.497951 0.881472 -0.441092
H1    H     H_    0.411490 0.284139 0.922612 0.259122
N1    N     N_2   0.950330 0.457950 0.465890 0.096587
N2    N     N_2   0.049670 0.542050 0.534110 0.117760
O1    O     O_R   0.389250 0.738570 0.508370 -0.526742
O2    O     O_R   0.678390 0.711620 0.486510 -0.503731
O3    O     O_R   0.355430 0.513500 0.696140 -0.518238
O4    O     O_R   0.644580 0.486550 0.674270 -0.519666
O5    O     O_R   0.321610 0.288380 0.513490 -0.515800
O6    O     O_R   0.610750 0.261430 0.491630 -0.586476
O7    O     O_R   0.355420 0.513450 0.325730 -0.511771
O8    O     O_R   0.644570 0.486500 0.303860 -0.576706
Zn1   Zn    Zn3+2 0.306940 0.517990 0.514600 1.268582
Zn2   Zn    Zn3+2 0.693060 0.482010 0.485400 1.236031
S1    S     S_3+6 0.194769 0.417055 0.885882 0.094252
O9    O     O_2   0.091103 0.476416 0.813898 -0.155560
O10   O     O_2   0.272689 0.308478 0.791853 -0.275527
O11   O     O_3   0.090221 0.313327 0.968522 -0.396933
H2    H     H_    0.035222 0.250095 0.913772 0.445393
S2    S     S_3+6 0.793395 0.591760 0.108963 0.162326
O12   O     O_2   0.800939 0.675070 0.226565 -0.176480
O13   O     O_2   0.816132 0.440789 0.115895 -0.210598
O14   O     O_3   0.918743 0.642643 0.008025 -0.396569
H3    H     H_    0.993442 0.568389 0.997068 0.447365
S3    S     S_3+6 0.604713 0.197539 0.828901 0.137359
O15   O     O_2   0.661232 0.240625 0.713182 -0.219981
O16   O     O_2   0.737483 0.133045 0.873685 -0.157064
O17   O     O_3   0.479221 0.071845 0.800389 -0.532370
H4    H     H_    0.536200 0.003213 0.739696 0.378024
S4    S     S_3+6 0.602441 0.228872 0.120072 0.208233
O18   O     O_2   0.528108 0.103073 0.072304 -0.130342
O19   O     O_2   0.768611 0.200662 0.083282 -0.117979
O20   O     O_3   0.564178 0.228591 0.263045 -0.527846
H5    H     H_    0.661804 0.254653 0.289744 0.419841
S5    S     S_3+6 0.754258 0.986729 0.451735 0.143166
O21   O     O_2   0.768952 0.079137 0.358256 -0.215122
O22   O     O_2   0.807488 0.057679 0.562183 -0.178611
O23   O     O_3   0.873105 0.851628 0.398579 -0.445827
H6    H     H_    0.972158 0.881349 0.423076 0.397696
Cl1   Cl    Cl    0.271333 0.019188 0.581556 -0.521692
S6    S     S_3+6 0.026982 0.306151 0.387766 0.260702
O24   O     O_2   0.940918 0.264407 0.285233 -0.166625
O25   O     O_2   0.186861 0.323096 0.343288 -0.198719
O26   O     O_3   0.026271 0.181486 0.475424 -0.425987
H7    H     H_    0.074513 0.099369 0.424200 0.377666
S7    S     S_3+6 0.990526 0.685495 0.628196 0.259643
O27   O     O_2   0.871302 0.778097 0.598695 -0.225741
O28   O     O_2   0.934844 0.629100 0.734706 -0.119532
O29   O     O_3   0.137059 0.784792 0.654122 -0.458761
H8    H     H_    0.090820 0.867275 0.707155 0.425201
S8    S     S_3+6 0.266374 0.734019 0.900639 0.161981
O30   O     O_2   0.246403 0.861186 0.989151 -0.117243
O31   O     O_2   0.113041 0.724689 0.864266 -0.144211
O32   O     O_3   0.379391 0.775867 0.785629 -0.540987
H9    H     H_    0.335133 0.864763 0.768687 0.423968
S9    S     S_3+6 0.354301 0.788294 0.211181 0.145616
O33   O     O_2   0.488728 0.778173 0.275481 -0.355547
O34   O     O_2   0.354583 0.926534 0.164272 -0.101815
O35   O     O_3   0.226341 0.827833 0.329019 -0.509145
H10   H     H_    0.244610 0.926898 0.358734 0.382107
S10   S     S_3+6 0.148678 0.594328 0.181768 0.185924
O36   O     O_2   0.074501 0.463293 0.143838 -0.135317
O37   O     O_2   0.115596 0.605606 0.312052 -0.211433
O38   O     O_3   0.067916 0.741417 0.145941 -0.433037
H11   H     H_    0.028768 0.803486 0.217196 0.442267
Cl2   Cl    Cl    0.314991 0.297161 0.119673 -0.330428
Cl3   Cl    Cl    0.791071 0.450919 0.866165 -0.344393
Cl4   Cl    Cl    0.670300 0.710576 0.819590 -0.411525
S11   S     S_3+6 0.655521 0.821538 0.061510 0.251517
O39   O     O_2   0.661399 0.911436 0.176615 -0.084362
O40   O     O_2   0.799712 0.862096 0.993208 -0.110113
O41   O     O_3   0.518225 0.872167 0.988877 -0.450456
H12   H     H_    0.565427 0.928110 0.929365 0.447900

loop_
_geom_bond_atom_site_label_1
_geom_bond_atom_site_label_2
_ccdc_geom_bond_type
O17   H4    S    
S6    O24   D    
O1    Zn1   S    
C3    Cl2   S    
S2    O14   S    
C9    O8    A    
O38   H11   S    
C3    S4    S    
C1    O1    A    
S10   O37   D    
C1    C5    S    
N2    Zn1   S    
S1    O9    D    
O7    Zn1   S    
S3    O15   D    
C13   Cl4   S    
C8    O6    A    
C4    C13   S    
S9    O34   D    
C3    C12   S    
C4    S2    S    
C7    C14   S    
N1    N2    D    
S10   O38   S    
C8    O5    A    
O6    Zn2   S    
O2    Zn2   S    
N1    Zn2   S    
S5    O22   D    
O4    Zn2   S    
C13   Cl3   S    
S7    O27   D    
C13   C14   S    
C2    C11   S    
S5    O23   S    
C5    S5    S    
S6    O25   D    
C1    O2    A    
S7    O28   D    
S10   O36   D    
O32   H9    S    
S8    O32   S    
S3    O17   S    
C10   C14   S    
C6    C8    S    
O41   H12   S    
O23   H6    S    
S8    O31   D    
S9    O35   S    
C2    C4    S    
S4    O18   D    
O29   H8    S    
O11   H2    S    
C12   H1    S    
S2    O12   D    
S4    O19   D    
N2    S7    S    
S5    O21   D    
C12   C14   S    
S11   O39   D    
S11   O40   D    
C6    Cl1   S    
C10   S1    S    
O20   H5    S    
O14   H3    S    
S7    O29   S    
S1    O11   S    
C10   S8    S    
O35   H10   S    
C11   S10   S    
C11   S9    S    
C9    O7    A    
O8    Zn2   S    
S11   O41   S    
S8    O30   D    
S1    O10   D    
C2    C3    S    
C7    O4    A    
S3    O16   D    
O26   H7    S    
C5    C6    D    
O3    Zn1   S    
S2    O13   D    
C12   S3    S    
S9    O33   D    
S4    O20   S    
N1    S6    S    
C10   C11   S    
C4    S11   S    
C7    O3    A    
O5    Zn1   S    
C2    C9    S    
S6    O26   S    
