data_mof_unit_25805.cif
_audit_creation_date              2012-12-10T17:42:44-0500
_audit_creation_method            fapswitch 2.2
_symmetry_space_group_name_H-M    P1
_symmetry_Int_Tables_number       1
_space_group_crystal_system       triclinic
_cell_length_a                    9.889537
_cell_length_b                    10.721664
_cell_length_c                    13.258252
_cell_angle_alpha                 91.782301
_cell_angle_beta                  71.967194
_cell_angle_gamma                 88.471084
_cell_volume                      1335.12693017

loop_
_atom_site_label
_atom_site_type_symbol
_atom_type_description
_atom_site_fract_x
_atom_site_fract_y
_atom_site_fract_z
_atom_type_partial_charge
C1    C     C_R   0.498812 0.740519 0.495749 0.872782
C2    C     C_R   0.388500 0.440693 0.810228 -0.128451
C3    C     C_R   0.229124 0.899797 0.518890 -0.191627
C4    C     C_R   0.425508 0.481500 0.700454 0.838258
C5    C     C_R   0.101760 0.968330 0.565632 -0.166601
C6    C     C_R   0.102757 0.082743 0.617266 -0.148183
C7    C     C_R   0.232160 0.134468 0.611964 -0.141612
C8    C     C_R   0.362208 0.070718 0.555402 0.099588
C9    C     C_R   0.360905 0.945666 0.522764 0.101778
C10   C     C_R   0.492452 0.874909 0.494049 -0.132089
C11   C     C_R   0.621366 0.933990 0.478372 -0.226459
C12   C     C_R   0.450507 0.434937 0.974125 0.100060
C13   C     C_R   0.622219 0.061044 0.490211 -0.209650
C14   C     C_R   0.493559 0.129773 0.525244 -0.129966
C15   C     C_R   0.797629 0.663381 0.641892 -0.265643
C16   C     C_R   0.497395 0.261342 0.510063 0.870624
C17   C     C_R   0.835764 0.741410 0.715278 0.496102
C18   C     C_R   0.976840 0.739101 0.713380 -0.261472
C19   C     C_R   0.077360 0.658880 0.643120 -0.244151
C20   C     C_R   0.041026 0.578662 0.570593 0.046032
C21   C     C_R   0.896898 0.579760 0.570149 0.102259
C22   C     C_R   0.957181 0.421712 0.434375 -0.287657
C23   C     C_R   0.493569 0.428591 0.862485 0.086451
C24   C     C_R   0.103630 0.421002 0.432935 0.549318
C25   C     C_R   0.577255 0.499758 0.297282 0.903922
C26   C     C_R   0.791521 0.535518 0.013043 0.197142
C27   C     C_R   0.621626 0.496012 0.182801 -0.105004
C28   C     C_R   0.246348 0.421482 0.866322 -0.202227
C29   C     C_R   0.204549 0.412014 0.975805 -0.145128
C30   C     C_R   0.303681 0.425711 0.030107 -0.202278
C31   C     C_3   0.604861 0.789255 0.829929 0.068785
C32   C     C_3   0.499220 0.857975 0.785546 -0.340508
C33   C     C_3   0.347576 0.816060 0.835387 -0.950267
C34   C     C_R   0.555686 0.457475 0.024350 0.028187
C35   C     C_3   0.172780 0.262046 0.294801 0.033940
C36   C     C_3   0.107623 0.142945 0.347348 -0.341683
C37   C     C_3   0.049963 0.063761 0.273486 -0.966694
C38   C     C_3   0.920356 0.604665 0.953042 -0.941943
C39   C     C_R   0.696692 0.484658 0.962991 0.154416
C40   C     C_R   0.739957 0.453425 0.854621 -0.266072
C41   C     C_R   0.640872 0.414595 0.807434 -0.216204
C42   C     C_R   0.524099 0.456717 0.133586 -0.267141
C43   C     C_R   0.753538 0.538177 0.123588 -0.219180
H1    H     H_    0.824264 0.576818 0.163681 0.158720
H2    H     H_    0.183600 0.665066 0.645571 0.238544
H3    H     H_    0.850134 0.454217 0.806128 0.162235
H4    H     H_    0.424433 0.423063 0.182158 0.181967
H5    H     H_    0.167770 0.416165 0.825212 0.150528
H6    H     H_    0.261410 0.431399 0.115303 0.124050
H7    H     H_    0.093517 0.400987 0.019443 0.155772
H8    H     H_    0.681973 0.376622 0.726914 0.193729
H9    H     H_    0.722687 0.882237 0.454546 0.173670
H10   H     H_    0.575562 0.813285 0.916311 0.170381
H11   H     H_    0.595523 0.686298 0.823604 0.145142
H12   H     H_    0.221339 0.815355 0.475265 0.182228
H13   H     H_    0.502262 0.960136 0.801314 0.236477
H14   H     H_    0.530096 0.840620 0.698442 0.222574
H15   H     H_    0.341216 0.714655 0.819123 0.264825
H16   H     H_    0.274568 0.867488 0.800863 0.267009
H17   H     H_    0.312505 0.835690 0.922575 0.266325
H18   H     H_    0.272012 0.233224 0.230551 0.166192
H19   H     H_    0.106041 0.310986 0.253482 0.115532
H20   H     H_    0.191164 0.087485 0.367884 0.245552
H21   H     H_    0.019917 0.166170 0.421825 0.214452
H22   H     H_    0.963598 0.116449 0.254070 0.267306
H23   H     H_    0.002073 0.932244 0.562066 0.162626
H24   H     H_    0.005939 0.977480 0.313310 0.261858
H25   H     H_    0.136330 0.037035 0.198998 0.269574
H26   H     H_    0.883813 0.693322 0.927430 0.262423
H27   H     H_    0.988261 0.628253 0.003275 0.245579
H28   H     H_    0.986711 0.550166 0.882639 0.238437
H29   H     H_    0.003776 0.133990 0.657055 0.143879
H30   H     H_    0.229857 0.225067 0.650978 0.142636
H31   H     H_    0.723864 0.105469 0.468994 0.173395
H32   H     H_    0.920323 0.358950 0.384275 0.162576
H33   H     H_    0.690837 0.671412 0.642009 0.217168
H34   H     H_    0.009981 0.802127 0.765935 0.181031
N1    N     N_R   0.856860 0.501200 0.500990 -0.121827
N2    N     N_R   0.142450 0.501280 0.501020 -0.147698
O1    O     O_R   0.385310 0.683220 0.500000 -0.648068
O2    O     O_3   0.211737 0.341092 0.367790 -0.609170
O3    O     O_R   0.614640 0.683250 0.500010 -0.633826
O4    O     O_R   0.328400 0.499950 0.653610 -0.644393
O5    O     O_R   0.557730 0.499970 0.653620 -0.642348
O6    O     O_R   0.385360 0.316750 0.499990 -0.573239
O7    O     O_R   0.614690 0.316780 0.500000 -0.630854
O8    O     O_R   0.442270 0.500030 0.346380 -0.577534
O9    O     O_R   0.671600 0.500050 0.346390 -0.618503
O10   O     O_3   0.743794 0.831493 0.781672 -0.650541
Zn1   Zn    Zn3+2 0.346880 0.499980 0.499990 0.961911
Zn2   Zn    Zn3+2 0.653120 0.500020 0.500010 0.919944

loop_
_geom_bond_atom_site_label_1
_geom_bond_atom_site_label_2
_ccdc_geom_bond_type
C38   H27   S    
C33   H15   S    
C35   C36   S    
C34   C42   A    
C24   O2    S    
C35   O2    S    
C7    C8    A    
C7    H30   S    
C6    H29   S    
C12   C23   A    
C22   H32   S    
C36   C37   S    
O7    Zn2   S    
C5    C6    A    
C26   C39   A    
C37   H25   S    
C25   O8    A    
C18   C19   A    
N2    Zn1   S    
C11   H9    S    
C3    H12   S    
C28   H5    S    
C19   C20   A    
C8    C9    A    
C31   O10   S    
C37   H22   S    
C21   N1    A    
O5    Zn2   S    
C36   H20   S    
C9    C10   A    
C15   H33   S    
C38   H26   S    
C33   H16   S    
C13   C14   A    
C16   O7    A    
C32   H14   S    
C26   C43   A    
C29   H7    S    
C34   C39   A    
C17   O10   S    
C22   N1    A    
C39   C40   A    
C26   C38   S    
C1    O3    A    
C25   O9    A    
O3    Zn2   S    
C2    C4    S    
C43   H1    S    
C29   C30   A    
C3    C9    A    
C24   N2    A    
C31   C32   S    
C4    O5    A    
O9    Zn2   S    
C17   C18   A    
C35   H18   S    
C31   H10   S    
C40   C41   A    
C30   H6    S    
C33   H17   S    
C16   O6    A    
C22   C24   A    
C40   H3    S    
C12   C34   A    
C15   C17   A    
O4    Zn1   S    
C38   H28   S    
C28   C29   A    
C8    C14   A    
C20   N2    A    
C12   C30   A    
C1    C10   S    
C5    H23   S    
C3    C5    A    
O6    Zn1   S    
C19   H2    S    
C6    C7    A    
N1    Zn2   S    
C25   C27   S    
C23   C41   A    
C32   C33   S    
C11   C13   A    
C27   C42   A    
C4    O4    A    
C18   H34   S    
C37   H24   S    
C32   H13   S    
C35   H19   S    
C14   C16   S    
C42   H4    S    
C31   H11   S    
O1    Zn1   S    
C10   C11   A    
C27   C43   A    
C15   C21   A    
C20   C21   A    
O8    Zn1   S    
C2    C23   A    
C1    O1    A    
C2    C28   A    
C36   H21   S    
C41   H8    S    
C13   H31   S    
