data_mof_unit_22121.cif
_audit_creation_date              2012-12-10T16:58:32-0500
_audit_creation_method            fapswitch 2.2
_symmetry_space_group_name_H-M    P1
_symmetry_Int_Tables_number       1
_space_group_crystal_system       triclinic
_cell_length_a                    7.763865
_cell_length_b                    8.559604
_cell_length_c                    23.432057
_cell_angle_alpha                 91.396658
_cell_angle_beta                  85.640076
_cell_angle_gamma                 93.544488
_cell_volume                      1549.41240309

loop_
_atom_site_label
_atom_site_type_symbol
_atom_type_description
_atom_site_fract_x
_atom_site_fract_y
_atom_site_fract_z
_atom_type_partial_charge
C1    C     C_R   0.545705 0.794727 0.498536 0.932106
C2    C     C_R   0.650861 0.501955 0.292853 -0.244527
C3    C     C_R   0.349850 0.497262 0.766267 -0.083710
C4    C     C_R   0.650148 0.502652 0.233732 -0.083709
C5    C     C_R   0.506779 0.498207 0.791602 0.199607
C6    C     C_R   0.493220 0.501694 0.208397 0.199613
C7    C     C_2   0.569919 0.958112 0.497674 -0.331054
C8    C     C_2   0.430081 0.041888 0.502326 -0.331053
C9    C     C_R   0.502057 0.500199 0.610665 0.892176
C10   C     C_R   0.497943 0.499798 0.389335 0.892175
C11   C     C_R   0.446506 0.365262 0.119738 0.570642
C12   C     C_R   0.454295 0.205273 0.501463 0.932101
C13   C     C_R   0.553490 0.634635 0.880261 0.570639
C14   C     C_R   0.541457 0.636601 0.119619 0.582363
C15   C     C_R   0.458541 0.363295 0.880380 0.582368
C16   C     C_R   0.545430 0.638747 0.060050 -0.091003
C17   C     C_R   0.454571 0.361147 0.939948 -0.091002
C18   C     C_R   0.498243 0.499920 0.030032 -0.095300
C19   C     C_R   0.501759 0.499974 0.969967 -0.095300
C20   C     C_R   0.447670 0.361173 0.059944 -0.153160
C21   C     C_R   0.552330 0.638721 0.940055 -0.153160
C22   C     C_R   0.595622 0.775957 0.030101 -0.160082
C23   C     C_R   0.663385 0.499690 0.758140 -0.175374
C24   C     C_R   0.404380 0.223936 0.969898 -0.160080
C25   C     C_R   0.599298 0.776542 0.970686 0.664109
C26   C     C_R   0.400703 0.223352 0.029313 0.664109
C27   C     C_R   0.336616 0.500233 0.241860 -0.175378
C28   C     C_R   0.663810 0.500206 0.698893 0.639159
C29   C     C_R   0.336190 0.499753 0.301107 0.639155
C30   C     C_R   0.505852 0.499439 0.672904 -0.194184
C31   C     C_R   0.494147 0.500535 0.327096 -0.194187
C32   C     C_R   0.349137 0.497996 0.707147 -0.244528
F1    F     F_    0.649428 0.912277 0.943698 -0.610946
F2    F     F_    0.350573 0.087617 0.056301 -0.610946
F3    F     F_    0.818279 0.502533 0.667529 -0.618814
F4    F     F_    0.181722 0.497454 0.332472 -0.618810
F5    F     F_    0.030032 0.355826 0.449328 -0.525564
F6    F     F_    0.969968 0.644174 0.550672 -0.525563
H1    H     H_    0.632597 0.883569 0.052532 0.236611
H2    H     H_    0.297912 0.991089 0.506782 0.209763
H3    H     H_    0.367405 0.116324 0.947468 0.236611
H4    H     H_    0.784554 0.500492 0.778231 0.167549
H5    H     H_    0.215447 0.499426 0.221769 0.167550
H6    H     H_    0.225843 0.497092 0.688371 0.237171
H7    H     H_    0.774152 0.502869 0.311629 0.237173
H8    H     H_    0.228793 0.496386 0.792504 0.166138
H9    H     H_    0.771204 0.503517 0.207495 0.166136
H10   H     H_    0.702088 0.008911 0.493218 0.209763
N1    N     N_R   0.493044 0.501346 0.147787 -0.359927
N2    N     N_R   0.506955 0.498551 0.852212 -0.359926
N3    N     N_2   0.950330 0.457950 0.484560 0.268711
N4    N     N_2   0.049670 0.542050 0.515440 0.268711
O1    O     O_R   0.389250 0.738570 0.503790 -0.615100
O2    O     O_2   0.599186 0.765006 0.850116 -0.439716
O3    O     O_2   0.585001 0.768348 0.149390 -0.498593
O4    O     O_2   0.414993 0.231550 0.850609 -0.498594
O5    O     O_R   0.610750 0.261430 0.496210 -0.615101
O6    O     O_R   0.678390 0.711620 0.493890 -0.584289
O7    O     O_R   0.321610 0.288380 0.506110 -0.584291
O8    O     O_R   0.355400 0.513520 0.588790 -0.614696
O9    O     O_R   0.644600 0.486480 0.411210 -0.614697
O10   O     O_R   0.644550 0.486570 0.578900 -0.530191
O11   O     O_R   0.355450 0.513430 0.421100 -0.530188
O12   O     O_2   0.400803 0.234894 0.149884 -0.439717
Zn1   Zn    Zn3+2 0.306930 0.518000 0.506610 1.160126
Zn2   Zn    Zn3+2 0.693070 0.482000 0.493390 1.160125

loop_
_geom_bond_atom_site_label_1
_geom_bond_atom_site_label_2
_ccdc_geom_bond_type
C2    C4    A    
O11   Zn1   S    
C1    O6    A    
C11   N1    A    
C26   F2    S    
C27   C29   A    
O1    Zn1   S    
C3    H8    S    
C6    C27   A    
C5    C23   A    
O5    Zn2   S    
C8    C12   S    
C9    O8    A    
C7    H10   S    
C28   C30   A    
C14   O3    S    
C32   H6    S    
C13   C21   A    
C7    C8    D    
C29   C31   A    
C23   C28   A    
C15   O4    S    
C30   C32   A    
C24   H3    S    
C29   F4    S    
O6    Zn2   S    
C23   H4    S    
C20   C26   A    
C9    C30   S    
C12   O5    A    
C10   C31   S    
C4    C6    A    
C13   N2    A    
C17   C19   A    
C24   C26   A    
O8    Zn1   S    
C11   O12   S    
C18   C20   A    
C6    N1    S    
C3    C32   A    
F5    N3    S    
C14   C16   A    
C11   C20   A    
C17   C24   A    
F6    N4    S    
C2    H7    S    
C22   H1    S    
C9    O10   A    
C10   O9    A    
C27   H5    S    
C5    N2    S    
O10   Zn2   S    
N3    N4    D    
C14   N1    A    
C16   C18   A    
C13   O2    S    
C15   N2    A    
C25   F1    S    
C15   C17   A    
C1    O1    A    
C18   C19   A    
C21   C25   A    
C4    H9    S    
C8    H2    S    
C19   C21   A    
C1    C7    S    
C12   O7    A    
O9    Zn2   S    
C22   C25   A    
O7    Zn1   S    
N4    Zn1   S    
C10   O11   A    
C28   F3    S    
C16   C22   A    
C2    C31   A    
C3    C5    A    
N3    Zn2   S    
