data_mof_unit_6085.cif
_audit_creation_date              2013-03-05T16:13:33-0500
_audit_creation_method            fapswitch 2.2
_symmetry_space_group_name_H-M    P1
_symmetry_Int_Tables_number       1
_space_group_crystal_system       triclinic
_cell_length_a                    10.667233
_cell_length_b                    9.842737
_cell_length_c                    10.672757
_cell_angle_alpha                 89.946225
_cell_angle_beta                  90.270309
_cell_angle_gamma                 89.996663
_cell_volume                      1120.57068874

loop_
_atom_site_label
_atom_site_type_symbol
_atom_site_description
_atom_site_fract_x
_atom_site_fract_y
_atom_site_fract_z
_atom_type_partial_charge
O1    O     O_R   0.316770 0.614620 0.499990 -0.589272
O2    O     O_R   0.683230 0.614620 0.500010 -0.597256
O3    O     O_R   0.316800 0.385290 0.500000 -0.621263
O4    O     O_R   0.683200 0.385290 0.500000 -0.620517
C1    C     C_R   0.260174 0.500051 0.501985 0.931086
C2    C     C_R   0.739856 0.499903 0.502506 0.953414
O5    O     O_R   0.500000 0.614690 0.316780 -0.631458
O6    O     O_R   0.500000 0.614690 0.683220 -0.594916
O7    O     O_R   0.500020 0.385360 0.316780 -0.635571
O8    O     O_R   0.499980 0.385360 0.683220 -0.637223
C3    C     C_R   0.495254 0.499998 0.259833 0.870928
C4    C     C_R   0.495560 0.499958 0.740177 0.960484
Zn1   Zn    Zn3+2 0.500000 0.653120 0.500000 1.013764
Zn2   Zn    Zn3+2 0.500000 0.346880 0.500000 0.968668
C5    C     C_R   0.458256 0.621234 0.063738 0.126353
C6    C     C_R   0.458452 0.621293 0.935864 0.221111
C7    C     C_R   0.472566 0.499344 0.128594 -0.103537
C8    C     C_R   0.473197 0.499373 0.871289 -0.077002
C9    C     C_R   0.460328 0.375516 0.064665 -0.212543
C10   C     C_R   0.460720 0.375534 0.935221 -0.200170
H1    H     H_    0.460626 0.278899 0.113392 0.171849
H2    H     H_    0.461267 0.278938 0.886638 0.177098
C11   C     C_3   0.529903 0.751798 0.929279 -0.463021
C12   C     C_3   0.530135 0.751349 0.071434 -0.485975
H3    H     H_    0.624871 0.739886 0.888693 0.254864
H4    H     H_    0.473579 0.834980 0.112393 0.205347
H5    H     H_    0.472904 0.835414 0.888191 0.219016
H6    H     H_    0.625185 0.738083 0.112973 0.224309
C13   C     C_R   0.063773 0.408023 0.431916 -0.200839
C14   C     C_R   0.935515 0.407918 0.432258 -0.204993
H7    H     H_    0.113103 0.338088 0.371099 0.171370
H8    H     H_    0.885479 0.338150 0.371404 0.177006
C15   C     C_R   0.872282 0.499559 0.508660 -0.184495
C16   C     C_R   0.127855 0.500389 0.507350 -0.181838
C17   C     C_R   0.935547 0.590876 0.588046 0.233597
C18   C     C_R   0.065543 0.592145 0.586356 0.232347
C19   C     C_R   0.569763 0.071831 0.585520 -0.055812
C20   C     C_R   0.430065 0.072029 0.414617 -0.056949
H9    H     H_    0.625584 0.126226 0.653882 0.146441
H10   H     H_    0.374098 0.126594 0.346380 0.124705
C21   C     C_R   0.569683 0.927952 0.585573 -0.032408
C22   C     C_R   0.430067 0.928142 0.414622 -0.038086
H11   H     H_    0.625261 0.873372 0.654066 0.172855
H12   H     H_    0.374077 0.873701 0.346430 0.129275
N1    N     N_R   0.500000 0.857200 0.500000 -0.087403
N2    N     N_R   0.500000 0.142810 0.500000 -0.088204
N3    N     N_R   0.868695 0.672283 0.677140 0.217606
O9    O     O_R   0.885301 0.803127 0.681600 -0.354839
O10   O     O_R   0.792574 0.614814 0.755905 -0.443325
N4    N     N_R   0.133783 0.677311 0.671654 0.237764
O11   O     O_R   0.196767 0.623207 0.763644 -0.410282
O12   O     O_R   0.144581 0.806699 0.649166 -0.332059

loop_
_geom_bond_atom_site_label_1
_geom_bond_atom_site_label_2
_geom_bond_distance
_ccdc_geom_bond_type
C9    H1    1.083452 S    
N4    O12   1.300942 A    
O7    Zn2   1.991456 S    
O6    Zn1   1.991362 S    
C11   H5    1.111792 S    
C21   H11   1.081479 S    
O5    C3    1.283490 A    
C17   C18   1.386960 A    
C2    C15   1.413844 S    
O6    C4    1.282975 A    
C11   C12   1.517176 S    
C17   N3    1.436145 S    
C1    C16   1.412912 S    
N4    O11   1.300636 A    
C19   H9    1.081777 S    
O4    Zn2   1.990492 S    
O2    C2    1.280711 A    
C14   H8    1.084386 S    
O7    C3    1.282017 A    
C13   C14   1.368184 A    
O3    Zn2   1.990448 S    
C22   H12   1.081764 S    
O1    C1    1.279348 A    
O8    C4    1.282804 A    
C6    C8    1.393677 A    
C5    C12   1.494836 S    
C20   H10   1.081846 S    
C16   C18   1.405396 A    
C10   H2    1.083428 S    
C20   C22   1.416238 A    
C6    C11   1.495434 S    
C8    C10   1.402982 A    
C11   H3    1.109896 S    
C19   C21   1.416157 A    
C15   C17   1.406144 A    
C20   N2    1.366440 A    
O4    C2    1.280068 A    
O1    Zn1   1.990975 S    
C5    C6    1.364779 A    
N3    O9    1.300890 A    
C12   H6    1.112318 S    
O5    Zn1   1.992059 S    
C18   N4    1.434080 S    
Zn1   N1    2.008706 S    
N3    O10   1.300603 A    
O8    Zn2   1.992154 S    
C4    C8    1.420627 S    
C5    C7    1.392555 A    
O2    Zn1   1.990931 S    
C21   N1    1.366191 A    
C3    C7    1.420328 S    
Zn2   N2    2.008608 S    
C14   C15   1.392835 A    
C7    C9    1.403150 A    
C19   N2    1.366486 A    
C13   H7    1.084455 S    
C13   C16   1.392202 A    
C9    C10   1.381548 A    
C12   H4    1.111659 S    
O3    C1    1.281143 A    
C22   N1    1.366282 A    
