data_mof_unit_24897.cif
_audit_creation_date              2012-12-11T15:59:25-0500
_audit_creation_method            fapswitch 2.2
_symmetry_space_group_name_H-M    P1
_symmetry_Int_Tables_number       1
_space_group_crystal_system       triclinic
_cell_length_a                    10.748629
_cell_length_b                    10.798436
_cell_length_c                    17.014295
_cell_angle_alpha                 100.058438
_cell_angle_beta                  100.154317
_cell_angle_gamma                 59.989072
_cell_volume                      1674.58711739

loop_
_atom_site_label
_atom_site_type_symbol
_atom_type_description
_atom_site_fract_x
_atom_site_fract_y
_atom_site_fract_z
_atom_type_partial_charge
C1    C     C_R   0.352758 0.779983 0.402907 0.555450
C2    C     C_R   0.848975 0.319020 0.330168 -0.007515
C3    C     C_R   0.316966 0.865481 0.170486 0.011115
C4    C     C_R   0.365378 0.342778 0.358807 0.570106
C5    C     C_R   0.451468 0.822180 0.216508 0.012283
C6    C     C_R   0.455728 0.833667 0.300637 0.011958
C7    C     C_R   0.200657 0.901623 0.288432 -0.153099
C8    C     C_R   0.192016 0.909842 0.208193 -0.138411
C9    C     C_R   0.581357 0.766282 0.181593 -0.115139
C10   C     C_R   0.710216 0.736446 0.229806 -0.123699
C11   C     C_R   0.710082 0.769748 0.312788 0.054949
C12   C     C_R   0.799959 0.246194 0.189153 0.050864
C13   C     C_R   0.583450 0.819835 0.347878 -0.038807
C14   C     C_R   0.333279 0.853696 0.334097 -0.006642
C15   C     C_R   0.295466 0.288267 0.800600 -0.000821
C16   C     C_R   0.779483 0.372694 0.404479 0.552510
C17   C     C_R   0.400861 0.176677 0.754459 -0.012824
C18   C     C_R   0.469418 0.209362 0.705769 0.072712
C19   C     C_R   0.272538 0.459204 0.717536 -0.160189
C20   C     C_R   0.230278 0.429991 0.781384 -0.131213
C21   C     C_R   0.443463 0.032890 0.759656 -0.132893
C22   C     C_R   0.568846 0.921543 0.730537 -0.055437
C23   C     C_R   0.816061 0.226292 0.270891 -0.006935
C24   C     C_R   0.656023 0.952737 0.696237 0.106767
C25   C     C_R   0.609550 0.097258 0.685644 0.137722
C26   C     C_R   0.390089 0.350135 0.678130 0.012338
C27   C     C_1   0.848197 0.329276 0.705478 -0.024953
C28   C     C_R   0.382906 0.712122 0.631111 0.530541
C29   C     C_1   0.895192 0.293452 0.772147 -0.051240
C30   C     C_1   0.361081 0.757507 0.714283 -0.072332
C31   C     C_1   0.328325 0.803804 0.781700 -0.066620
C32   C     C_R   0.896618 0.309491 0.089262 0.582037
C33   C     C_R   0.290722 0.260548 0.122016 0.573292
C34   C     C_R   0.909295 0.394010 0.308856 -0.143400
C35   C     C_R   0.291986 0.896110 0.087588 0.536208
C36   C     C_R   0.944075 0.272691 0.854822 0.542080
C37   C     C_R   0.278975 0.256808 0.876943 0.532690
C38   C     C_R   0.282610 0.877657 0.858675 0.535820
C39   C     C_R   0.410318 0.374776 0.600513 0.551549
C40   C     C_R   0.778178 0.378583 0.628920 0.546512
C41   C     C_1   0.323991 0.316375 0.276957 -0.034446
C42   C     C_1   0.304382 0.291587 0.206191 -0.040289
C43   C     C_R   0.855982 0.328282 0.168796 0.021110
C44   C     C_R   0.916298 0.395529 0.229229 -0.161327
C45   C     C_R   0.734642 0.178044 0.131190 0.117289
C46   C     C_R   0.715376 0.070566 0.153072 -0.090542
C47   C     C_R   0.748628 0.039219 0.231984 -0.138809
C48   C     C_R   0.798139 0.115318 0.290527 -0.093447
Cr1   Cr    Cr6+3 0.608100 0.610860 0.522250 1.036500
Cr2   Cr    Cr6+3 0.288890 0.599990 0.488420 1.059456
Cr3   Cr    Cr6+3 0.603040 0.289190 0.489390 1.015057
Cr4   Cr    Cr6+3 0.053960 0.052250 0.967380 1.012487
Cr5   Cr    Cr6+3 0.059890 0.373160 0.992710 1.015692
Cr6   Cr    Cr6+3 0.373370 0.061690 0.991710 0.978497
H1    H     H_    0.946181 0.455685 0.353924 0.175054
H2    H     H_    0.732405 0.958421 0.248693 0.153440
H3    H     H_    0.827788 0.081767 0.350347 0.163948
H4    H     H_    0.105120 0.923050 0.313581 0.150584
H5    H     H_    0.584915 0.743739 0.117313 0.139568
H6    H     H_    0.085285 0.949748 0.175587 0.159348
H7    H     H_    0.792837 0.834920 0.611305 0.238989
H8    H     H_    0.875038 0.853942 0.704063 0.230748
H9    H     H_    0.750990 0.069744 0.611912 0.250123
H10   H     H_    0.798124 0.099236 0.710457 0.220703
H11   H     H_    0.720498 0.132565 0.010287 0.238494
H12   H     H_    0.808175 0.697517 0.202112 0.132762
H13   H     H_    0.567619 0.268285 0.046114 0.273529
H14   H     H_    0.585596 0.850493 0.411895 0.151456
H15   H     H_    0.213844 0.566935 0.699056 0.142500
H16   H     H_    0.377074 0.009373 0.786397 0.137940
H17   H     H_    0.146964 0.517583 0.815233 0.153892
H18   H     H_    0.601811 0.811518 0.738262 0.159893
H19   H     H_    0.970911 0.449055 0.215197 0.148212
H20   H     H_    0.674604 0.010941 0.108778 0.139733
I1    I     I_    0.897568 0.755066 0.385192 -0.452574
N1    N     N_3   0.791420 0.836566 0.672754 -0.619834
N2    N     N_3   0.711495 0.130991 0.665488 -0.585033
N3    N     N_3   0.679900 0.223275 0.052089 -0.594321
O1    O     O_R   0.749810 0.499790 0.438040 -0.491849
O2    O     O_R   0.411730 0.181020 0.091530 -0.526549
O3    O     O_R   0.365010 0.944360 0.063320 -0.523103
O4    O     O_R   0.477660 0.726260 0.439290 -0.504743
O5    O     O_R   0.159380 0.906670 0.876210 -0.506192
O6    O     O_R   0.930820 0.177420 0.886730 -0.480818
O7    O     O_R   0.910360 0.395420 0.895720 -0.501833
O8    O     O_R   0.186010 0.361730 0.919870 -0.502444
O9    O     O_R   0.400000 0.173010 0.914630 -0.505759
O10   O     O_R   0.354140 0.936940 0.899340 -0.524219
O11   O     O_3   0.162410 0.162370 0.983930 -0.307527
O12   O     O_R   0.298970 0.468800 0.557390 -0.501316
O13   O     O_R   0.260150 0.743000 0.412270 -0.483779
O14   O     O_R   0.297740 0.466550 0.394720 -0.467630
O15   O     O_R   0.488080 0.253500 0.386430 -0.505977
O16   O     O_R   0.722670 0.303800 0.421940 -0.511073
O17   O     O_R   0.751130 0.502220 0.613520 -0.498664
O18   O     O_R   0.478890 0.728510 0.601960 -0.489660
O19   O     O_R   0.261470 0.745430 0.587750 -0.503309
O20   O     O_R   0.489400 0.255930 0.561910 -0.495065
O21   O     O_R   0.723890 0.306050 0.584610 -0.504122
O22   O     O_3   0.500010 0.500010 0.500020 -0.290073
O23   O     O_R   0.171100 0.914680 0.053100 -0.516412
O24   O     O_R   0.941680 0.184840 0.050710 -0.480141
O25   O     O_R   0.922080 0.403420 0.072610 -0.535858
O26   O     O_R   0.196880 0.369150 0.083850 -0.485601

loop_
_geom_bond_atom_site_label_1
_geom_bond_atom_site_label_2
_ccdc_geom_bond_type
C28   O19   A    
C38   O5    A    
C27   C29   T    
C33   O26   A    
C41   C42   T    
C19   C20   A    
C18   C26   A    
C40   O21   A    
C35   O3    A    
C7    C8    A    
C45   C46   A    
C18   C25   A    
C29   C36   S    
Cr4   O24   S    
C25   N2    S    
C33   C42   S    
C36   O6    A    
C12   C43   A    
C30   C31   T    
C26   C39   S    
C4    C41   S    
Cr5   O26   S    
H10   N2    S    
Cr4   O6    S    
C19   C26   A    
C15   C37   S    
Cr2   O12   S    
C7    C14   A    
C20   H17   S    
Cr5   O8    S    
C23   C48   A    
C2    C16   S    
C9    C10   A    
C7    H4    S    
C2    C34   A    
Cr3   O20   S    
C34   H1    S    
C1    O13   A    
C21   C22   A    
H8    N1    S    
Cr4   O11   S    
H13   N3    S    
C22   H18   S    
Cr6   O2    S    
C10   H12   S    
H7    N1    S    
Cr3   O21   S    
C15   C20   A    
Cr4   O23   S    
C37   O8    A    
C48   H3    S    
C34   C44   A    
C24   C25   A    
Cr6   O11   S    
C3    C8    A    
C24   N1    S    
C39   O20   A    
C3    C5    A    
C1    O4    A    
C17   C21   A    
Cr1   O1    S    
C38   O10   A    
C9    H5    S    
Cr1   O4    S    
Cr4   O5    S    
C43   C44   A    
C5    C9    A    
C6    C14   A    
C47   C48   A    
C12   C23   A    
C3    C35   S    
C27   C40   S    
C17   C18   A    
C32   O25   A    
Cr1   O17   S    
C45   N3    S    
Cr3   O15   S    
Cr6   O9    S    
Cr2   O14   S    
Cr5   O11   S    
C32   O24   A    
C19   H15   S    
C40   O17   A    
C46   H20   S    
H9    N2    S    
Cr3   O22   S    
C15   C17   A    
C46   C47   A    
Cr2   O19   S    
H11   N3    S    
C39   O12   A    
C16   O16   A    
C37   O9    A    
C12   C45   A    
C35   O23   A    
C33   O2    A    
C36   O7    A    
Cr2   O22   S    
C31   C38   S    
C21   H16   S    
C28   O18   A    
C16   O1    A    
C28   C30   S    
C11   I1    S    
C8    H6    S    
C6    C13   A    
Cr6   O10   S    
C11   C13   A    
C5    C6    A    
Cr5   O25   S    
C32   C43   S    
C22   C24   A    
Cr1   O18   S    
C44   H19   S    
C10   C11   A    
Cr3   O16   S    
C4    O15   A    
Cr2   O13   S    
C2    C23   A    
Cr5   O7    S    
C1    C14   S    
C4    O14   A    
Cr6   O3    S    
C47   H2    S    
Cr1   O22   S    
C13   H14   S    
