data_mof_unit_12568.cif
_audit_creation_date              2013-03-05T15:49:33-0500
_audit_creation_method            fapswitch 2.2
_symmetry_space_group_name_H-M    P1
_symmetry_Int_Tables_number       1
_space_group_crystal_system       triclinic
_cell_length_a                    25.290243
_cell_length_b                    7.244521
_cell_length_c                    21.826649
_cell_angle_alpha                 89.884726
_cell_angle_beta                  110.343539
_cell_angle_gamma                 90.126926
_cell_volume                      3749.53565097

loop_
_atom_site_label
_atom_site_type_symbol
_atom_site_description
_atom_site_fract_x
_atom_site_fract_y
_atom_site_fract_z
_atom_type_partial_charge
O1    O     O_R   0.554350 0.505270 0.581390 -0.580299
O2    O     O_R   0.445650 0.005270 0.418610 -0.591753
O3    O     O_R   0.553380 0.177580 0.454800 -0.559412
O4    O     O_R   0.446620 0.677580 0.545200 -0.535402
C1    C     C_R   0.566344 0.345064 0.439120 0.949588
C2    C     C_R   0.435209 0.843806 0.563202 0.945368
O5    O     O_R   0.560970 0.175640 0.583140 -0.567641
O6    O     O_R   0.439030 0.675640 0.416860 -0.586756
O7    O     O_R   0.453290 0.004120 0.547860 -0.590036
O8    O     O_R   0.546710 0.504120 0.452140 -0.595089
C3    C     C_R   0.575998 0.343404 0.607734 0.945003
C4    C     C_R   0.423982 0.843421 0.392255 0.881853
O9    O     O_3   0.464660 0.338800 0.488280 -0.266263
O10   O     O_3   0.535340 0.838800 0.511720 -0.267187
V1    V     V_3+5 0.506560 0.064420 0.502170 1.233895
V2    V     V_3+5 0.493440 0.564420 0.497830 1.234313
C5    C     C_R   0.154953 0.059004 0.284489 -0.168056
C6    C     C_R   0.845289 0.557913 0.715260 -0.155840
H1    H     H_    0.071682 0.100995 0.217267 0.115507
H2    H     H_    0.928535 0.600570 0.782540 0.115308
H3    H     H_    0.241655 0.081530 0.395162 0.151870
H4    H     H_    0.758707 0.579176 0.604397 0.159063
H5    H     H_    0.145420 0.126822 0.323637 0.123514
H6    H     H_    0.854934 0.625305 0.676005 0.125940
C7    C     C_R   0.121995 0.949843 0.172509 -0.088593
C8    C     C_R   0.878032 0.449796 0.827470 -0.088878
C9    C     C_R   0.393794 0.772478 0.274898 -0.152873
C10   C     C_R   0.605996 0.273493 0.725203 -0.128982
C11   C     C_R   0.353166 0.750138 0.213215 -0.094222
C12   C     C_R   0.646567 0.251454 0.786946 -0.096905
C13   C     C_R   0.297027 0.795633 0.201725 -0.177670
C14   C     C_R   0.702789 0.296385 0.798372 -0.172849
C15   C     C_R   0.279952 0.867222 0.252094 0.090842
C16   C     C_R   0.720011 0.367085 0.747870 0.092386
C17   C     C_R   0.322412 0.894430 0.315264 0.095368
C18   C     C_R   0.677628 0.393837 0.684618 0.081855
C19   C     C_R   0.222342 0.914573 0.241677 0.086677
C20   C     C_R   0.777687 0.414160 0.758246 0.087784
C21   C     C_R   0.209613 0.996852 0.293954 0.173521
C22   C     C_R   0.790563 0.495745 0.705827 0.157269
C23   C     C_R   0.251620 0.020697 0.355153 -0.212663
C24   C     C_R   0.748632 0.518961 0.644524 -0.187446
C25   C     C_R   0.306910 0.968341 0.365950 -0.202347
C26   C     C_R   0.693271 0.466887 0.633788 -0.139732
C27   C     C_R   0.176883 0.886748 0.181252 -0.241444
C28   C     C_R   0.823071 0.386779 0.818769 -0.236330
C29   C     C_R   0.112363 0.041071 0.224003 -0.168476
C30   C     C_R   0.887803 0.540582 0.775843 -0.169465
C31   C     C_R   0.379476 0.844647 0.326457 -0.162077
C32   C     C_R   0.620481 0.344655 0.673513 -0.179499
H7    H     H_    0.183052 0.822728 0.139718 0.108026
H8    H     H_    0.816794 0.323110 0.860394 0.106861
H9    H     H_    0.436827 0.731215 0.282715 0.103803
H10   H     H_    0.562877 0.232828 0.717446 0.128845
H11   H     H_    0.268051 0.774404 0.152712 0.113127
H12   H     H_    0.731709 0.275525 0.847446 0.112687
H13   H     H_    0.365210 0.694808 0.173929 0.116758
H14   H     H_    0.634405 0.196880 0.826341 0.120419
H15   H     H_    0.337697 0.989457 0.414295 0.138374
H16   H     H_    0.662537 0.487596 0.585375 0.141916
C33   C     C_R   0.105152 0.779638 0.858172 0.138914
C34   C     C_R   0.894976 0.277738 0.142196 0.139188
C35   C     C_R   0.143879 0.781732 0.824594 -0.169413
C36   C     C_R   0.856573 0.279133 0.176275 -0.169032
H17   H     H_    0.146273 0.666353 0.794644 0.116671
H18   H     H_    0.854356 0.163335 0.206290 0.116761
C37   C     C_R   0.179941 0.931228 0.827824 0.095128
C38   C     C_R   0.820296 0.427629 0.173013 0.093377
C39   C     C_R   0.177622 0.083434 0.866215 -0.159682
C40   C     C_R   0.821893 0.578996 0.133640 -0.158098
H19   H     H_    0.204951 0.201270 0.869821 0.122075
H20   H     H_    0.794449 0.696204 0.129896 0.121984
C41   C     C_R   0.140329 0.084864 0.901029 -0.175139
C42   C     C_R   0.859108 0.581563 0.098651 -0.174544
H21   H     H_    0.140416 0.204620 0.930681 0.143408
H22   H     H_    0.858698 0.701172 0.068648 0.142787
C43   C     C_R   0.103690 0.935186 0.898222 -0.184753
C44   C     C_R   0.896155 0.433352 0.101800 -0.184987
N1    N     N_R   0.247985 0.074525 0.781835 -0.078194
N2    N     N_R   0.744819 0.558436 0.209661 -0.078859
N3    N     N_R   0.281874 0.063973 0.746661 -0.080264
N4    N     N_R   0.711041 0.548113 0.245018 -0.078705
C45   C     C_R   0.288541 0.901873 0.718667 0.142485
C46   C     C_R   0.712722 0.399319 0.283950 0.137993
N5    N     N_R   0.260084 0.751354 0.727643 -0.075620
N6    N     N_R   0.749553 0.261797 0.285775 -0.075713
N7    N     N_R   0.226311 0.761952 0.762534 -0.082815
N8    N     N_R   0.783121 0.272042 0.250553 -0.081924
C47   C     C_R   0.219301 0.923292 0.790384 0.104056
C48   C     C_R   0.781714 0.420137 0.211680 0.105235
C49   C     C_R   0.335568 0.714245 0.655619 -0.260790
C50   C     C_R   0.681121 0.236217 0.367293 -0.250683
H23   H     H_    0.316452 0.590831 0.666904 0.152152
H24   H     H_    0.712871 0.131839 0.371917 0.168143
C51   C     C_R   0.371895 0.695987 0.619836 0.415710
C52   C     C_R   0.647573 0.222016 0.406820 0.358742
C53   C     C_R   0.398020 0.852907 0.604059 -0.346560
C54   C     C_R   0.605792 0.357373 0.401770 -0.294123
C55   C     C_R   0.388799 0.023509 0.628835 -0.108716
C56   C     C_R   0.600750 0.507015 0.358699 -0.123105
H25   H     H_    0.410115 0.142840 0.620306 0.237669
H26   H     H_    0.569344 0.612994 0.353597 0.143893
C57   C     C_R   0.353496 0.041509 0.665708 -0.095065
C58   C     C_R   0.635234 0.521372 0.320715 -0.099944
H27   H     H_    0.347940 0.176633 0.683697 0.148145
H28   H     H_    0.629848 0.638533 0.288238 0.124964
C59   C     C_R   0.325993 0.886775 0.679180 0.042310
C60   C     C_R   0.675671 0.385685 0.324174 0.057372
O11   O     O_R   0.953220 0.285790 0.047790 -0.597429
O12   O     O_R   0.046780 0.785790 0.952210 -0.597599
O13   O     O_R   0.939020 0.617570 0.916840 -0.582524
O14   O     O_R   0.060980 0.117570 0.083160 -0.582653
C61   C     C_R   0.923576 0.449368 0.892491 0.901600
C62   C     C_R   0.076429 0.949362 0.107508 0.902036
O15   O     O_R   0.946600 0.615450 0.045180 -0.594182
O16   O     O_R   0.053400 0.115450 0.954820 -0.594922
O17   O     O_R   0.054370 0.786770 0.081410 -0.579378
O18   O     O_R   0.945630 0.286770 0.918590 -0.578940
C63   C     C_R   0.934943 0.445948 0.062747 0.894281
C64   C     C_R   0.064984 0.946420 0.937232 0.895729
O19   O     O_3   0.035300 0.454160 0.011680 -0.284419
O20   O     O_3   0.964700 0.954160 0.988320 -0.284188
V3    V     V_3+5 0.993450 0.728620 0.997830 1.135424
V4    V     V_3+5 0.006550 0.228620 0.002170 1.135384
N9    N     N_R   0.385347 0.515186 0.604868 0.223281
O21   O     O_R   0.435900 0.451653 0.634729 -0.456254
O22   O     O_R   0.345804 0.407295 0.568324 -0.445684
N10   N     N_R   0.658621 0.074774 0.453767 0.237040
O23   O     O_R   0.671176 0.910935 0.438642 -0.414487
O24   O     O_R   0.665504 0.110783 0.514465 -0.412237
C65   C     C_3   0.065462 0.614152 0.850254 -0.396101
C66   C     C_3   0.066186 0.468868 0.798915 -0.316249
C67   C     C_3   0.022859 0.315674 0.791646 -0.878662
H29   H     H_    0.022380 0.270293 0.839958 0.273934
H30   H     H_    0.980268 0.363623 0.761305 0.251313
H31   H     H_    0.033484 0.195253 0.766726 0.253967
H32   H     H_    0.057136 0.535640 0.750430 0.209425
H33   H     H_    0.108487 0.403664 0.814120 0.209593
H34   H     H_    0.076950 0.541382 0.897946 0.216701
H35   H     H_    0.021816 0.667493 0.836555 0.189092
C68   C     C_3   0.934639 0.112790 0.149927 -0.396424
C69   C     C_3   0.933949 0.966408 0.201136 -0.315114
C70   C     C_3   0.977209 0.813767 0.208127 -0.881356
H36   H     H_    0.977415 0.768948 0.159713 0.274495
H37   H     H_    0.019877 0.862028 0.238199 0.250949
H38   H     H_    0.966734 0.692921 0.233190 0.253854
H39   H     H_    0.943132 0.032263 0.249719 0.209287
H40   H     H_    0.891620 0.900872 0.185941 0.209506
H41   H     H_    0.923068 0.040724 0.102172 0.217059
H42   H     H_    0.978286 0.166609 0.163580 0.188862

loop_
_geom_bond_atom_site_label_1
_geom_bond_atom_site_label_2
_geom_bond_distance
_ccdc_geom_bond_type
C70   H38   1.110714 S    
C55   C57   1.400851 A    
C35   H17   1.076853 S    
C9    C11   1.390273 A    
C23   C25   1.388335 A    
O1    C3    1.336678 A    
C50   C52   1.408168 A    
C43   C64   1.506615 S    
O2    C4    1.336672 A    
N10   O23   1.301825 A    
C2    O7    1.331397 A    
C58   H28   1.082789 S    
C4    C31   1.485112 S    
C68   H41   1.110901 S    
C21   C23   1.398643 A    
H4    C24   1.084170 S    
O5    C3    1.329833 A    
C5    H5    1.084023 S    
C42   H22   1.082982 S    
C6    H6    1.084022 S    
C36   C38   1.400976 A    
C20   C22   1.421226 A    
C46   N6    1.356459 A    
O14   V4    1.993560 S    
C37   C47   1.492637 S    
H1    C29   1.079407 S    
C27   H7    1.077794 S    
C66   H33   1.110165 S    
C70   H36   1.107847 S    
C28   H8    1.077800 S    
C56   C58   1.400245 A    
C52   N10   1.436580 S    
C33   C35   1.412640 A    
C5    C21   1.400057 A    
C39   H19   1.082806 S    
C6    C22   1.400107 A    
O19   V4    1.769927 S    
C34   C36   1.413872 A    
C65   H35   1.108655 S    
N3    C45   1.362440 A    
C10   C32   1.398947 A    
C50   C60   1.408420 A    
C69   C70   1.526975 S    
N1    C47   1.360604 A    
C33   C43   1.435971 A    
C66   C67   1.527082 S    
C52   C54   1.418938 A    
C40   C42   1.403224 A    
C67   H31   1.110717 S    
C38   C48   1.496485 S    
C13   C15   1.413332 A    
C39   C41   1.401932 A    
C17   C25   1.403277 A    
C7    C29   1.397652 A    
C16   C18   1.436469 A    
C8    C30   1.397601 A    
C22   C24   1.398733 A    
O6    V2    1.993582 S    
C9    H9    1.083980 S    
C41   H21   1.082974 S    
C24   C26   1.388325 A    
O14   C62   1.332355 A    
C53   C55   1.402142 A    
C68   H42   1.108654 S    
N5    N7    1.329727 A    
C35   C37   1.400343 A    
O15   V3    1.996958 S    
O13   V3    1.993969 S    
C2    C53   1.505952 S    
C69   H40   1.110359 S    
N2    N4    1.337451 A    
O12   C64   1.331823 A    
N1    N3    1.337083 A    
C10   H10   1.083996 S    
C66   H32   1.111904 S    
C15   C19   1.436561 A    
O16   C64   1.346995 A    
O15   C63   1.347928 A    
N10   O24   1.301674 A    
C37   C39   1.399863 A    
C36   H18   1.076661 S    
O4    V2    2.000515 S    
C17   C31   1.424528 A    
C49   C59   1.405648 A    
O12   V3    1.977806 S    
C49   H23   1.083403 S    
C51   N9    1.420939 S    
O6    C4    1.329655 A    
C50   H24   1.082939 S    
O13   C61   1.332671 A    
O1    V2    1.982239 S    
O18   V4    1.981086 S    
O2    V1    1.982351 S    
H2    C30   1.079340 S    
H3    C23   1.084159 S    
O4    C2    1.330454 A    
C45   N5    1.356141 A    
C11   H13   1.082693 S    
N4    C46   1.362806 A    
N7    C47   1.358599 A    
N9    O21   1.301239 A    
C57   H27   1.082907 S    
C18   C26   1.403324 A    
C34   C68   1.532788 S    
C19   C27   1.430945 A    
C65   C66   1.543659 S    
C7    C27   1.410862 A    
C58   C60   1.402944 A    
C18   C32   1.424414 A    
O11   C63   1.332392 A    
N9    O22   1.300649 A    
C56   H26   1.083317 S    
C70   H37   1.106471 S    
O16   V4    2.000817 S    
C55   H25   1.067561 S    
C16   C20   1.436522 A    
C69   H39   1.111899 S    
C34   C44   1.436446 A    
C5    C29   1.389726 A    
N8    C48   1.359332 A    
O3    C1    1.330936 A    
C6    C30   1.389853 A    
C57   C59   1.401532 A    
C51   C53   1.414471 A    
O11   V4    1.979895 S    
C25   H15   1.082573 S    
C54   C56   1.410119 A    
C10   C12   1.390272 A    
C44   C63   1.509256 S    
O17   V3    1.981194 S    
C8    C61   1.484677 S    
C1    O8    1.325532 A    
C19   C21   1.421207 A    
C3    C32   1.484582 S    
O8    V2    1.984654 S    
C7    C62   1.484598 S    
C12   C14   1.393412 A    
C67   H29   1.107981 S    
C26   H16   1.082604 S    
C12   H14   1.082690 S    
O5    V1    1.993992 S    
C15   C17   1.436578 A    
C45   C59   1.490074 S    
N6    N8    1.330578 A    
N2    C48   1.360808 A    
C20   C28   1.430922 A    
C62   O17   1.342388 A    
C65   H34   1.110910 S    
C33   C65   1.532833 S    
C49   C51   1.404060 A    
C61   O18   1.342551 A    
C46   C60   1.493260 S    
C1    C54   1.494234 S    
C11   C13   1.393342 A    
C42   C44   1.412376 A    
O9    V2    1.770719 S    
C67   H30   1.106451 S    
C38   C40   1.400987 A    
C41   C43   1.412283 A    
O10   V1    1.772920 S    
O3    V1    1.996657 S    
C40   H20   1.082727 S    
C13   H11   1.077123 S    
O20   V3    1.772128 S    
C68   C69   1.543668 S    
C8    C28   1.410852 A    
C14   H12   1.077127 S    
C9    C31   1.399090 A    
O7    V1    1.982454 S    
C14   C16   1.413378 A    
