data_mof_unit_13646.cif
_audit_creation_date              2012-10-26T19:21:30-0400
_audit_creation_method            fapswitch 2.2
_symmetry_space_group_name_H-M    P1
_symmetry_Int_Tables_number       1
_space_group_crystal_system       triclinic
_cell_length_a                    9.793627
_cell_length_b                    11.050167
_cell_length_c                    15.746445
_cell_angle_alpha                 95.033566
_cell_angle_beta                  78.727743
_cell_angle_gamma                 111.917621
_cell_volume                      1550.22814137

loop_
_atom_site_label
_atom_site_type_symbol
_atom_type_description
_atom_site_fract_x
_atom_site_fract_y
_atom_site_fract_z
_atom_type_partial_charge
C1    C     C_R   0.557827 0.745947 0.505095 0.550239
C2    C     C_2   0.513769 0.069439 0.501050 -0.123290
C3    C     C_2   0.921810 0.487805 0.493764 -0.016658
C4    C     C_2   0.077281 0.510721 0.507220 -0.035243
C5    C     C_R   0.409752 0.483672 0.663070 0.595805
C6    C     C_R   0.590147 0.515710 0.336334 0.572988
C7    C     C_R   0.351371 0.456984 0.755955 -0.036066
C8    C     C_R   0.646833 0.529192 0.241305 -0.039697
C9    C     C_R   0.166061 0.325213 0.871307 0.301719
C10   C     C_R   0.852302 0.594024 0.117739 0.265369
C11   C     C_R   0.207409 0.365600 0.784776 0.215888
C12   C     C_R   0.442187 0.254067 0.494882 0.554455
C13   C     C_R   0.800701 0.565711 0.206701 0.198188
C14   C     C_R   0.448735 0.513586 0.815005 0.198189
C15   C     C_R   0.545389 0.507527 0.184058 0.189968
C16   C     C_R   0.420605 0.455682 0.896449 -0.059737
C17   C     C_R   0.594111 0.504231 0.093705 -0.071173
C18   C     C_R   0.275467 0.362060 0.925937 -0.014833
C19   C     C_R   0.748798 0.560788 0.060050 -0.021788
C20   C     C_R   0.532546 0.488601 0.949234 -0.014028
C21   C     C_R   0.490002 0.452550 0.036555 -0.012679
C22   C     C_3   0.053892 0.180749 0.116131 -0.140014
C23   C     C_R   0.350231 0.353997 0.062891 -0.091163
C24   C     C_3   0.980622 0.748037 0.888742 -0.111668
C25   C     C_3   0.389510 0.620435 0.212153 -0.095956
C26   C     C_3   0.533806 0.734274 0.823671 -0.114668
C27   C     C_3   0.947923 0.477404 0.252260 -0.100212
C28   C     C_3   0.014474 0.367847 0.724039 -0.068104
C29   C     C_3   0.940244 0.313880 0.948596 -0.078538
C30   C     C_3   0.057845 0.780539 0.105224 -0.076630
C31   C     C_3   0.166124 0.009166 0.558707 -0.114192
C32   C     C_3   0.835377 0.992868 0.444254 -0.129076
C33   C     C_R   0.686749 0.546273 0.916133 -0.104135
C34   C     C_R   0.243823 0.304640 0.007894 0.276339
C35   C     C_R   0.794870 0.583168 0.970054 0.253632
C36   C     C_2   0.593582 0.886543 0.505980 0.235139
C37   C     C_2   0.406490 0.113477 0.493873 0.234985
C38   C     C_2   0.487135 0.930640 0.497059 -0.127657
Cu1   Cu    Cu3+1 0.362980 0.479380 0.485080 0.958865
Cu2   Cu    Cu3+1 0.637020 0.520620 0.514920 0.974345
H1    H     H_    0.057355 0.276050 0.146973 0.096462
H2    H     H_    0.506127 0.734495 0.895696 0.121906
H3    H     H_    0.439437 0.737681 0.795566 0.112990
H4    H     H_    0.631815 0.824371 0.804388 0.156192
H5    H     H_    0.850503 0.384198 0.265751 0.087317
H6    H     H_    0.020503 0.487936 0.300399 0.128289
H7    H     H_    0.014620 0.473388 0.187032 0.148435
H8    H     H_    0.980076 0.349521 0.659649 0.148769
H9    H     H_    0.064911 0.475777 0.733269 0.092969
H10   H     H_    0.911423 0.326073 0.772562 0.138252
H11   H     H_    0.983113 0.353075 0.009586 0.151550
H12   H     H_    0.109638 0.134051 0.150572 0.109891
H13   H     H_    0.821701 0.248590 0.966489 0.125392
H14   H     H_    0.942804 0.395675 0.911377 0.140116
H15   H     H_    0.053356 0.800766 0.175921 0.144022
H16   H     H_    0.995134 0.830271 0.078978 0.117692
H17   H     H_    0.176607 0.823319 0.073422 0.132317
H18   H     H_    0.329557 0.307483 0.124058 0.157482
H19   H     H_    0.726745 0.553146 0.847243 0.177005
H20   H     H_    0.623578 0.137309 0.510407 0.159763
H21   H     H_    0.378020 0.862856 0.486385 0.162537
H22   H     H_    0.149000 0.100921 0.583284 0.178097
H23   H     H_    0.934551 0.115936 0.122750 0.132656
H24   H     H_    0.203796 0.968899 0.608346 0.106641
H25   H     H_    0.056282 0.936754 0.547969 0.158284
H26   H     H_    0.799539 0.034147 0.394282 0.088294
H27   H     H_    0.853776 0.901799 0.419251 0.149901
H28   H     H_    0.944183 0.065276 0.456691 0.158951
H29   H     H_    0.124105 0.581167 0.556200 0.138575
H30   H     H_    0.873758 0.415494 0.446064 0.141669
H31   H     H_    0.109598 0.381448 0.416930 0.201724
H32   H     H_    0.891330 0.620039 0.582095 0.204511
H33   H     H_    0.951681 0.724664 0.822956 0.113132
H34   H     H_    0.925299 0.813922 0.924414 0.135413
H35   H     H_    0.103070 0.802309 0.880515 0.143238
H36   H     H_    0.406170 0.649512 0.143904 0.121377
H37   H     H_    0.470705 0.696564 0.247509 0.111055
H38   H     H_    0.276196 0.615184 0.243946 0.150199
N1    N     N_2   0.842890 0.551600 0.537350 -0.343687
N2    N     N_2   0.157110 0.448400 0.462650 -0.345693
O1    O     O_R   0.426810 0.668300 0.492040 -0.542217
O2    O     O_3   0.945896 0.632828 0.934409 -0.553956
O3    O     O_3   0.399175 0.496780 0.216149 -0.563067
O4    O     O_3   0.571774 0.625719 0.791487 -0.571175
O5    O     O_3   0.902953 0.585758 0.260775 -0.542677
O6    O     O_3   0.113693 0.303083 0.726156 -0.539243
O7    O     O_3   0.020874 0.241345 0.898979 -0.500734
O8    O     O_3   0.004619 0.645203 0.087009 -0.521425
O9    O     O_3   0.267116 0.028546 0.479395 -0.586071
O10   O     O_3   0.731700 0.971345 0.522562 -0.573163
O11   O     O_R   0.573190 0.331700 0.507960 -0.544685
O12   O     O_R   0.658240 0.703130 0.517240 -0.463866
O13   O     O_R   0.341760 0.296870 0.482760 -0.466694
O14   O     O_R   0.319390 0.472820 0.610170 -0.483028
O15   O     O_R   0.680610 0.527180 0.389830 -0.459838
O16   O     O_R   0.550820 0.507640 0.635370 -0.449508
O17   O     O_R   0.449180 0.492360 0.364630 -0.442100
O18   O     O_3   0.116995 0.191853 0.027169 -0.529146

loop_
_geom_bond_atom_site_label_1
_geom_bond_atom_site_label_2
_ccdc_geom_bond_type
C23   H18   S    
C8    C13   A    
C22   O18   S    
C12   O11   A    
C14   O4    S    
C3    N1    D    
C5    O14   A    
C26   H4    S    
C7    C11   A    
C10   O8    S    
C25   H37   S    
C32   H26   S    
C4    N2    D    
H32   N1    S    
C33   C35   A    
C2    H20   S    
C24   H33   S    
Cu1   O17   S    
C22   H1    S    
C29   H14   S    
C11   O6    S    
C1    O1    A    
C30   H17   S    
C31   H25   S    
C12   C37   S    
C27   O5    S    
C24   O2    S    
C4    H29   S    
C17   C19   A    
C22   H23   S    
C28   H10   S    
C7    C14   A    
Cu1   O13   S    
C31   O9    S    
C32   H28   S    
C38   H21   S    
C27   H5    S    
C33   H19   S    
C31   H22   S    
Cu2   O16   S    
C36   O10   S    
H31   N2    S    
C35   O2    S    
C26   H3    S    
C32   O10   S    
C25   H38   S    
C6    O17   A    
C3    H30   S    
Cu1   O1    S    
Cu1   Cu2   S    
C5    C7    S    
C6    C8    S    
C30   H16   S    
C17   C21   A    
Cu1   O14   S    
C9    C11   A    
C28   H9    S    
C2    C38   S    
C10   C19   A    
C16   C20   A    
C23   C34   A    
Cu2   N1    S    
Cu2   O12   S    
C18   C34   A    
C32   H27   S    
C20   C33   A    
C27   H6    S    
C8    C15   A    
C21   C23   A    
C28   O6    S    
C14   C16   A    
C12   O13   A    
Cu2   O15   S    
C30   O8    S    
C3    C4    S    
C5    O16   A    
C26   H2    S    
C22   H12   S    
C29   H11   S    
C27   H7    S    
C15   C17   A    
C28   H8    S    
C26   O4    S    
C31   H24   S    
C10   C13   A    
C15   O3    S    
C24   H35   S    
C1    O12   A    
C30   H15   S    
C37   O9    S    
C25   H36   S    
Cu1   N2    S    
C36   C38   D    
C19   C35   A    
C9    O7    S    
C2    C37   D    
C24   H34   S    
C29   H13   S    
C34   O18   S    
Cu2   O11   S    
C29   O7    S    
C9    C18   A    
C20   C21   A    
C16   C18   A    
C6    O15   A    
C13   O5    S    
C25   O3    S    
C1    C36   S    
