data_mof_unit_43779.cif
_audit_creation_date              2012-12-10T19:00:03-0500
_audit_creation_method            fapswitch 2.2
_symmetry_space_group_name_H-M    P1
_symmetry_Int_Tables_number       1
_space_group_crystal_system       triclinic
_cell_length_a                    10.706486
_cell_length_b                    10.701869
_cell_length_c                    9.818105
_cell_angle_alpha                 90.064947
_cell_angle_beta                  89.911797
_cell_angle_gamma                 90.349176
_cell_volume                      1124.92975015

loop_
_atom_site_label
_atom_site_type_symbol
_atom_type_description
_atom_site_fract_x
_atom_site_fract_y
_atom_site_fract_z
_atom_type_partial_charge
C1    C     C_R   0.499927 0.259836 0.499906 0.858308
C2    C     C_R   0.500073 0.740164 0.500094 0.858308
C3    C     C_R   0.872448 0.492943 0.500253 -0.079235
C4    C     C_R   0.127552 0.507057 0.499747 -0.079235
C5    C     C_R   0.938440 0.440802 0.610329 -0.002706
C6    C     C_R   0.061560 0.559198 0.389671 -0.002705
C7    C     C_R   0.532712 0.064044 0.380829 -0.209002
C8    C     C_R   0.467288 0.935956 0.619171 -0.209001
C9    C     C_R   0.532898 0.936058 0.380977 -0.214134
C10   C     C_R   0.467103 0.063942 0.619023 -0.214134
C11   C     C_R   0.500101 0.872550 0.500110 -0.005352
C12   C     C_R   0.499899 0.127450 0.499890 -0.005352
C13   C     C_R   0.576082 0.579697 0.071969 -0.081512
C14   C     C_R   0.423918 0.420303 0.928031 -0.081512
C15   C     C_R   0.576049 0.579662 0.927916 -0.058351
C16   C     C_R   0.423951 0.420338 0.072084 -0.058352
C17   C     C_R   0.260055 0.503869 0.499889 0.872850
C18   C     C_R   0.739945 0.496130 0.500111 0.872849
C19   C     C_R   0.254880 0.792740 0.188046 -0.121061
C20   C     C_R   0.745120 0.207262 0.811957 -0.121062
C21   C     C_R   0.193527 0.734101 0.296641 -0.105377
C22   C     C_R   0.806473 0.265901 0.703362 -0.105376
C23   C     C_R   0.122502 0.625155 0.274116 0.140612
C24   C     C_R   0.877498 0.374846 0.725885 0.140612
C25   C     C_R   0.112252 0.577039 0.141347 -0.169329
C26   C     C_R   0.887748 0.422964 0.858653 -0.169329
C27   C     C_R   0.173886 0.635917 0.033112 -0.139840
C28   C     C_R   0.826114 0.364087 0.966889 -0.139841
C29   C     C_R   0.245485 0.743425 0.056522 -0.106905
C30   C     C_R   0.754515 0.256580 0.943481 -0.106905
C31   C     C_R   0.933498 0.550157 0.390853 -0.260533
C32   C     C_R   0.066502 0.449843 0.609147 -0.260533
H1    H     H_    0.293737 0.788444 0.972766 0.118530
H2    H     H_    0.706262 0.211562 0.027237 0.118531
H3    H     H_    0.637002 0.643067 0.873120 0.125499
H4    H     H_    0.362998 0.356933 0.126880 0.125499
H5    H     H_    0.310102 0.876154 0.205928 0.129022
H6    H     H_    0.689897 0.123850 0.794077 0.129021
H7    H     H_    0.202428 0.772541 0.398301 0.103036
H8    H     H_    0.797572 0.227459 0.601702 0.103036
H9    H     H_    0.058615 0.492731 0.122323 0.121942
H10   H     H_    0.941385 0.507272 0.877676 0.121942
H11   H     H_    0.167026 0.597620 0.931271 0.132885
H12   H     H_    0.832974 0.402385 0.068729 0.132886
H13   H     H_    0.881175 0.591925 0.308130 0.155679
H14   H     H_    0.118824 0.408074 0.691870 0.155679
H15   H     H_    0.559106 0.113010 0.288495 0.149504
H16   H     H_    0.440895 0.886990 0.711505 0.149504
H17   H     H_    0.636969 0.643213 0.126666 0.117379
H18   H     H_    0.363030 0.356787 0.873334 0.117379
N1    N     N_R   0.499970 0.499970 0.857200 -0.074492
N2    N     N_R   0.500030 0.500030 0.142800 -0.074492
O1    O     O_R   0.499990 0.316750 0.614620 -0.623455
O2    O     O_R   0.500010 0.683250 0.385380 -0.623455
O3    O     O_R   0.499990 0.316780 0.385290 -0.631274
O4    O     O_R   0.500010 0.683220 0.614710 -0.631274
O5    O     O_R   0.316760 0.500000 0.614660 -0.631976
O6    O     O_R   0.683240 0.500000 0.385340 -0.631976
O7    O     O_R   0.316760 0.500020 0.385330 -0.605359
O8    O     O_R   0.683240 0.499980 0.614670 -0.605359
Zn1   Zn    Zn3+2 0.500000 0.499980 0.653120 0.945726
Zn2   Zn    Zn3+2 0.500000 0.500020 0.346880 0.945726
H19   H     H_    0.559332 0.887158 0.288697 0.148922
H20   H     H_    0.440669 0.112842 0.711303 0.148921

loop_
_geom_bond_atom_site_label_1
_geom_bond_atom_site_label_2
_ccdc_geom_bond_type
C17   O5    A    
O6    Zn2   S    
C28   H12   S    
C8    H16   S    
O5    Zn1   S    
C15   N1    A    
C27   C29   A    
C13   N2    A    
C20   H6    S    
C19   H5    S    
C26   C28   A    
C14   N1    A    
C21   H7    S    
C2    O4    A    
C5    C32   A    
C22   H8    S    
C7    C9    A    
C28   C30   A    
C6    C31   A    
C1    O3    A    
C20   C30   A    
C16   H4    S    
C3    C31   A    
C9    C11   A    
C30   H2    S    
C14   H18   S    
C1    C12   S    
C10   C12   A    
C17   O7    A    
C8    C11   A    
C13   H17   S    
C6    C23   S    
C18   O8    A    
C19   C21   A    
C20   C22   A    
C14   C16   A    
C13   C15   A    
C21   C23   A    
C31   H13   S    
C7    C12   A    
C22   C24   A    
C25   C27   A    
C4    C17   S    
O1    Zn1   S    
C4    C32   A    
C19   C29   A    
O3    Zn2   S    
C27   H11   S    
C23   C25   A    
C26   H10   S    
C3    C18   S    
C4    C6    A    
C2    O2    A    
C7    H15   S    
C25   H9    S    
N2    Zn2   S    
C15   H3    S    
C1    O1    A    
O4    Zn1   S    
C5    C24   S    
O7    Zn2   S    
C2    C11   S    
O2    Zn2   S    
C9    H19   S    
C32   H14   S    
C18   O6    A    
C8    C10   A    
C10   H20   S    
C16   N2    A    
C29   H1    S    
C24   C26   A    
O8    Zn1   S    
C3    C5    A    
N1    Zn1   S    
