data_mof_unit_10655.cif
_audit_creation_date              2013-03-05T15:39:54-0500
_audit_creation_method            fapswitch 2.2
_symmetry_space_group_name_H-M    P1
_symmetry_Int_Tables_number       1
_space_group_crystal_system       triclinic
_cell_length_a                    17.140407
_cell_length_b                    17.304479
_cell_length_c                    17.201541
_cell_angle_alpha                 89.968855
_cell_angle_beta                  89.688501
_cell_angle_gamma                 90.08673
_cell_volume                      5101.99502861

loop_
_atom_site_label
_atom_site_type_symbol
_atom_site_description
_atom_site_fract_x
_atom_site_fract_y
_atom_site_fract_z
_atom_type_partial_charge
C1    C     C_R   0.606465 0.302945 0.098792 -0.091658
C2    C     C_R   0.669191 0.576912 0.143887 -0.057365
C3    C     C_R   0.396332 0.693492 0.111241 -0.071592
C4    C     C_R   0.330733 0.422627 0.144367 -0.064135
C5    C     C_R   0.603246 0.693247 0.887773 -0.072913
C6    C     C_R   0.669862 0.422543 0.856009 -0.084317
C7    C     C_R   0.396500 0.307045 0.887694 -0.059667
C8    C     C_R   0.321083 0.587440 0.863989 -0.042274
C9    C     C_R   0.106494 0.802948 0.598778 -0.091667
C10   C     C_R   0.169191 0.076914 0.643887 -0.057321
C11   C     C_R   0.896332 0.193492 0.611241 -0.071628
C12   C     C_R   0.830735 0.922627 0.644368 -0.064082
C13   C     C_R   0.103248 0.193248 0.387775 -0.072874
C14   C     C_R   0.169862 0.922543 0.356009 -0.084461
C15   C     C_R   0.896500 0.807045 0.387694 -0.059669
C16   C     C_R   0.821102 0.087437 0.363970 -0.042371
H1    H     H_    0.578851 0.247024 0.092607 0.109771
H2    H     H_    0.715627 0.538422 0.160844 0.116957
H3    H     H_    0.422950 0.750184 0.110655 0.115238
H4    H     H_    0.283281 0.459763 0.161643 0.110275
H5    H     H_    0.576469 0.749768 0.887842 0.107964
H6    H     H_    0.717386 0.459819 0.838904 0.116521
H7    H     H_    0.422386 0.250103 0.888284 0.113070
H8    H     H_    0.269344 0.554538 0.850457 0.115381
H9    H     H_    0.078897 0.747019 0.592591 0.109760
H10   H     H_    0.215629 0.038426 0.660845 0.117059
H11   H     H_    0.922949 0.250184 0.610655 0.115226
H12   H     H_    0.783282 0.959763 0.661644 0.110298
H13   H     H_    0.076472 0.249770 0.387847 0.107872
H14   H     H_    0.217385 0.959820 0.338904 0.116535
H15   H     H_    0.922385 0.750103 0.388283 0.113041
H16   H     H_    0.769365 0.054536 0.350427 0.115403
N1    N     N_R   0.574080 0.369570 0.076720 -0.057410
N2    N     N_R   0.630430 0.574080 0.076720 -0.049747
N3    N     N_R   0.425920 0.630430 0.076720 -0.064956
N4    N     N_R   0.369570 0.425920 0.076720 -0.048594
N5    N     N_R   0.574080 0.630430 0.923280 -0.057619
N6    N     N_R   0.630430 0.425920 0.923280 -0.053699
N7    N     N_R   0.425920 0.369570 0.923280 -0.062094
N8    N     N_R   0.369570 0.574080 0.923280 -0.057977
N9    N     N_R   0.074080 0.869570 0.576720 -0.057396
N10   N     N_R   0.130430 0.074080 0.576720 -0.049763
N11   N     N_R   0.925920 0.130430 0.576720 -0.064960
N12   N     N_R   0.869570 0.925920 0.576720 -0.048601
N13   N     N_R   0.074080 0.130430 0.423280 -0.057581
N14   N     N_R   0.130430 0.925920 0.423280 -0.053716
N15   N     N_R   0.925920 0.869570 0.423280 -0.062080
N16   N     N_R   0.869570 0.074080 0.423280 -0.057979
C17   C     C_R   0.579332 0.670067 0.143509 -0.051463
C18   C     C_R   0.304962 0.602266 0.109915 -0.082711
C19   C     C_R   0.421834 0.330769 0.144104 -0.049753
C20   C     C_R   0.697554 0.393622 0.099511 -0.088946
C21   C     C_R   0.579369 0.330029 0.856410 -0.072654
C22   C     C_R   0.305971 0.399194 0.887803 -0.058289
C23   C     C_R   0.414305 0.678339 0.863773 -0.038914
C24   C     C_R   0.694856 0.602367 0.889635 -0.064653
C25   C     C_R   0.079332 0.170067 0.643509 -0.051479
C26   C     C_R   0.804962 0.102266 0.609916 -0.082684
C27   C     C_R   0.921838 0.830771 0.644105 -0.049758
C28   C     C_R   0.197561 0.893646 0.599503 -0.088981
C29   C     C_R   0.079369 0.830029 0.356410 -0.072707
C30   C     C_R   0.805971 0.899195 0.387803 -0.058272
C31   C     C_R   0.914315 0.178342 0.363775 -0.038607
C32   C     C_R   0.194857 0.102367 0.389636 -0.064586
H17   H     H_    0.544247 0.719501 0.158249 0.137645
H18   H     H_    0.248120 0.575105 0.108311 0.134580
H19   H     H_    0.458741 0.282729 0.159078 0.142816
H20   H     H_    0.752972 0.422926 0.096021 0.158143
H21   H     H_    0.544072 0.280759 0.841711 0.139010
H22   H     H_    0.249593 0.427130 0.888077 0.127959
H23   H     H_    0.448211 0.729363 0.850560 0.110682
H24   H     H_    0.751768 0.575530 0.891373 0.133319
H25   H     H_    0.044246 0.219501 0.658248 0.137638
H26   H     H_    0.748120 0.075104 0.608312 0.134600
H27   H     H_    0.958749 0.782733 0.659078 0.142829
H28   H     H_    0.252962 0.922973 0.595989 0.158288
H29   H     H_    0.044072 0.780760 0.341711 0.139003
H30   H     H_    0.749594 0.927132 0.388075 0.127969
H31   H     H_    0.948221 0.229369 0.350571 0.110590
H32   H     H_    0.251769 0.075530 0.391375 0.133305
N17   N     N_R   0.574050 0.630410 0.076720 -0.063421
N18   N     N_R   0.369590 0.574050 0.076720 -0.063187
N19   N     N_R   0.425950 0.369590 0.076720 -0.062975
N20   N     N_R   0.630410 0.425950 0.076720 -0.063111
N21   N     N_R   0.574050 0.369590 0.923280 -0.066000
N22   N     N_R   0.369590 0.425950 0.923280 -0.060210
N23   N     N_R   0.425950 0.630410 0.923280 -0.064143
N24   N     N_R   0.630410 0.574050 0.923280 -0.059044
N25   N     N_R   0.074050 0.130410 0.576720 -0.063424
N26   N     N_R   0.869590 0.074050 0.576720 -0.063193
N27   N     N_R   0.925950 0.869590 0.576720 -0.062976
N28   N     N_R   0.130410 0.925950 0.576720 -0.063131
N29   N     N_R   0.074050 0.869590 0.423280 -0.065998
N30   N     N_R   0.869590 0.925950 0.423280 -0.060199
N31   N     N_R   0.925950 0.130410 0.423280 -0.064167
N32   N     N_R   0.130410 0.074050 0.423280 -0.059026
Ni1   Ni    Ni4+2 0.500000 0.370760 0.000000 0.234305
Ni2   Ni    Ni4+2 0.629240 0.500000 0.000000 0.270424
Ni3   Ni    Ni4+2 0.500000 0.629240 0.000000 0.243523
Ni4   Ni    Ni4+2 0.370760 0.500000 0.000000 0.274553
Ni5   Ni    Ni4+2 1.000000 0.870760 0.500000 0.234292
Ni6   Ni    Ni4+2 0.129240 1.000000 0.500000 0.270404
Ni7   Ni    Ni4+2 0.000000 0.129240 0.500000 0.243520
Ni8   Ni    Ni4+2 0.870760 1.000000 0.500000 0.274590
C33   C     C_R   0.684522 0.315469 0.111143 0.188673
C34   C     C_R   0.636853 0.635174 0.188336 0.177436
C35   C     C_R   0.320749 0.676578 0.133074 0.249508
C36   C     C_R   0.364006 0.365354 0.189201 0.173577
C37   C     C_R   0.678888 0.676511 0.865937 0.237791
C38   C     C_R   0.637138 0.364885 0.811369 0.184595
C39   C     C_R   0.321722 0.324890 0.864333 0.243679
C40   C     C_R   0.350052 0.651061 0.824378 0.243205
C41   C     C_R   0.184557 0.815493 0.611127 0.188578
C42   C     C_R   0.136853 0.135176 0.688335 0.177403
C43   C     C_R   0.820749 0.176578 0.633075 0.249518
C44   C     C_R   0.864009 0.865354 0.689202 0.173556
C45   C     C_R   0.178890 0.176511 0.365940 0.237765
C46   C     C_R   0.137138 0.864885 0.311368 0.184634
C47   C     C_R   0.821722 0.824891 0.364332 0.243667
C48   C     C_R   0.850084 0.151058 0.324360 0.243518
C49   C     C_2   0.806075 0.745071 0.861467 0.269680
C50   C     C_2   0.355485 0.708442 0.692941 0.269177
C51   C     C_2   0.194649 0.256273 0.859818 0.264675
C52   C     C_2   0.638020 0.286663 0.689683 0.295604
C53   C     C_2   0.816699 0.262029 0.138081 0.298485
C54   C     C_2   0.362503 0.286461 0.310532 0.299384
C55   C     C_2   0.193888 0.745288 0.138307 0.269913
C56   C     C_2   0.638678 0.714820 0.309086 0.300728
C57   C     C_2   0.306076 0.245072 0.361468 0.269705
C58   C     C_2   0.855449 0.208295 0.192824 0.269179
C59   C     C_2   0.694649 0.756272 0.359818 0.264663
C60   C     C_2   0.138020 0.786664 0.189682 0.295606
C61   C     C_2   0.316755 0.762167 0.638179 0.298676
C62   C     C_2   0.862503 0.786459 0.810531 0.299372
C63   C     C_2   0.693889 0.245287 0.638308 0.269892
C64   C     C_2   0.138677 0.214821 0.809086 0.300723
C65   C     C_2   0.734515 0.729955 0.831822 -0.405666
C66   C     C_2   0.315167 0.687948 0.757776 -0.401158
C67   C     C_2   0.266207 0.272065 0.829730 -0.400081
C68   C     C_2   0.665871 0.344708 0.733710 -0.344565
C69   C     C_2   0.739745 0.252802 0.125837 -0.368070
C70   C     C_2   0.335448 0.345197 0.267016 -0.350179
C71   C     C_2   0.265400 0.729689 0.167663 -0.406864
C72   C     C_2   0.666183 0.656350 0.265231 -0.348249
C73   C     C_2   0.234516 0.229955 0.331824 -0.405735
C74   C     C_2   0.815210 0.187972 0.257771 -0.401572
C75   C     C_2   0.766207 0.772065 0.329729 -0.400096
C76   C     C_2   0.165871 0.844709 0.233710 -0.344550
C77   C     C_2   0.239830 0.752858 0.625798 -0.368163
C78   C     C_2   0.835450 0.845197 0.767017 -0.350123
C79   C     C_2   0.765400 0.229688 0.667663 -0.406831
C80   C     C_2   0.166181 0.156351 0.765231 -0.348192
H33   H     H_    0.717911 0.751924 0.775116 0.173063
H34   H     H_    0.255061 0.705855 0.766569 0.178024
H35   H     H_    0.283007 0.250897 0.772615 0.180710
H36   H     H_    0.721856 0.370300 0.718170 0.149733
H37   H     H_    0.712797 0.197911 0.141376 0.153574
H38   H     H_    0.279740 0.371067 0.282777 0.148064
H39   H     H_    0.282284 0.751049 0.224515 0.172527
H40   H     H_    0.722191 0.630975 0.280158 0.151821
H41   H     H_    0.217912 0.251922 0.275118 0.173013
H42   H     H_    0.755169 0.206054 0.266658 0.178066
H43   H     H_    0.783006 0.750898 0.272613 0.180707
H44   H     H_    0.221856 0.870300 0.218170 0.149734
H45   H     H_    0.212924 0.697918 0.641226 0.153544
H46   H     H_    0.779743 0.871067 0.782778 0.148093
H47   H     H_    0.782284 0.251048 0.724515 0.172566
H48   H     H_    0.222190 0.130975 0.780158 0.151865
N33   N     N_R   0.828385 0.721937 0.939085 0.259778
O1    O     O_R   0.901212 0.724892 0.959808 -0.250248
O2    O     O_R   0.775778 0.712003 0.993042 -0.387956
N34   N     N_R   0.433866 0.681257 0.677148 0.256181
O3    O     O_R   0.459175 0.617532 0.708275 -0.372231
O4    O     O_R   0.474900 0.712131 0.621343 -0.266641
N35   N     N_R   0.171915 0.278621 0.937782 0.260289
O5    O     O_R   0.099078 0.274709 0.959112 -0.250450
O6    O     O_R   0.224257 0.288929 0.991343 -0.390791
N36   N     N_R   0.558986 0.259569 0.697016 0.253584
O7    O     O_R   0.501722 0.308787 0.700544 -0.344440
O8    O     O_R   0.543475 0.186176 0.691221 -0.342648
N37   N     N_R   0.859628 0.325796 0.105675 0.255855
O9    O     O_R   0.911378 0.361745 0.147341 -0.336999
O10   O     O_R   0.855187 0.340524 0.031618 -0.328909
N38   N     N_R   0.441182 0.258695 0.303026 0.253557
O11   O     O_R   0.499080 0.307410 0.300490 -0.347628
O12   O     O_R   0.455727 0.185089 0.308034 -0.342137
N39   N     N_R   0.171136 0.722750 0.060636 0.260527
O13   O     O_R   0.098380 0.726968 0.039920 -0.250416
O14   O     O_R   0.223513 0.711975 0.006665 -0.395865
N40   N     N_R   0.559741 0.741938 0.302551 0.252904
O15   O     O_R   0.502267 0.692756 0.300167 -0.358458
O16   O     O_R   0.544543 0.815379 0.308117 -0.342548
N41   N     N_R   0.328387 0.221940 0.439087 0.259779
O17   O     O_R   0.401213 0.224899 0.459811 -0.250237
O18   O     O_R   0.275779 0.212002 0.493044 -0.387953
N42   N     N_R   0.933738 0.180933 0.176844 0.256461
O19   O     O_R   0.974355 0.211138 0.120348 -0.266378
O20   O     O_R   0.959296 0.117583 0.208552 -0.372535
N43   N     N_R   0.671917 0.778620 0.437782 0.260299
O21   O     O_R   0.599080 0.774707 0.459113 -0.250545
O22   O     O_R   0.724259 0.788928 0.491342 -0.390747
N44   N     N_R   0.058986 0.759570 0.197016 0.253582
O23   O     O_R   0.001722 0.808787 0.200544 -0.344423
O24   O     O_R   0.043475 0.686177 0.191221 -0.342755
N45   N     N_R   0.359638 0.826044 0.605945 0.255837
O25   O     O_R   0.411001 0.862236 0.647865 -0.337168
O26   O     O_R   0.355494 0.840736 0.531864 -0.328726
N46   N     N_R   0.941181 0.758690 0.803024 0.253558
O27   O     O_R   0.999081 0.807403 0.800492 -0.347582
O28   O     O_R   0.955723 0.685083 0.808029 -0.342150
N47   N     N_R   0.671136 0.222750 0.560636 0.260526
O29   O     O_R   0.598380 0.226968 0.539920 -0.250411
O30   O     O_R   0.723513 0.211974 0.506665 -0.395911
N48   N     N_R   0.059741 0.241939 0.802551 0.252924
O31   O     O_R   0.002266 0.192758 0.800166 -0.358332
O32   O     O_R   0.044543 0.315381 0.808116 -0.342531

loop_
_geom_bond_atom_site_label_1
_geom_bond_atom_site_label_2
_geom_bond_distance
_ccdc_geom_bond_type
C21   C38   1.390639 A    
C49   N33   1.447260 S    
C4    N4    1.338587 A    
C48   C74   1.444025 S    
N40   O15   1.301691 A    
N15   Ni5   1.836439 S    
N16   N31   1.371565 A    
C5    N5    1.341229 A    
C23   C40   1.379059 A    
C10   N10   1.336794 A    
C6    C38   1.379703 A    
N33   O1    1.300986 A    
N5    N24   1.373654 A    
C54   N38   1.437477 S    
C42   C80   1.464164 S    
N6    Ni2   1.840372 S    
C21   H21   1.075733 S    
C16   N16   1.339397 A    
C36   C70   1.464518 S    
N36   O7    1.301688 A    
N12   Ni8   1.839328 S    
C9    H9    1.082138 S    
C14   N14   1.338260 A    
C31   H31   1.079723 S    
N45   O25   1.301150 A    
C4    C36   1.381282 A    
C26   H26   1.081595 S    
N44   O24   1.301152 A    
C12   H12   1.077953 S    
C25   N25   1.341954 A    
N8    N23   1.371565 A    
C45   C73   1.448937 S    
N27   Ni5   1.826115 S    
C58   N42   1.448638 S    
C16   C48   1.384520 A    
C33   C69   1.463294 S    
N38   O12   1.301154 A    
N48   O32   1.301149 A    
N36   O8    1.301152 A    
C24   N24   1.336555 A    
C58   C74   1.355703 D    
N32   Ni6   1.838965 S    
N4    N19   1.373643 A    
C61   N45   1.435957 S    
C62   C78   1.346400 D    
C31   N31   1.333141 A    
N42   O19   1.301256 A    
N38   O11   1.301677 A    
C37   C65   1.448940 S    
C17   N17   1.341954 A    
C20   N20   1.340811 A    
C52   C68   1.346727 D    
C55   C60   1.484657 S    
N13   Ni7   1.826473 S    
C80   H48   1.088206 S    
C53   C58   1.483308 S    
N35   O5    1.300998 A    
N34   O4    1.300969 A    
C27   C44   1.391527 A    
C24   H24   1.081582 S    
C63   N47   1.447422 S    
C55   N39   1.447419 S    
C6    N6    1.338259 A    
C3    H3    1.081321 S    
N2    N17   1.373643 A    
C11   H11   1.081320 S    
C49   C62   1.484620 S    
C72   H40   1.088205 S    
C12   C44   1.381288 A    
C11   C43   1.377886 A    
N26   Ni8   1.840006 S    
C25   H25   1.076028 S    
C57   C73   1.356062 D    
C10   C42   1.380648 A    
N21   Ni1   1.826174 S    
N28   Ni6   1.839164 S    
C8    H8    1.079660 S    
C66   H34   1.086105 S    
C28   N28   1.340695 A    
C39   C67   1.448958 S    
N30   Ni8   1.840123 S    
N43   O21   1.300996 A    
N45   O26   1.301625 A    
N25   Ni7   1.836076 S    
C32   H32   1.081582 S    
N16   Ni8   1.839530 S    
C28   C41   1.384536 A    
C27   H27   1.077381 S    
C70   H38   1.088239 S    
N3    Ni3   1.826532 S    
N10   Ni6   1.840485 S    
C44   C78   1.464520 S    
C64   C80   1.346661 D    
N3    N18   1.371577 A    
N31   Ni7   1.836105 S    
C64   N48   1.437693 S    
N37   O10   1.301653 A    
N11   N26   1.371577 A    
N44   O23   1.301687 A    
N6    N21   1.371565 A    
C53   N37   1.436032 S    
C60   C76   1.346726 D    
C40   C66   1.444061 S    
C50   N34   1.448502 S    
C77   H45   1.088134 S    
C50   C66   1.355575 D    
N35   O6    1.301637 A    
C53   C69   1.346142 D    
C22   N22   1.334868 A    
N48   O31   1.301691 A    
N46   O27   1.301676 A    
C19   H19   1.077374 S    
N17   Ni3   1.836076 S    
C54   C57   1.484621 S    
C3    C35   1.377887 A    
C14   H14   1.077863 S    
C49   C65   1.356063 D    
C15   H15   1.081312 S    
C54   C70   1.346402 D    
C32   C45   1.374383 A    
C76   H44   1.088216 S    
C23   H23   1.079724 S    
N37   O9    1.301218 A    
C59   N43   1.447504 S    
C50   C61   1.483272 S    
C41   C77   1.463360 S    
C74   H42   1.086126 S    
C3    N3    1.341550 A    
C62   N46   1.437477 S    
N47   O29   1.300987 A    
C22   H22   1.081157 S    
C67   H35   1.086267 S    
C28   H28   1.077409 S    
N41   O18   1.301671 A    
C10   H10   1.079868 S    
C61   C77   1.346200 D    
N4    Ni4   1.839328 S    
C55   C71   1.355675 D    
C11   N11   1.341550 A    
C26   N26   1.336657 A    
C56   N40   1.437694 S    
C32   N32   1.336554 A    
C30   C47   1.374614 A    
C25   C42   1.393107 A    
N12   N27   1.373643 A    
C17   H17   1.076028 S    
C68   H36   1.088215 S    
C69   H37   1.088150 S    
N42   O20   1.301750 A    
N47   O30   1.301645 A    
C20   C33   1.384637 A    
C19   C36   1.391526 A    
C29   H29   1.075735 S    
C30   N30   1.334867 A    
C26   C43   1.373392 A    
C51   C67   1.356044 D    
N29   Ni5   1.826174 S    
C56   C59   1.484642 S    
C19   N19   1.340864 A    
C24   C37   1.374386 A    
N5    Ni3   1.826473 S    
N22   Ni4   1.840123 S    
N34   O3    1.301618 A    
C18   N18   1.336657 A    
C14   C46   1.379703 A    
C27   N27   1.340859 A    
C13   H13   1.081031 S    
N9    Ni5   1.836463 S    
C63   C79   1.355673 D    
C65   H33   1.086236 S    
N40   O16   1.301150 A    
C52   C63   1.484656 S    
C51   N35   1.447502 S    
C29   C46   1.390640 A    
N18   Ni4   1.840006 S    
C30   H30   1.081159 S    
C78   H46   1.088239 S    
C2    H2    1.079872 S    
C20   H20   1.077450 S    
N8    Ni4   1.839530 S    
C57   N41   1.447258 S    
C18   H18   1.081595 S    
C34   C72   1.464166 S    
C17   C34   1.393114 A    
C9    N9    1.336230 A    
C16   H16   1.079663 S    
C8    N8    1.339359 A    
C60   N44   1.437709 S    
C56   C72   1.346661 D    
C51   C64   1.484644 S    
N10   N25   1.373643 A    
N20   Ni2   1.839164 S    
C8    C40   1.384451 A    
C47   C75   1.448958 S    
C9    C41   1.372890 A    
N39   O13   1.300988 A    
C12   N12   1.338588 A    
C75   H43   1.086269 S    
C13   N13   1.341230 A    
C31   C48   1.378978 A    
C2    N2    1.336789 A    
C18   C35   1.373392 A    
C7    H7    1.081313 S    
C73   H41   1.086235 S    
C52   N36   1.437709 S    
C79   H47   1.086225 S    
C38   C68   1.463832 S    
N2    Ni2   1.840485 S    
N15   N30   1.373654 A    
C15   C47   1.380704 A    
C22   C39   1.374612 A    
C29   N29   1.341633 A    
C71   H39   1.086223 S    
N14   N29   1.371565 A    
C23   N23   1.333163 A    
N1    N20   1.371577 A    
N11   Ni7   1.826532 S    
N39   O14   1.301646 A    
N7    Ni1   1.836439 S    
C1    N1    1.336131 A    
C2    C34   1.380650 A    
C46   C76   1.463832 S    
C4    H4    1.077951 S    
N23   Ni3   1.836105 S    
N9    N28   1.371577 A    
C5    H5    1.081032 S    
C1    H1    1.082142 S    
N46   O28   1.301154 A    
N41   O17   1.300986 A    
N19   Ni1   1.826115 S    
C43   C79   1.447682 S    
C13   C45   1.379098 A    
N43   O22   1.301636 A    
C7    N7    1.342412 A    
C15   N15   1.342412 A    
C21   N21   1.341633 A    
C59   C75   1.356044 D    
C5    C37   1.379101 A    
N7    N22   1.373654 A    
N1    Ni1   1.836463 S    
N13   N32   1.373654 A    
C35   C71   1.447684 S    
C7    C39   1.380701 A    
N24   Ni2   1.838965 S    
C1    C33   1.372741 A    
N14   Ni6   1.840372 S    
N33   O2    1.301671 A    
C6    H6    1.077863 S    
