data_mof_unit_48920.cif
_audit_creation_date              2012-12-11T15:07:39-0500
_audit_creation_method            fapswitch 2.2
_symmetry_space_group_name_H-M    P1
_symmetry_Int_Tables_number       1
_space_group_crystal_system       triclinic
_cell_length_a                    21.718027
_cell_length_b                    7.201962
_cell_length_c                    18.625975
_cell_angle_alpha                 90.004202
_cell_angle_beta                  95.880239
_cell_angle_gamma                 90.001899
_cell_volume                      2898.00419039

loop_
_atom_site_label
_atom_site_type_symbol
_atom_type_description
_atom_site_fract_x
_atom_site_fract_y
_atom_site_fract_z
_atom_type_partial_charge
O1    O     O_R   0.449650 0.506500 0.414480 -0.544026
O2    O     O_R   0.550350 0.006500 0.585520 -0.544039
O3    O     O_R   0.432010 0.173150 0.560250 -0.509553
O4    O     O_R   0.567990 0.673150 0.439750 -0.509550
C1    C     C_R   0.416240 0.344714 0.581451 0.855992
C2    C     C_R   0.583758 0.844713 0.418545 0.856026
O5    O     O_R   0.442320 0.176650 0.413480 -0.537128
O6    O     O_R   0.557680 0.676650 0.586520 -0.537119
O7    O     O_R   0.560730 0.008380 0.437700 -0.496465
O8    O     O_R   0.439270 0.508380 0.562300 -0.496437
C3    C     C_R   0.428372 0.345235 0.387786 0.886108
C4    C     C_R   0.571621 0.845249 0.612215 0.886177
O9    O     O_3   0.538840 0.339860 0.508120 -0.380032
O10   O     O_3   0.461160 0.839860 0.491880 -0.380013
V1    V     V_3+5 0.492800 0.064220 0.498490 1.727542
V2    V     V_3+5 0.507200 0.564220 0.501510 1.727562
C5    C     C_R   0.870993 0.987552 0.690852 -0.174926
C6    C     C_R   0.129025 0.488090 0.309140 -0.174937
C7    C     C_R   0.886585 0.942929 0.819915 -0.267292
C8    C     C_R   0.113418 0.443018 0.180092 -0.267316
C9    C     C_R   0.585164 0.833367 0.744574 0.609605
C10   C     C_R   0.414805 0.333302 0.255418 0.609588
C11   C     C_R   0.620144 0.846355 0.810981 -0.211618
C12   C     C_R   0.379820 0.346400 0.189017 -0.211522
C13   C     C_R   0.683765 0.874783 0.815302 -0.161244
C14   C     C_R   0.316202 0.374892 0.184713 -0.161097
C15   C     C_R   0.715281 0.886474 0.752615 0.060123
C16   C     C_R   0.284700 0.386486 0.247408 0.060113
C17   C     C_R   0.678508 0.881980 0.683783 -0.146522
C18   C     C_R   0.321479 0.381993 0.316233 -0.146508
C19   C     C_R   0.781465 0.910895 0.755865 -0.011369
C20   C     C_R   0.218523 0.410943 0.244164 -0.011360
C21   C     C_R   0.807688 0.948180 0.690462 -0.139754
C22   C     C_R   0.192315 0.448496 0.309551 -0.139708
C23   C     C_R   0.770977 0.945650 0.624435 -0.132947
C24   C     C_R   0.229028 0.445998 0.375579 -0.132997
C25   C     C_R   0.707986 0.909397 0.620542 0.609287
C26   C     C_R   0.292009 0.409548 0.379474 0.609290
C27   C     C_R   0.823301 0.899428 0.820555 0.489211
C28   C     C_R   0.176684 0.399243 0.179484 0.489162
C29   C     C_R   0.909743 0.989203 0.755043 0.544447
C30   C     C_R   0.090282 0.489677 0.244941 0.544547
C31   C     C_R   0.613045 0.853264 0.680535 -0.223661
C32   C     C_R   0.386937 0.353211 0.319469 -0.223657
C33   C     C_R   0.636976 0.016681 0.324150 0.568290
C34   C     C_R   0.363007 0.516716 0.675827 0.568353
C35   C     C_R   0.633092 0.857518 0.368108 -0.327531
C36   C     C_R   0.366901 0.357517 0.631880 -0.327534
C37   C     C_R   0.676821 0.713571 0.363908 0.623724
C38   C     C_R   0.323185 0.213528 0.636099 0.623697
C39   C     C_R   0.723791 0.728037 0.316931 -0.182789
C40   C     C_R   0.276208 0.228021 0.683067 -0.182773
C41   C     C_R   0.727082 0.888840 0.273761 -0.181533
C42   C     C_R   0.272908 0.388856 0.726223 -0.181548
C43   C     C_R   0.683650 0.033187 0.277553 0.032401
C44   C     C_R   0.316334 0.533222 0.722423 0.032413
C45   C     C_R   0.767957 0.585934 0.312186 0.705168
C46   C     C_R   0.232055 0.085884 0.687831 0.705149
C47   C     C_R   0.813707 0.602538 0.264869 -0.275908
C48   C     C_R   0.186318 0.102468 0.735165 -0.275902
C49   C     C_R   0.817100 0.761253 0.221911 -0.002629
C50   C     C_R   0.182913 0.261218 0.778105 -0.002621
C51   C     C_R   0.773998 0.905731 0.226584 0.132855
C52   C     C_R   0.225996 0.405741 0.773407 0.132865
C53   C     C_R   0.777754 0.067085 0.184040 0.129637
C54   C     C_R   0.222232 0.567118 0.815944 0.129645
C55   C     C_R   0.734285 0.209297 0.188430 -0.219255
C56   C     C_R   0.265697 0.709343 0.811550 -0.219300
C57   C     C_R   0.687638 0.192377 0.234452 0.005610
C58   C     C_R   0.312344 0.692425 0.765526 0.005727
C59   C     C_R   0.862998 0.777660 0.174425 -0.136012
C60   C     C_R   0.137025 0.277602 0.825604 -0.136015
C61   C     C_R   0.867269 0.938130 0.131802 -0.074139
C62   C     C_R   0.132734 0.438121 0.868202 -0.074114
C63   C     C_R   0.824634 0.083130 0.137547 -0.198199
C64   C     C_R   0.175351 0.583165 0.862435 -0.198261
H1    H     H_    0.846679 0.490507 0.261911 0.178717
H2    H     H_    0.153371 0.990375 0.738156 0.178731
H3    H     H_    0.654943 0.305361 0.236547 0.183878
H4    H     H_    0.345033 0.805433 0.763428 0.183887
O11   O     O_R   0.060820 0.290050 0.937800 -0.537812
O12   O     O_R   0.939180 0.790050 0.062200 -0.537792
O13   O     O_R   0.057690 0.616620 0.086540 -0.539842
O14   O     O_R   0.942310 0.116620 0.913460 -0.539864
C65   C     C_R   0.071447 0.448784 0.112459 0.851190
C66   C     C_R   0.928559 0.948768 0.887540 0.851388
O15   O     O_R   0.068010 0.619890 0.939770 -0.546554
O16   O     O_R   0.931990 0.119890 0.060230 -0.546557
O17   O     O_R   0.949640 0.787940 0.914460 -0.528302
O18   O     O_R   0.050360 0.287940 0.085540 -0.528216
C67   C     C_R   0.083971 0.450992 0.918645 0.725477
C68   C     C_R   0.916030 0.950995 0.081357 0.725650
O19   O     O_3   0.961210 0.453080 0.991940 -0.382291
O20   O     O_3   0.038790 0.953080 0.008060 -0.382253
V3    V     V_3+5 0.007200 0.728820 0.001500 1.531305
V4    V     V_3+5 0.992800 0.228820 0.998500 1.531298
F1    F     F_    0.970506 0.032144 0.753691 -0.683713
F2    F     F_    0.029538 0.532881 0.246269 -0.683738
F3    F     F_    0.674430 0.561392 0.406670 -0.573281
F4    F     F_    0.325604 0.061265 0.593377 -0.573278
F5    F     F_    0.767282 0.429970 0.353038 -0.611303
F6    F     F_    0.232736 0.929885 0.646992 -0.611318
H5    H     H_    0.895889 0.665437 0.171267 0.165672
H6    H     H_    0.104157 0.165323 0.828793 0.165613
H7    H     H_    0.827207 0.207065 0.104959 0.135313
H8    H     H_    0.172762 0.707135 0.895006 0.135299
H9    H     H_    0.736337 0.334045 0.156229 0.125661
H10   H     H_    0.263640 0.834105 0.843751 0.125648
H11   H     H_    0.791479 0.970865 0.574637 0.172933
H12   H     H_    0.208538 0.471380 0.425371 0.172947
H13   H     H_    0.890595 0.018973 0.641004 0.177343
H14   H     H_    0.109436 0.519747 0.358972 0.177340
F7    F     F_    0.805310 0.838552 0.884002 -0.714315
F8    F     F_    0.194659 0.337781 0.116107 -0.714141
F9    F     F_    0.523118 0.806677 0.742769 -0.647162
F10   F     F_    0.476846 0.306550 0.257207 -0.647153
H15   H     H_    0.706092 0.894664 0.868852 0.224502
H16   H     H_    0.293858 0.394953 0.131180 0.224285
H17   H     H_    0.597511 0.836943 0.860027 0.164343
H18   H     H_    0.402447 0.337057 0.139964 0.164330
F11   F     F_    0.676310 0.906108 0.553917 -0.706481
F12   F     F_    0.323689 0.406274 0.446097 -0.706504
F13   F     F_    0.594659 0.155458 0.325458 -0.611195
F14   F     F_    0.405317 0.655523 0.674513 -0.611137

loop_
_geom_bond_atom_site_label_1
_geom_bond_atom_site_label_2
_ccdc_geom_bond_type
C54   C56   A    
O16   V4    S    
O4    V2    S    
O15   C67   A    
C15   C17   A    
O1    C3    A    
C9    F9    S    
C7    C66   S    
O2    C4    A    
C47   H1    S    
C2    O7    A    
C51   C53   A    
C35   C37   A    
C33   F13   S    
O5    C3    A    
C48   H2    S    
C62   C64   A    
C23   C25   A    
C12   C14   A    
C25   F11   S    
C4    C31   S    
C6    C30   A    
C11   H17   S    
C8    C28   A    
C45   C47   A    
C46   C48   A    
O12   C68   A    
C18   C26   A    
C48   C50   A    
O14   V4    S    
C33   C35   A    
C49   C51   A    
C50   C52   A    
C9    C31   A    
C10   C32   A    
O16   C68   A    
C10   F10   S    
C27   F7    S    
O15   V3    S    
C38   C40   A    
C19   C21   A    
C39   C45   A    
C22   C24   A    
C23   H11   S    
C49   C59   A    
C36   C38   A    
C54   C64   A    
O6    V2    S    
C17   C31   A    
C61   C63   A    
C18   C32   A    
C5    C21   A    
C5    H13   S    
C40   C42   A    
C34   C36   A    
C41   C43   A    
C40   C46   A    
C1    C36   S    
C42   C44   A    
C47   C49   A    
C12   H18   S    
C2    C35   S    
C58   H4    S    
C16   C20   A    
C60   C62   A    
C59   C61   A    
O11   V4    S    
C60   H6    S    
C53   C55   A    
C15   C19   A    
C37   C39   A    
C39   C41   A    
C52   C54   A    
C62   C67   S    
O17   V3    S    
C37   F3    S    
O6    C4    A    
O13   V3    S    
C8    C65   S    
C50   C60   A    
C3    C32   S    
O1    V2    S    
C43   C57   A    
O2    V1    S    
C6    C22   A    
C26   F12   S    
C7    C27   A    
C34   F14   S    
C46   F6    S    
O4    C2    A    
O13   C65   A    
C63   H7    S    
O19   V4    S    
C44   C58   A    
C9    C11   A    
C24   H12   S    
C29   F1    S    
C57   H3    S    
C17   C25   A    
C24   C26   A    
O3    V1    S    
C59   H5    S    
C64   H8    S    
O12   V3    S    
C38   F4    S    
C14   H16   S    
C61   C68   S    
C6    H14   S    
O3    C1    A    
C66   O17   A    
C13   H15   S    
C8    C30   A    
C65   O18   A    
O18   V4    S    
C13   C15   A    
C45   F5    S    
C14   C16   A    
C53   C63   A    
C30   F2    S    
O7    V1    S    
C16   C18   A    
O8    V2    S    
C41   C51   A    
C55   H9    S    
C42   C52   A    
O5    V1    S    
C21   C23   A    
C19   C27   A    
C10   C12   A    
C20   C28   A    
O20   V3    S    
C5    C29   A    
O11   C67   A    
C1    O8    A    
C11   C13   A    
C33   C43   A    
C56   C58   A    
O9    V2    S    
C34   C44   A    
O10   V1    S    
O14   C66   A    
C56   H10   S    
C55   C57   A    
C7    C29   A    
C28   F8    S    
C20   C22   A    
