data_mof_unit_35193.cif
_audit_creation_date              2012-12-11T18:39:45-0500
_audit_creation_method            fapswitch 2.2
_symmetry_space_group_name_H-M    P1
_symmetry_Int_Tables_number       1
_space_group_crystal_system       triclinic
_cell_length_a                    8.258517
_cell_length_b                    14.278547
_cell_length_c                    19.056116
_cell_angle_alpha                 97.013198
_cell_angle_beta                  91.706006
_cell_angle_gamma                 91.606649
_cell_volume                      2228.15244721

loop_
_atom_site_label
_atom_site_type_symbol
_atom_type_description
_atom_site_fract_x
_atom_site_fract_y
_atom_site_fract_z
_atom_type_partial_charge
Ba1   Ba    Ba6+2 0.843770 0.541130 0.463760 1.636279
Ba2   Ba    Ba6+2 0.346040 0.458940 0.536250 1.645908
C1    C     C_3   0.629422 0.886382 0.273498 -0.369403
C2    C     C_R   0.017465 0.531109 0.724294 0.080729
C3    C     C_R   0.869974 0.416641 0.812574 -0.155761
C4    C     C_3   0.071438 0.736046 0.262082 0.366895
C5    C     C_R   0.803214 0.423653 0.745449 -0.008138
C6    C     C_R   0.325563 0.577637 0.184411 -0.162443
C7    C     C_R   0.394640 0.571249 0.251481 0.011928
C8    C     C_R   0.148731 0.445056 0.199970 -0.153355
C9    C     C_R   0.181233 0.462803 0.274011 0.052687
C10   C     C_R   0.989224 0.483089 0.844272 0.000775
C11   C     C_R   0.887947 0.472040 0.699327 -0.217474
C12   C     C_3   0.598297 0.790919 0.299198 0.355020
C13   C     C_R   0.210617 0.508170 0.153019 0.000139
C14   C     C_R   0.312292 0.521701 0.298154 -0.242707
C15   C     C_R   0.773861 0.435543 0.962767 -0.083848
C16   C     C_3   0.052742 0.766228 0.187896 -0.019989
C17   C     C_R   0.677553 0.401363 0.013076 -0.079895
C18   C     C_R   0.725444 0.418954 0.083370 -0.066147
C19   C     C_R   0.873744 0.464442 0.101523 -0.084239
C20   C     C_R   0.991576 0.476027 0.051055 0.015206
C21   C     C_R   0.938133 0.465163 0.977793 0.038257
C22   C     C_R   0.155004 0.502878 0.073601 -0.017490
C23   C     C_3   0.506460 0.312026 0.324514 0.312801
C24   C     C_R   0.262323 0.523657 0.019016 0.038176
C25   C     C_R   0.209781 0.511220 0.945515 0.013695
C26   C     C_R   0.045643 0.485889 0.923242 -0.016592
C27   C     C_R   0.425348 0.555290 0.034410 -0.077138
C28   C     C_3   0.195998 0.763978 0.630579 0.291753
C29   C     C_R   0.521108 0.589143 0.983832 -0.081245
C30   C     C_R   0.474955 0.569204 0.913413 -0.072507
C31   C     C_R   0.328701 0.521108 0.894898 -0.073589
C32   C     C_R   0.702714 0.936951 0.531597 -0.043595
C33   C     C_R   0.510812 0.800769 0.497015 0.034626
C34   C     C_3   0.490313 0.284332 0.244950 -0.396190
C35   C     C_R   0.366319 0.766105 0.462157 -0.292631
C36   C     C_R   0.266133 0.825217 0.428768 0.010307
C37   C     C_R   0.314742 0.918752 0.425400 -0.164334
C38   C     C_R   0.461547 0.954934 0.458493 -0.006731
C39   C     C_R   0.560470 0.896667 0.495762 -0.027950
C40   C     C_3   0.152989 0.867147 0.650283 -0.082915
C41   C     C_R   0.645337 0.090310 0.494880 -0.020207
C42   C     C_R   0.747563 0.032046 0.529924 0.005439
C43   C     C_R   0.687038 0.187221 0.498142 0.032342
C44   C     C_R   0.824456 0.225023 0.537467 -0.265825
C45   C     C_3   0.062460 0.187765 0.734016 0.390406
C46   C     C_R   0.932067 0.166556 0.567435 -0.018559
C47   C     C_R   0.894881 0.069534 0.562199 -0.157022
C48   C     C_R   0.504913 0.050212 0.458001 -0.051192
C49   C     C_3   0.012621 0.247328 0.388702 0.316181
C50   C     C_3   0.007693 0.140000 0.374210 -0.395475
C51   C     C_3   0.690390 0.674389 0.671714 0.307936
C52   C     C_3   0.713968 0.704911 0.750746 -0.389623
C53   C     C_3   0.403020 0.966843 0.654598 -0.234831
C54   C     C_3   0.036618 0.082263 0.741609 -0.201213
C55   C     C_3   0.869470 0.057714 0.767255 -0.502720
C56   C     C_3   0.107361 0.241851 0.806505 -0.300621
C57   C     C_3   0.169982 0.928572 0.211595 -0.181971
C58   C     C_3   0.556477 0.237790 0.762291 0.345747
C59   C     C_3   0.567007 0.206442 0.836145 -0.412679
C60   C     C_R   0.053611 0.546097 0.798121 -0.152284
H1    H     H_    0.652019 0.793211 0.353579 0.077217
H2    H     H_    0.598228 0.615914 0.663384 0.098829
H3    H     H_    0.569921 0.942232 0.308429 0.073213
H4    H     H_    0.809906 0.761503 0.760483 0.120012
H5    H     H_    0.750333 0.644176 0.778071 0.068248
H6    H     H_    0.598885 0.731754 0.772943 0.122846
H7    H     H_    0.464939 0.779021 0.300308 -0.070396
H8    H     H_    0.579169 0.885456 0.218709 0.106262
H9    H     H_    0.386966 0.334368 0.344261 0.009569
H10   H     H_    0.595741 0.372083 0.334845 0.077136
H11   H     H_    0.396400 0.227023 0.232458 0.121541
H12   H     H_    0.160733 0.885387 0.708822 0.113243
H13   H     H_    0.454784 0.346172 0.218644 0.058969
H14   H     H_    0.608012 0.259610 0.224197 0.125153
H15   H     H_    0.761410 0.903415 0.274324 0.147168
H16   H     H_    0.060656 0.702831 0.148216 0.036683
H17   H     H_    0.949305 0.217579 0.714199 -0.037638
H18   H     H_    0.144618 0.315607 0.800644 0.134426
H19   H     H_    0.004042 0.241325 0.842251 0.055602
H20   H     H_    0.210164 0.208922 0.831573 0.103149
H21   H     H_    0.680274 0.240419 0.741283 -0.084374
H22   H     H_    0.486680 0.183078 0.726512 0.084370
H23   H     H_    0.024729 0.875138 0.633507 0.081386
H24   H     H_    0.683790 0.230653 0.863389 0.093720
H25   H     H_    0.558032 0.128229 0.832230 0.079522
H26   H     H_    0.001804 0.668381 0.262843 0.058598
H27   H     H_    0.468701 0.236091 0.869569 0.132443
H28   H     H_    0.136266 0.603948 0.818009 0.072283
H29   H     H_    0.824967 0.359797 0.839119 0.056427
H30   H     H_    0.366148 0.635742 0.157402 0.062461
H31   H     H_    0.068879 0.385659 0.180533 0.068816
H32   H     H_    0.842994 0.470865 0.645289 0.056041
H33   H     H_    0.355403 0.525175 0.352607 0.067759
H34   H     H_    0.891620 0.271758 0.404055 -0.003036
H35   H     H_    0.709605 0.444332 0.914741 0.078548
H36   H     H_    0.556271 0.373393 0.998561 0.076372
H37   H     H_    0.642322 0.404590 0.123883 0.085137
H38   H     H_    0.201402 0.724922 0.273595 -0.080986
H39   H     H_    0.894498 0.491841 0.155471 0.129558
H40   H     H_    0.488665 0.549212 0.083269 0.079288
H41   H     H_    0.641254 0.618890 0.998422 0.078684
H42   H     H_    0.558877 0.584242 0.873494 0.099261
H43   H     H_    0.310158 0.491594 0.840610 0.132340
H44   H     H_    0.326849 0.693674 0.464474 0.075346
H45   H     H_    0.102336 0.269304 0.432478 0.072137
H46   H     H_    0.235050 0.964045 0.399703 0.068343
H47   H     H_    0.982047 0.022633 0.580458 0.083123
H48   H     H_    0.854459 0.299672 0.540073 0.059809
H49   H     H_    0.778483 0.896310 0.562654 0.100873
H50   H     H_    0.930988 0.795420 0.180123 0.124336
H51   H     H_    0.425587 0.092628 0.429691 0.093755
H52   H     H_    0.328780 0.756331 0.634828 0.030194
H53   H     H_    0.149165 0.739090 0.575952 0.012387
H54   H     H_    0.258926 0.918497 0.563277 0.200121
H55   H     H_    0.457643 0.024453 0.628007 0.129248
H56   H     H_    0.911331 0.115686 0.333642 0.122975
H57   H     H_    0.490047 0.909292 0.655033 0.120895
H58   H     H_    0.378767 0.996171 0.709826 0.108389
H59   H     H_    0.773618 0.077694 0.730316 0.121509
H60   H     H_    0.857900 0.980348 0.768963 0.141828
H61   H     H_    0.853051 0.093828 0.821313 0.143940
H62   H     H_    0.050517 0.041241 0.689921 0.125140
H63   H     H_    0.131150 0.058151 0.777498 0.101287
H64   H     H_    0.294242 0.808163 0.173848 0.192609
H65   H     H_    0.252158 0.977041 0.186953 0.096080
H66   H     H_    0.209446 0.929599 0.267862 0.111368
H67   H     H_    0.982484 0.108433 0.423141 0.073280
H68   H     H_    0.044721 0.954485 0.208192 0.115816
H69   H     H_    0.126426 0.115093 0.354782 0.112852
H70   H     H_    0.806357 0.649596 0.650158 0.016181
N1    N     N_2   0.254137 0.932217 0.617183 -0.451293
N2    N     N_2   0.178958 0.834162 0.174699 -0.427724
O1    O     O_2   0.890230 0.433890 0.328780 -0.462984
O2    O     O_2   0.264500 0.174738 0.558210 -0.470539
O3    O     O_3   0.193824 0.198418 0.689682 -0.579215
O4    O     O_3   0.136580 0.442380 0.417110 -0.495972
O5    O     O_3   0.551510 0.615640 0.531790 -0.492450
O6    O     O_2   0.394780 0.268760 0.474430 -0.459728
O7    O     O_3   0.558192 0.234212 0.356638 -0.648898
O8    O     O_2   0.508497 0.501694 0.750002 -0.509686
O9    O     O_3   0.473324 0.323041 0.764929 -0.571647
O10   O     O_3   0.636390 0.607640 0.365630 -0.471964
O11   O     O_2   0.721219 0.537813 0.242341 -0.507176
O12   O     O_3   0.639363 0.751569 0.639100 -0.656215
O13   O     O_3   0.055958 0.283673 0.326813 -0.635699
O14   O     O_3   0.669841 0.720180 0.253489 -0.599944
O15   O     O_2   0.794910 0.731270 0.525620 -0.457560
O16   O     O_3   0.045950 0.658760 0.399470 -0.480627
O17   O     O_2   0.934470 0.827910 0.443870 -0.484195
O18   O     O_3   0.009818 0.805546 0.311783 -0.607169
O19   O     O_2   0.299470 0.566150 0.671260 -0.458643
O20   O     O_3   0.053110 0.557700 0.582890 -0.490797
O21   O     O_3   0.553300 0.392440 0.634370 -0.453629
O22   O     O_3   0.121257 0.714955 0.680335 -0.659840
O23   O     O_3   0.638180 0.384440 0.468210 -0.482274
O24   O     O_3   0.143740 0.341320 0.600540 -0.461171
P1    P     P_3+3 0.064140 0.407250 0.340900 0.975779
P2    P     P_3+3 0.622060 0.719380 0.547490 0.953973
P3    P     P_3+3 0.064390 0.780202 0.396543 0.953281
P4    P     P_3+3 0.125560 0.592830 0.659110 0.978486
P5    P     P_3+3 0.129077 0.218803 0.604345 0.972415
P6    P     P_3+3 0.603806 0.610691 0.276098 0.930688
P7    P     P_3+3 0.572976 0.266660 0.448251 0.934468
P8    P     P_3+3 0.585895 0.406776 0.725394 0.955577

loop_
_geom_bond_atom_site_label_1
_geom_bond_atom_site_label_2
_ccdc_geom_bond_type
C42   C47   A    
C51   H70   S    
C57   H68   S    
C38   C39   A    
Ba2   O21   S    
C2    C60   A    
C17   C18   A    
C15   H35   S    
C45   H17   S    
O13   P1    S    
Ba2   P4    S    
C9    P1    S    
O8    P8    D    
C46   P5    S    
C53   H57   S    
C43   C44   A    
C25   C31   A    
C24   C25   A    
C15   C21   A    
C10   C26   S    
C40   N1    S    
C50   H67   S    
C54   H62   S    
C33   C35   A    
C7    C14   A    
C16   H50   S    
C8    C13   A    
C56   H20   S    
C58   O9    S    
C53   H55   S    
C36   C37   A    
C58   H21   S    
O12   P2    S    
O21   P8    S    
C57   H65   S    
C12   O14   S    
C4    H26   S    
C54   C55   S    
Ba1   Ba2   S    
C2    C11   A    
C33   P2    S    
C59   H25   S    
C15   C17   A    
C55   H60   S    
O4    P1    S    
C36   P3    S    
C6    C7    A    
O17   P3    D    
C30   H42   S    
Ba1   O15   S    
C23   H9    S    
C34   H14   S    
O18   P3    S    
Ba1   O5    S    
C16   H16   S    
C49   H34   S    
C53   H58   S    
C4    O18   S    
C28   O22   S    
O22   P4    S    
Ba2   O20   S    
C19   C20   A    
O10   P6    S    
C32   H49   S    
C1    H3    S    
C32   C39   A    
C17   H36   S    
C59   H27   S    
C3    C5    A    
C28   H53   S    
C37   H46   S    
C4    C16   S    
C44   C46   A    
C40   H12   S    
O1    P1    D    
C49   C50   S    
Ba2   O4    S    
Ba1   P1    S    
C1    H8    S    
C32   C42   A    
C3    C10   A    
C59   H24   S    
C56   H19   S    
O23   P7    S    
C37   C38   A    
O3    P5    S    
H54   N1    S    
C8    H31   S    
C57   H66   S    
C51   C52   S    
C58   C59   S    
O14   P6    S    
C29   H41   S    
C7    P6    S    
C41   C42   A    
O9    P8    S    
C35   C36   A    
C34   H13   S    
C55   H61   S    
C10   C60   A    
C9    C14   A    
C29   C30   A    
C49   O13   S    
Ba2   O24   S    
C45   O3    S    
C31   H43   S    
Ba1   O16   S    
C40   H23   S    
C54   H63   S    
C41   C43   A    
C3    H29   S    
C1    C12   S    
O24   P5    S    
C6    H30   S    
C49   H45   S    
C13   C22   S    
C5    P8    S    
O5    P2    S    
Ba2   O19   S    
C8    C9    A    
C44   H48   S    
C12   H7    S    
C20   C22   A    
C21   C26   A    
Ba2   O5    S    
C1    H15   S    
C47   H47   S    
C28   H52   S    
O6    P7    D    
O16   P3    S    
C46   C47   A    
C14   H33   S    
C50   H69   S    
O20   P4    S    
Ba1   P2    S    
C23   O7    S    
C22   C24   A    
C41   C48   A    
C52   H4    S    
O11   P6    D    
C56   H18   S    
C6    C13   A    
C11   H32   S    
C57   N2    S    
O7    P7    S    
O19   P4    D    
C48   H51   S    
Ba2   O6    S    
C30   C31   A    
Ba1   O23   S    
C19   H39   S    
C35   H44   S    
C52   H5    S    
Ba1   O10   S    
C53   N1    S    
C45   C56   S    
C58   H22   S    
C18   H37   S    
C23   H10   S    
Ba2   O23   S    
C38   C48   A    
C12   H1    S    
C60   H28   S    
C51   O12   S    
C51   H2    S    
C27   H40   S    
C16   N2    S    
C2    P4    S    
Ba1   O20   S    
C33   C39   A    
O15   P2    D    
C34   H11   S    
C23   C34   S    
C55   H59   S    
C5    C11   A    
C52   H6    S    
C18   C19   A    
H64   N2    S    
C24   C27   A    
C27   C29   A    
C25   C26   A    
C20   C21   A    
C28   C40   S    
Ba1   O1    S    
C43   P7    S    
Ba1   O4    S    
C4    H38   S    
C45   C54   S    
O2    P5    D    
C50   H56   S    
