data_mof_unit_11003.cif
_audit_creation_date              2013-03-05T15:49:33-0500
_audit_creation_method            fapswitch 2.2
_symmetry_space_group_name_H-M    P1
_symmetry_Int_Tables_number       1
_space_group_crystal_system       triclinic
_cell_length_a                    25.134377
_cell_length_b                    7.219657
_cell_length_c                    22.077279
_cell_angle_alpha                 90.001435
_cell_angle_beta                  109.714089
_cell_angle_gamma                 90.001211
_cell_volume                      3771.36634017

loop_
_atom_site_label
_atom_site_type_symbol
_atom_site_description
_atom_site_fract_x
_atom_site_fract_y
_atom_site_fract_z
_atom_type_partial_charge
O1    O     O_R   0.554350 0.505270 0.581390 -0.576651
O2    O     O_R   0.445650 0.005270 0.418610 -0.576804
O3    O     O_R   0.553380 0.177580 0.454800 -0.583799
O4    O     O_R   0.446620 0.677580 0.545200 -0.583670
C1    C     C_R   0.563639 0.344200 0.435678 1.010790
C2    C     C_R   0.436361 0.844200 0.564323 1.010830
O5    O     O_R   0.560970 0.175640 0.583140 -0.584843
O6    O     O_R   0.439030 0.675640 0.416860 -0.584676
O7    O     O_R   0.453290 0.004120 0.547860 -0.586144
O8    O     O_R   0.546710 0.504120 0.452140 -0.586065
C3    C     C_R   0.577186 0.345165 0.606764 0.958085
C4    C     C_R   0.422817 0.845157 0.393233 0.958003
O9    O     O_3   0.464660 0.338800 0.488280 -0.273727
O10   O     O_3   0.535340 0.838800 0.511720 -0.273726
V1    V     V_3+5 0.506560 0.064420 0.502170 1.234264
V2    V     V_3+5 0.493440 0.564420 0.497830 1.234433
C5    C     C_R   0.140494 0.828205 0.283867 0.257436
C6    C     C_R   0.859510 0.328011 0.716145 0.257456
H1    H     H_    0.223198 0.811366 0.396950 0.210657
H2    H     H_    0.776814 0.311287 0.603055 0.210729
C7    C     C_R   0.118285 0.928140 0.172740 -0.278785
C8    C     C_R   0.881721 0.428099 0.827259 -0.278890
C9    C     C_R   0.395906 0.882282 0.276386 -0.172108
C10   C     C_R   0.604101 0.382325 0.723610 -0.172140
C11   C     C_R   0.357754 0.909093 0.214729 -0.059148
C12   C     C_R   0.642254 0.409132 0.785268 -0.059137
C13   C     C_R   0.299902 0.916191 0.203644 -0.123796
C14   C     C_R   0.700106 0.416207 0.796352 -0.123826
C15   C     C_R   0.278108 0.896058 0.254465 0.104713
C16   C     C_R   0.721898 0.396065 0.745530 0.104691
C17   C     C_R   0.317579 0.867023 0.318505 -0.068789
C18   C     C_R   0.682427 0.367059 0.681489 -0.068682
C19   C     C_R   0.218140 0.899003 0.243150 0.091431
C20   C     C_R   0.781866 0.398969 0.756848 0.091414
C21   C     C_R   0.198733 0.851725 0.294456 -0.130060
C22   C     C_R   0.801272 0.351606 0.705548 -0.130054
C23   C     C_R   0.237558 0.831243 0.356337 -0.130370
C24   C     C_R   0.762449 0.331158 0.643664 -0.130427
C25   C     C_R   0.295367 0.844774 0.369001 0.300301
C26   C     C_R   0.704640 0.344818 0.630991 0.300224
C27   C     C_R   0.176575 0.945612 0.182848 -0.267359
C28   C     C_R   0.823431 0.445621 0.817145 -0.267319
C29   C     C_R   0.100976 0.858444 0.222633 0.402058
C30   C     C_R   0.899028 0.358287 0.777378 0.402021
C31   C     C_R   0.377367 0.860427 0.328995 -0.152496
C32   C     C_R   0.622639 0.360463 0.671000 -0.152475
H3    H     H_    0.188144 0.991820 0.142520 0.151608
H4    H     H_    0.811863 0.491909 0.857465 0.151630
H5    H     H_    0.440684 0.879603 0.283216 0.100436
H6    H     H_    0.559323 0.379649 0.716781 0.100438
H7    H     H_    0.273065 0.933146 0.154294 0.132365
H8    H     H_    0.726946 0.433138 0.845703 0.132370
H9    H     H_    0.373264 0.924498 0.174820 0.135111
H10   H     H_    0.626745 0.424539 0.825177 0.135116
C33   C     C_R   0.102134 0.799627 0.856125 0.244719
C34   C     C_R   0.897891 0.299667 0.143906 0.244935
C35   C     C_R   0.138847 0.793210 0.819967 0.231341
C36   C     C_R   0.861164 0.293222 0.180049 0.230982
C37   C     C_R   0.182412 0.925592 0.830459 -0.302916
C38   C     C_R   0.817597 0.425586 0.169552 -0.302796
C39   C     C_R   0.188910 0.062975 0.878009 0.440481
C40   C     C_R   0.811097 0.562956 0.122002 0.440569
C41   C     C_R   0.152225 0.068810 0.914374 0.416884
C42   C     C_R   0.847785 0.568801 0.085641 0.416715
C43   C     C_R   0.107544 0.938970 0.902950 -0.495005
C44   C     C_R   0.892473 0.438993 0.097073 -0.494880
N1    N     N_R   0.234387 0.067363 0.764545 0.005012
N2    N     N_R   0.765619 0.567360 0.235462 0.005012
N3    N     N_R   0.268422 0.055766 0.729606 -0.047728
N4    N     N_R   0.731581 0.555764 0.270400 -0.047732
C45   C     C_R   0.291383 0.890945 0.721514 0.108663
C46   C     C_R   0.708622 0.390941 0.278492 0.108645
N5    N     N_R   0.279000 0.738348 0.750299 -0.051552
N6    N     N_R   0.721009 0.238339 0.249712 -0.051546
N7    N     N_R   0.245105 0.750005 0.785401 -0.022396
N8    N     N_R   0.754906 0.249994 0.214612 -0.022358
C47   C     C_R   0.222044 0.914729 0.793258 0.353014
C48   C     C_R   0.777965 0.414721 0.206753 0.353011
C49   C     C_R   0.347154 0.705027 0.666747 -0.111923
C50   C     C_R   0.652817 0.205033 0.333221 -0.111878
H11   H     H_    0.334518 0.578000 0.684181 0.127979
H12   H     H_    0.665431 0.078011 0.315763 0.127947
C51   C     C_R   0.381862 0.693525 0.628699 -0.111098
C52   C     C_R   0.618107 0.193533 0.371266 -0.111044
H13   H     H_    0.395079 0.558069 0.618179 0.130766
H14   H     H_    0.604866 0.058082 0.381759 0.130668
C53   C     C_R   0.399281 0.854714 0.604743 -0.090368
C54   C     C_R   0.600717 0.354716 0.395255 -0.090311
C55   C     C_R   0.381094 0.027513 0.620116 -0.096448
C56   C     C_R   0.618934 0.527509 0.379917 -0.096509
H15   H     H_    0.393524 0.155066 0.602789 0.144874
H16   H     H_    0.606527 0.655056 0.397272 0.144934
C57   C     C_R   0.346215 0.038858 0.657771 -0.125378
C58   C     C_R   0.653814 0.538853 0.342263 -0.125387
H17   H     H_    0.333091 0.174455 0.668287 0.128015
H18   H     H_    0.666961 0.674445 0.331775 0.128054
C59   C     C_R   0.328753 0.877936 0.681667 0.122649
C60   C     C_R   0.671249 0.377936 0.318336 0.122658
O11   O     O_R   0.953220 0.285790 0.047790 -0.572565
O12   O     O_R   0.046780 0.785790 0.952210 -0.572761
O13   O     O_R   0.939020 0.617570 0.916840 -0.569312
O14   O     O_R   0.060980 0.117570 0.083160 -0.569045
C61   C     C_R   0.924054 0.447224 0.892680 1.030342
C62   C     C_R   0.075949 0.947231 0.107319 1.030559
O15   O     O_R   0.946600 0.615450 0.045180 -0.527002
O16   O     O_R   0.053400 0.115450 0.954820 -0.526897
O17   O     O_R   0.054370 0.786770 0.081410 -0.584060
O18   O     O_R   0.945630 0.286770 0.918590 -0.584061
C63   C     C_R   0.933271 0.447121 0.060592 1.070332
C64   C     C_R   0.066732 0.947117 0.939412 1.069753
O19   O     O_3   0.035300 0.454160 0.011680 -0.266589
O20   O     O_3   0.964700 0.954160 0.988320 -0.266713
V3    V     V_3+5 0.993450 0.728620 0.997830 1.340490
V4    V     V_3+5 0.006550 0.228620 0.002170 1.340675
Cl1   Cl    Cl    0.030259 0.789753 0.208018 -0.433318
Cl2   Cl    Cl    0.969741 0.289501 0.792011 -0.433341
N9    N     N_R   0.129671 0.656648 0.770082 0.272031
O21   O     O_R   0.122310 0.707513 0.711264 -0.296947
O22   O     O_R   0.127335 0.481565 0.782908 -0.272596
N10   N     N_R   0.870345 0.156709 0.229946 0.271953
O23   O     O_R   0.877745 0.207639 0.288768 -0.296991
O24   O     O_R   0.872589 0.981591 0.217114 -0.272664
Cl3   Cl    Cl    0.245219 0.223827 0.895119 -0.534517
Cl4   Cl    Cl    0.754782 0.723775 0.104884 -0.534452
Cl5   Cl    Cl    0.166041 0.232253 0.977654 -0.543968
Cl6   Cl    Cl    0.833959 0.732201 0.022349 -0.544015
N11   N     N_R   0.121299 0.763339 0.334475 0.259921
O25   O     O_R   0.136640 0.600997 0.359995 -0.314880
O26   O     O_R   0.085504 0.860953 0.352069 -0.235690
N12   N     N_R   0.878702 0.263037 0.665546 0.259929
O27   O     O_R   0.863324 0.100714 0.640023 -0.314912
O28   O     O_R   0.914522 0.360540 0.647957 -0.235533
N13   N     N_R   0.329935 0.846547 0.434807 0.200084
O29   O     O_R   0.329444 0.701688 0.469662 -0.401097
O30   O     O_R   0.342450 0.007156 0.462634 -0.410290
N14   N     N_R   0.670079 0.346866 0.565181 0.200136
O31   O     O_R   0.670708 0.202466 0.530191 -0.401257
O32   O     O_R   0.657412 0.507592 0.537505 -0.410218
N15   N     N_R   0.057889 0.665874 0.843238 0.281134
O33   O     O_R   0.006287 0.712568 0.809902 -0.318082
O34   O     O_R   0.067909 0.507578 0.873062 -0.273947
N16   N     N_R   0.942126 0.165882 0.156784 0.281354
O35   O     O_R   0.993828 0.213177 0.189437 -0.319137
O36   O     O_R   0.931987 0.007358 0.127114 -0.273754

loop_
_geom_bond_atom_site_label_1
_geom_bond_atom_site_label_2
_geom_bond_distance
_ccdc_geom_bond_type
C51   C53   1.407792 A    
C41   C43   1.418586 A    
O12   C64   1.335473 A    
C9    C31   1.398634 A    
C13   C15   1.412330 A    
O13   V3    2.015205 S    
N1    C47   1.358352 A    
C50   C52   1.402806 A    
O2    C4    1.327590 A    
C37   C47   1.491597 S    
O11   V4    1.972880 S    
C5    C29   1.398550 A    
C46   C60   1.490777 S    
C12   C14   1.391682 A    
O5    C3    1.338888 A    
C26   N14   1.419233 S    
C38   C48   1.491595 S    
N6    N8    1.333722 A    
O16   V4    1.994348 S    
O15   V3    1.994350 S    
C21   C23   1.393245 A    
C11   H9    1.082744 S    
N9    O22   1.301021 A    
O16   C64   1.334864 A    
O14   C62   1.342790 A    
C9    H5    1.084120 S    
C58   C60   1.406034 A    
C36   C38   1.412407 A    
O11   C63   1.335498 A    
C15   C19   1.442448 A    
C33   N15   1.427094 S    
C38   C40   1.413051 A    
O18   V4    2.004877 S    
N3    C45   1.360333 A    
O17   V3    2.004843 S    
C40   C42   1.412765 A    
H1    C23   1.083102 S    
C29   Cl1   1.767012 S    
C7    C29   1.406801 A    
C7    C62   1.483402 S    
C8    C30   1.406818 A    
N10   O24   1.301015 A    
C20   C28   1.427818 A    
C49   C51   1.402809 A    
O1    C3    1.327591 A    
C61   O18   1.324395 A    
C55   H15   1.082879 S    
C14   H8    1.077611 S    
C34   N16   1.427147 S    
N2    N4    1.333798 A    
O5    V1    2.015213 S    
O6    V2    2.015272 S    
C10   H6    1.084120 S    
N5    N7    1.333724 A    
C2    O7    1.323063 A    
C12   H10   1.082740 S    
C40   Cl4   1.770198 S    
O20   V3    1.765048 S    
C33   C43   1.415743 A    
C13   H7    1.077607 S    
C56   C58   1.399292 A    
N2    C48   1.358351 A    
C23   C25   1.387381 A    
C37   C39   1.413067 A    
C16   C20   1.442430 A    
C16   C18   1.442482 A    
C52   C54   1.407786 A    
C45   C59   1.490772 S    
C46   N6    1.359385 A    
C45   N5    1.359385 A    
C5    N11   1.436688 S    
C8    C61   1.483388 S    
N1    N3    1.333798 A    
C42   C44   1.418590 A    
O4    V2    1.994058 S    
N12   O28   1.301059 A    
N11   O26   1.301059 A    
O14   V4    2.015264 S    
C6    C30   1.398564 A    
H2    C24   1.083101 S    
C56   H16   1.082875 S    
C17   C25   1.414299 A    
O6    C4    1.338879 A    
C36   N10   1.437591 S    
C27   H3    1.078513 S    
O1    V2    2.005996 S    
C28   H4    1.078519 S    
C58   H18   1.082921 S    
O2    V1    2.005963 S    
N7    C47   1.359496 A    
C41   Cl5   1.771264 S    
C7    C27   1.411247 A    
N14   O32   1.300001 A    
C51   H13   1.082930 S    
C54   C56   1.408957 A    
C42   Cl6   1.771270 S    
C33   C35   1.409913 A    
N13   O29   1.300958 A    
N16   O36   1.300461 A    
C6    N12   1.436692 S    
O4    C2    1.328611 A    
N11   O25   1.301266 A    
C57   C59   1.406035 A    
O3    V1    1.994059 S    
N10   O23   1.301243 A    
C35   N9    1.437609 S    
C25   N13   1.419201 S    
O15   C63   1.334846 A    
C50   C60   1.408386 A    
N16   O35   1.301122 A    
C18   C32   1.442004 A    
C49   C59   1.408391 A    
C39   C41   1.412776 A    
O12   V3    1.972879 S    
C10   C12   1.388988 A    
N8    C48   1.359495 A    
N14   O31   1.300774 A    
O3    C1    1.328617 A    
N15   O33   1.301348 A    
C4    C31   1.495146 S    
C11   C13   1.391685 A    
C49   H11   1.082833 S    
O13   C61   1.342799 A    
C39   Cl3   1.770194 S    
C19   C27   1.427831 A    
C14   C16   1.412323 A    
N12   O27   1.301266 A    
O7    V1    1.977590 S    
C10   C32   1.398634 A    
C1    O8    1.323059 A    
C15   C17   1.442488 A    
O8    V2    1.977594 S    
N9    O21   1.301245 A    
C24   C26   1.387424 A    
N15   O34   1.300478 A    
C8    C28   1.411241 A    
C34   C44   1.415800 A    
C22   C24   1.393247 A    
C19   C21   1.417831 A    
C50   H12   1.082829 S    
C34   C36   1.409924 A    
O19   V4    1.765010 S    
C20   C22   1.417819 A    
C18   C26   1.414327 A    
C44   C63   1.503591 S    
C55   C57   1.399292 A    
C43   C64   1.503581 S    
C35   C37   1.412414 A    
C2    C53   1.493934 S    
C9    C11   1.388989 A    
C30   Cl2   1.767067 S    
C57   H17   1.082925 S    
C17   C31   1.441991 A    
O9    V2    1.765803 S    
C1    C54   1.493928 S    
C53   C55   1.408969 A    
O10   V1    1.765841 S    
C52   H14   1.082925 S    
C3    C32   1.495147 S    
N4    C46   1.360332 A    
C5    C21   1.412573 A    
C6    C22   1.412581 A    
C62   O17   1.324411 A    
N13   O30   1.300184 A    
