data_mof_unit_40461.cif
_audit_creation_date              2013-03-05T15:41:39-0500
_audit_creation_method            fapswitch 2.2
_symmetry_space_group_name_H-M    P1
_symmetry_Int_Tables_number       1
_space_group_crystal_system       triclinic
_cell_length_a                    7.797358
_cell_length_b                    8.626223
_cell_length_c                    15.736058
_cell_angle_alpha                 91.378754
_cell_angle_beta                  85.451662
_cell_angle_gamma                 93.540691
_cell_volume                      1052.89219014

loop_
_atom_site_label
_atom_site_type_symbol
_atom_site_description
_atom_site_fract_x
_atom_site_fract_y
_atom_site_fract_z
_atom_type_partial_charge
O1    O     O_R   0.389240 0.738570 0.505550 -0.659591
O2    O     O_R   0.678400 0.711630 0.491050 -0.530163
C1    C     C_R   0.545659 0.794194 0.501239 0.846184
O3    O     O_R   0.355360 0.513470 0.630110 -0.663827
O4    O     O_R   0.644510 0.486530 0.615610 -0.574491
C2    C     C_R   0.501520 0.500064 0.661328 0.843629
Zn1   Zn    Zn3+2 0.306930 0.517990 0.509680 0.976509
Zn2   Zn    Zn3+2 0.693070 0.482010 0.490320 1.063278
O5    O     O_R   0.321600 0.288370 0.508950 -0.642969
O6    O     O_R   0.610760 0.261430 0.494450 -0.553940
O7    O     O_R   0.355490 0.513470 0.384390 -0.626453
O8    O     O_R   0.644640 0.486530 0.369890 -0.613670
C3    C     C_R   0.455050 0.205615 0.504533 0.977315
C4    C     C_R   0.498589 0.500198 0.338577 0.898023
C5    C     C_3   0.359424 0.605041 0.954284 0.234019
C6    C     C_3   0.688418 0.546968 0.946514 0.289113
C7    C     C_3   0.683245 0.566254 0.045449 0.239098
H1    H     H_    0.761394 0.442271 0.933248 0.185156
H2    H     H_    0.779208 0.490022 0.069245 0.083725
C8    C     C_1   0.495770 0.502538 0.250075 -0.089388
C9    C     C_3   0.503835 0.498178 0.916194 -0.173721
C10   C     C_3   0.363386 0.619018 0.053465 0.115571
C11   C     C_3   0.498831 0.504895 0.083272 -0.268648
C12   C     C_3   0.466890 0.327116 0.049866 0.577035
C13   C     C_3   0.448028 0.330636 0.950248 -0.095834
C14   C     C_1   0.495637 0.504445 0.174902 0.161103
C15   C     C_1   0.505971 0.498020 0.824695 0.166318
C16   C     C_1   0.504951 0.498787 0.749631 -0.175436
H3    H     H_    0.309992 0.308955 0.938961 0.131532
H4    H     H_    0.231789 0.543929 0.943721 0.048659
H5    H     H_    0.234017 0.582946 0.081180 0.013735
C17   C     C_2   0.570557 0.956478 0.512969 0.343968
C18   C     C_2   0.433395 0.042226 0.507166 -0.512541
H6    H     H_    0.304391 0.991332 0.499083 0.180914
N1    N     N_2   0.950340 0.457950 0.477370 -0.076091
H7    H     H_    0.012105 0.375729 0.439918 0.163240
N2    N     N_2   0.049660 0.542050 0.522630 0.124977
N3    N     N_R   0.385822 0.782123 0.084736 0.313691
O9    O     O_R   0.289373 0.884856 0.057086 -0.304792
O10   O     O_R   0.446844 0.812676 0.158319 -0.311948
N4    N     N_R   0.617596 0.240573 0.070607 0.234593
O11   O     O_R   0.623310 0.191577 0.147913 -0.329789
O12   O     O_R   0.747574 0.214094 0.016209 -0.438288
O13   O     O_3   0.734560 0.018210 0.527811 -0.562781
C19   C     C_3   0.748968 0.024080 0.616720 -0.196732
H8    H     H_    0.724839 0.907095 0.645270 0.131728
H9    H     H_    0.659488 0.106747 0.648891 0.166685
H10   H     H_    0.882345 0.066445 0.628764 0.186152
O14   O     O_3   0.966210 0.653506 0.567421 -0.481540
C20   C     C_3   0.048332 0.685101 0.642484 -0.108453
H11   H     H_    0.175778 0.747118 0.629028 0.164215
H12   H     H_    0.056474 0.577395 0.679036 0.161288
H13   H     H_    0.969079 0.763434 0.683860 0.111591
O15   O     O_3   0.373265 0.751741 0.914497 -0.547469
C21   C     C_3   0.235217 0.771228 0.863366 -0.175541
H14   H     H_    0.116099 0.790785 0.904356 0.203841
H15   H     H_    0.213712 0.670858 0.819012 0.115880
H16   H     H_    0.265929 0.875330 0.823754 0.187019
O16   O     O_3   0.798291 0.657746 0.899059 -0.677707
C22   C     C_3   0.729412 0.802182 0.888436 0.009904
H17   H     H_    0.658128 0.846006 0.946626 0.291468
H18   H     H_    0.651058 0.797294 0.832544 0.171277
H19   H     H_    0.837785 0.888936 0.873360 0.141541
O17   O     O_3   0.721067 0.722833 0.070824 -0.539793
C23   C     C_3   0.893698 0.747650 0.091077 -0.102654
H20   H     H_    0.984251 0.707687 0.038223 0.145493
H21   H     H_    0.914215 0.688031 0.150994 0.137018
H22   H     H_    0.921872 0.874038 0.101290 0.230833
N5    N     N_R   0.529553 0.201976 0.902697 0.255692
O18   O     O_R   0.464197 0.061784 0.915342 -0.321262
O19   O     O_R   0.658918 0.223453 0.845767 -0.434284
O20   O     O_3   0.323381 0.237878 0.091026 -0.523242
C24   C     C_3   0.161621 0.302731 0.101395 -0.214109
H23   H     H_    0.122957 0.355477 0.043064 0.114503
H24   H     H_    0.154968 0.382152 0.157888 0.146171
H25   H     H_    0.063231 0.206848 0.116300 0.243463

loop_
_geom_bond_atom_site_label_1
_geom_bond_atom_site_label_2
_geom_bond_distance
_ccdc_geom_bond_type
C11   C14   1.440235 S    
O4    Zn2   1.977802 S    
C20   H12   1.112147 S    
C11   C12   1.620177 S    
O6    C3    1.277507 A    
C3    C18   1.410324 S    
C6    C9    1.581352 S    
C2    C16   1.392236 S    
N2    O14   1.347776 S    
N4    O11   1.302360 A    
C1    C17   1.411081 S    
Zn1   O7    1.977802 S    
N1    H7    1.029259 S    
Zn2   O8    1.963256 S    
C21   H14   1.107383 S    
C23   H22   1.109200 S    
O17   C23   1.410123 S    
C19   H9    1.113402 S    
O2    C1    1.289758 A    
Zn1   N2    2.023190 S    
O16   C22   1.405588 S    
C23   H20   1.110072 S    
O7    C4    1.289210 A    
O1    Zn1   1.971084 S    
C19   H8    1.113807 S    
C17   C18   1.347498 D    
C22   H18   1.108536 S    
N3    O10   1.301470 A    
C12   N4    1.491852 S    
N4    O12   1.301410 A    
C12   O20   1.437668 S    
C7    C11   1.577181 S    
C8    C14   1.183515 T    
C22   H17   1.104044 S    
O3    Zn1   1.963258 S    
Zn2   O6    1.971084 S    
C7    H2    1.117858 S    
O8    C4    1.289171 A    
C20   H11   1.106782 S    
Zn1   O5    1.990799 S    
N5    O18   1.296584 A    
C21   H15   1.111955 S    
C7    O17   1.419252 S    
C13   H3    1.108533 S    
O4    C2    1.288065 A    
C9    C15   1.438568 S    
C24   H25   1.109101 S    
C22   H19   1.108612 S    
C19   H10   1.109972 S    
C20   H13   1.108595 S    
C13   N5    1.472236 S    
C10   H5    1.096610 S    
C24   H24   1.109110 S    
O3    C2    1.288930 A    
C10   N3    1.484007 S    
C5    O15   1.419716 S    
C4    C8    1.395239 S    
C5    C9    1.572108 S    
C18   H6    1.088021 S    
C12   C13   1.587236 S    
C17   O13   1.389495 S    
C5    H4    1.119468 S    
C6    H1    1.103905 S    
O14   C20   1.400879 S    
C24   H23   1.105159 S    
C21   H16   1.108608 S    
C15   C16   1.182061 T    
N5    O19   1.302287 A    
C9    C13   1.577298 S    
O15   C21   1.414400 S    
C6    C7    1.559318 S    
O5    C3    1.294250 A    
N1    N2    1.275348 D    
C10   C11   1.591760 S    
Zn2   N1    2.023190 S    
C5    C10   1.565085 S    
O2    Zn2   1.990800 S    
O13   C19   1.411878 S    
C23   H21   1.111981 S    
O20   C24   1.407335 S    
O1    C1    1.280065 A    
C6    O16   1.427069 S    
N3    O9    1.301154 A    
