data_mof_unit_25358.cif
_audit_creation_date              2012-12-11T15:30:38-0500
_audit_creation_method            fapswitch 2.2
_symmetry_space_group_name_H-M    P1
_symmetry_Int_Tables_number       1
_space_group_crystal_system       triclinic
_cell_length_a                    7.034028
_cell_length_b                    20.502174
_cell_length_c                    24.280668
_cell_angle_alpha                 89.910785
_cell_angle_beta                  91.974388
_cell_angle_gamma                 88.431272
_cell_volume                      3498.1833762

loop_
_atom_site_label
_atom_site_type_symbol
_atom_type_description
_atom_site_fract_x
_atom_site_fract_y
_atom_site_fract_z
_atom_type_partial_charge
O1    O     O_R   0.507310 0.423620 0.460450 -0.533393
O2    O     O_R   0.170760 0.556060 0.437190 -0.534782
O3    O     O_R   0.004040 0.576380 0.539550 -0.530465
C1    C     C_R   0.335113 0.576242 0.421205 0.736809
O4    O     O_R   0.177350 0.422870 0.454070 -0.536458
O5    O     O_R   0.010680 0.442240 0.556560 -0.539480
C2    C     C_R   0.345567 0.398845 0.443479 0.711765
O6    O     O_R   0.500670 0.557760 0.443440 -0.522266
O7    O     O_3   0.340380 0.506510 0.533610 -0.369157
V1    V     V_3+5 0.064130 0.498790 0.493770 1.565469
O8    O     O_R   0.681170 0.443940 0.562810 -0.533756
C3    C     C_R   0.853360 0.424239 0.578409 0.706503
O9    O     O_R   0.674570 0.577130 0.545930 -0.528457
C4    C     C_R   0.842418 0.601158 0.555980 0.775926
V2    V     V_3+5 0.564560 0.501210 0.506230 1.572976
O10   O     O_3   0.838170 0.493490 0.466390 -0.365936
C5    C     C_R   0.975539 0.837754 0.911711 -0.170824
C6    C     C_R   0.847365 0.662702 0.587138 -0.156320
C7    C     C_R   0.006480 0.718967 0.908163 -0.036853
C8    C     C_R   0.983094 0.776982 0.939229 -0.200768
C9    C     C_R   0.967577 0.840538 0.853598 0.321647
C10   C     C_R   0.957942 0.781960 0.822095 0.003841
C11   C     C_R   0.004451 0.722374 0.849609 -0.026599
C12   C     C_R   0.913088 0.780078 0.763992 0.027661
C13   C     C_R   0.957542 0.722710 0.732625 -0.018138
C14   C     C_R   0.058448 0.670957 0.760578 0.360972
C15   C     C_R   0.066133 0.669023 0.817949 -0.101590
C16   C     C_R   0.812942 0.832170 0.737290 -0.050695
C17   C     C_R   0.778534 0.832538 0.680750 -0.131139
C18   C     C_R   0.820914 0.777553 0.649396 0.037418
C19   C     C_R   0.899437 0.720294 0.675225 0.115616
C20   C     C_R   0.771635 0.778146 0.592899 -0.145410
C21   C     C_R   0.786998 0.721448 0.561651 0.386367
C22   C     C_R   0.899804 0.662123 0.643526 -0.184579
H1    H     H_    0.136231 0.627015 0.837533 0.208494
H2    H     H_    0.925603 0.615031 0.662396 0.187994
H3    H     H_    0.706986 0.874892 0.661904 0.156942
H4    H     H_    0.752417 0.872419 0.759935 0.190473
H5    H     H_    0.715510 0.822474 0.573242 0.176490
C23   C     C_3   0.720652 0.243190 0.790928 0.158270
C24   C     C_3   0.062841 0.264562 0.801896 0.228710
C25   C     C_3   0.064937 0.309527 0.750217 0.183881
H6    H     H_    0.028129 0.294505 0.838362 0.242200
H7    H     H_    0.197736 0.298967 0.728363 0.136801
C26   C     C_1   0.871637 0.379182 0.624117 -0.090516
C27   C     C_3   0.919404 0.209132 0.792918 -0.074086
C28   C     C_3   0.696334 0.291702 0.739419 -0.147228
C29   C     C_3   0.894092 0.294276 0.709357 0.026673
C30   C     C_3   0.941372 0.224339 0.687617 -0.480965
C31   C     C_3   0.958753 0.174620 0.736393 -0.235761
C32   C     C_1   0.884810 0.341114 0.662327 0.105445
C33   C     C_1   0.935576 0.160549 0.838955 0.153479
C34   C     C_1   0.951856 0.121569 0.876455 -0.056536
H8    H     H_    0.108335 0.155204 0.738321 0.218356
H9    H     H_    0.834092 0.209321 0.655719 0.204900
H10   H     H_    0.621050 0.202692 0.786840 0.138119
H11   H     H_    0.078259 0.224101 0.665859 0.191277
C35   C     C_3   0.581851 0.697333 0.271781 0.156303
C36   C     C_3   0.236492 0.696248 0.238298 -0.293700
C37   C     C_3   0.287032 0.742089 0.188818 0.671268
H12   H     H_    0.086962 0.705225 0.249844 0.230109
H13   H     H_    0.244805 0.644136 0.225866 0.239113
C38   C     C_1   0.490652 0.877289 0.124556 -0.075675
C39   C     C_3   0.372146 0.707026 0.289792 -0.105395
C40   C     C_3   0.632335 0.748819 0.226626 0.617175
C41   C     C_3   0.448896 0.789517 0.207549 -0.088293
C42   C     C_3   0.375833 0.827134 0.259413 -0.459377
C43   C     C_3   0.336770 0.779395 0.307856 -0.246178
C44   C     C_1   0.482749 0.837979 0.162254 0.218820
C45   C     C_1   0.340054 0.660222 0.336317 0.108875
C46   C     C_1   0.333364 0.621909 0.374798 -0.071340
H14   H     H_    0.183503 0.785283 0.317500 0.237958
H15   H     H_    0.477124 0.865205 0.272635 0.220333
H16   H     H_    0.677105 0.703709 0.308756 0.127082
H17   H     H_    0.242647 0.855442 0.248749 0.250703
C47   C     C_R   0.480177 0.164298 0.086705 -0.121828
C48   C     C_R   0.345126 0.337823 0.410895 -0.126008
C49   C     C_R   0.636854 0.266778 0.103524 -0.088513
C50   C     C_R   0.587822 0.216344 0.067336 -0.062270
C51   C     C_R   0.406784 0.167982 0.139994 -0.177733
C52   C     C_R   0.441636 0.222325 0.175170 0.087157
C53   C     C_R   0.573575 0.268000 0.157577 0.035183
C54   C     C_R   0.365110 0.229696 0.229158 -0.056773
C55   C     C_R   0.451475 0.274491 0.267736 0.008417
C56   C     C_R   0.609706 0.310134 0.250443 0.380954
C57   C     C_R   0.655542 0.311044 0.195214 -0.181016
C58   C     C_R   0.205496 0.194507 0.246132 -0.033952
C59   C     C_R   0.165982 0.191415 0.302117 -0.055559
C60   C     C_R   0.249998 0.233737 0.340397 0.011674
C61   C     C_R   0.378390 0.280710 0.322107 0.074066
C62   C     C_R   0.191816 0.234559 0.395555 0.420799
C63   C     C_R   0.241563 0.285881 0.430204 -0.152902
C64   C     C_R   0.413792 0.335077 0.357200 -0.102004
H18   H     H_    0.770785 0.341243 0.182683 0.179642
H19   H     H_    0.476358 0.378566 0.341643 0.177304
H20   H     H_    0.187443 0.287569 0.471468 0.151346
H21   H     H_    0.052033 0.160841 0.314602 0.218595
H22   H     H_    0.731116 0.304242 0.090192 0.177377
H23   H     H_    0.337453 0.125464 0.155126 0.121351
O11   O     O_R   0.323590 0.942280 0.056590 -0.536381
O12   O     O_R   0.647030 0.077140 0.045940 -0.546201
O13   O     O_R   0.813570 0.057750 0.943430 -0.543435
C65   C     C_R   0.478927 0.101716 0.055890 0.665356
O14   O     O_R   0.653510 0.943950 0.062820 -0.529107
O15   O     O_R   0.820100 0.923600 0.960440 -0.536620
C66   C     C_R   0.489144 0.923689 0.078720 0.704444
O16   O     O_R   0.317060 0.076430 0.039590 -0.536655
O17   O     O_3   0.483830 0.993520 0.966410 -0.362306
V3    V     V_3+5 0.760140 0.001200 0.006230 1.518782
O18   O     O_R   0.149560 0.922820 0.954030 -0.527599
C67   C     C_R   0.981591 0.898921 0.943885 0.754587
O19   O     O_R   0.143080 0.056020 0.937150 -0.522342
C68   C     C_R   0.970844 0.075840 0.921653 0.749209
V4    V     V_3+5 0.259690 0.998730 0.993720 1.537557
O20   O     O_3   0.986120 0.006480 0.033580 -0.375868
C69   C     C_2   0.622069 0.359938 0.754912 0.683302
H24   H     H_    0.502050 0.382424 0.732001 0.080765
O21   O     O_2   0.696335 0.391857 0.791671 -0.418359
Cl1   Cl    Cl    0.674062 0.279302 0.857759 -0.441777
Cl2   Cl    Cl    0.288332 0.229962 0.819133 -0.665602
Cl3   Cl    Cl    0.087727 0.393697 0.768629 -0.485393
C70   C     C_2   0.832687 0.117103 0.725549 0.470524
H25   H     H_    0.680536 0.124348 0.718628 0.041633
O22   O     O_2   0.901287 0.061809 0.724075 -0.477379
C71   C     C_2   0.544441 0.264936 0.699273 0.224728
H26   H     H_    0.471232 0.220435 0.708047 0.098935
O23   O     O_2   0.501244 0.293188 0.656079 -0.531035
Cl4   Cl    Cl    0.744050 0.710354 0.169094 -0.349106
Cl5   Cl    Cl    0.629156 0.613268 0.252982 -0.502349
Cl6   Cl    Cl    0.338779 0.692497 0.130034 -0.422846
Cl7   Cl    Cl    0.090445 0.791624 0.162882 -0.520479
C72   C     C_2   0.450147 0.797118 0.359490 0.519023
H27   H     H_    0.604128 0.798055 0.359541 0.118118
O24   O     O_2   0.369082 0.811028 0.401726 -0.468475
Cl8   Cl    Cl    0.719825 0.724836 0.491072 -0.612298
Cl9   Cl    Cl    0.804028 0.802869 0.256956 -0.672907
C73   C     C_2   0.656910 0.217091 0.010099 0.494568
H28   H     H_    0.607378 0.181737 0.980050 0.050707
O25   O     O_2   0.769293 0.257568 0.995604 -0.474796
Cl10  Cl    Cl    0.781810 0.344098 0.295940 -0.643494
C74   C     C_2   0.059984 0.169215 0.206253 0.388353
H29   H     H_    0.047794 0.188501 0.164605 0.058574
O26   O     O_2   0.948848 0.127812 0.219749 -0.508497
Cl11  Cl    Cl    0.045742 0.174500 0.422529 -0.573371
C75   C     C_2   0.036948 0.655436 0.937348 0.547600
H30   H     H_    0.126177 0.652451 0.974676 0.115052
O27   O     O_2   0.957384 0.606547 0.921045 -0.466325
C76   C     C_2   0.972269 0.775499 0.000590 0.483229
H31   H     H_    0.023976 0.815842 0.025227 0.063049
O28   O     O_2   0.898577 0.730577 0.024206 -0.445824
Cl12  Cl    Cl    0.014056 0.916796 0.822604 -0.633554
Cl13  Cl    Cl    0.208119 0.613229 0.728090 -0.590118

loop_
_geom_bond_atom_site_label_1
_geom_bond_atom_site_label_2
_ccdc_geom_bond_type
C13   C19   A    
C23   C28   S    
C54   C58   A    
C58   C59   A    
C48   C63   A    
C24   C25   S    
C4    C6    S    
O2    C1    A    
C7    C8    A    
C31   C70   S    
C47   C50   A    
C1    O6    A    
O14   C66   A    
C52   C53   A    
C56   C57   A    
C69   H24   S    
C23   C27   S    
C73   O25   D    
C14   C15   A    
C7    C75   S    
C55   C61   A    
C54   C55   A    
C39   C43   S    
C16   C17   A    
C76   O28   D    
C74   O26   D    
O5    C3    A    
O14   V3    S    
C41   C44   S    
C26   C32   T    
C35   Cl5   S    
O12   V3    S    
V2    O10   S    
C27   C33   S    
C63   H20   S    
C5    C8    A    
C30   H11   S    
O17   V3    S    
C20   H5    S    
O17   V4    S    
C43   C72   S    
C49   C53   A    
O18   C67   A    
C57   H18   S    
C52   C54   A    
O8    V2    S    
C55   C56   A    
C29   C32   S    
C38   C44   T    
C72   H27   S    
C23   H10   S    
C49   H22   S    
C24   C27   S    
C8    C76   S    
C45   C46   T    
C42   H15   S    
C39   C45   S    
C60   C62   A    
O7    V1    S    
O18   V4    S    
C59   H21   S    
C2    C48   S    
C47   C65   S    
C41   C42   S    
O15   C67   A    
C37   C41   S    
C36   C37   S    
O12   C65   A    
C9    C10   A    
C24   H6    S    
C25   H7    S    
C5    C67   S    
C37   Cl7   S    
O19   V4    S    
O19   C68   A    
C75   O27   D    
C34   C68   S    
C28   C71   S    
C70   H25   S    
C35   C39   S    
C28   C69   S    
C36   H12   S    
C42   C43   S    
C40   Cl4   S    
C12   C16   A    
O11   V4    S    
C12   C13   A    
C37   Cl6   S    
C62   C63   A    
O4    C2    A    
C49   C50   A    
C3    C26   S    
C25   C29   S    
C15   H1    S    
C13   C14   A    
C53   C57   A    
C5    C9    A    
C7    C11   A    
O16   V4    S    
C17   C18   A    
C21   Cl8   S    
C35   C40   S    
C28   C29   S    
C16   H4    S    
C43   H14   S    
C36   C39   S    
C19   C22   A    
C31   H8    S    
C58   C74   S    
C38   C66   S    
C64   H19   S    
C6    C22   A    
C56   Cl10  S    
O3    C4    A    
O1    V2    S    
C29   C30   S    
C50   C73   S    
C30   C31   S    
O6    V2    S    
C11   C15   A    
O9    V2    S    
C51   H23   S    
C71   H26   S    
C10   C12   A    
C42   H17   S    
C70   O22   D    
O2    V1    S    
C75   H30   S    
C33   C34   T    
C35   H16   S    
C61   C64   A    
C62   Cl11  S    
O15   V3    S    
C36   H13   S    
O1    C2    A    
C47   C51   A    
C51   C52   A    
O5    V1    S    
C65   O16   A    
O8    C3    A    
V4    O20   S    
C73   H28   S    
C27   C31   S    
O11   C66   A    
C20   C21   A    
C14   Cl13  S    
O7    V2    S    
O4    V1    S    
O13   C68   A    
C30   H9    S    
C74   H29   S    
C18   C20   A    
C18   C19   A    
O3    V1    S    
C48   C64   A    
C69   O21   D    
C22   H2    S    
C76   H31   S    
C9    Cl12  S    
C24   Cl2   S    
C6    C21   A    
C40   Cl9   S    
V3    O20   S    
C23   Cl1   S    
C59   C60   A    
C72   O24   D    
C40   C41   S    
C17   H3    S    
C71   O23   D    
C10   C11   A    
O13   V3    S    
V1    O10   S    
C60   C61   A    
O9    C4    A    
C1    C46   S    
C25   Cl3   S    
