data_mof_unit_11478.cif
_audit_creation_date              2012-12-10T19:07:38-0500
_audit_creation_method            fapswitch 2.2
_symmetry_space_group_name_H-M    P1
_symmetry_Int_Tables_number       1
_space_group_crystal_system       triclinic
_cell_length_a                    10.814477
_cell_length_b                    10.836943
_cell_length_c                    9.546541
_cell_angle_alpha                 90.825564
_cell_angle_beta                  89.941719
_cell_angle_gamma                 91.28472
_cell_volume                      1118.41756358

loop_
_atom_site_label
_atom_site_type_symbol
_atom_type_description
_atom_site_fract_x
_atom_site_fract_y
_atom_site_fract_z
_atom_type_partial_charge
C1    C     C_R   0.495978 0.262608 0.499141 0.817411
C2    C     C_R   0.520146 0.940938 0.621545 0.060314
C3    C     C_3   0.639572 0.943508 0.701459 -0.448413
C4    C     C_R   0.262458 0.496855 0.500126 0.782172
C5    C     C_3   0.639894 0.082607 0.695056 -0.458619
C6    C     C_R   0.590937 0.561871 0.074793 0.252977
C7    C     C_R   0.418441 0.428157 0.073353 -0.091298
C8    C     C_R   0.419026 0.427561 0.924401 -0.040374
C9    C     C_R   0.590322 0.562307 0.927276 0.247513
C10   C     C_3   0.614643 0.697364 0.925122 -0.511660
C11   C     C_3   0.619032 0.696793 0.083377 -0.492794
C12   C     C_R   0.937269 0.526852 0.619036 -0.058095
C13   C     C_R   0.497629 0.737947 0.500883 0.833500
C14   C     C_R   0.737645 0.499524 0.499732 0.833084
C15   C     C_R   0.064756 0.520076 0.622395 -0.050711
C16   C     C_R   0.129301 0.486232 0.501812 -0.115034
C17   C     C_R   0.063433 0.441707 0.383941 -0.212112
C18   C     C_R   0.934286 0.443359 0.383387 -0.226889
C19   C     C_R   0.870731 0.491544 0.499716 -0.042262
C20   C     C_3   0.955662 0.784389 0.503969 0.044823
C21   C     C_3   0.867649 0.840468 0.399426 -0.811053
C22   C     C_3   0.096150 0.509322 0.911533 -0.298633
C23   C     C_3   0.938004 0.646930 0.700120 0.220072
C24   C     C_3   0.255698 0.832237 0.307038 0.044583
C25   C     C_3   0.205427 0.752215 0.186897 -0.699057
C26   C     C_3   0.079079 0.636809 0.709781 0.285786
C27   C     C_R   0.520972 0.067886 0.618184 0.132757
C28   C     C_R   0.484066 0.129761 0.499815 -0.161061
C29   C     C_R   0.430557 0.062373 0.388091 -0.295108
C30   C     C_R   0.427173 0.932912 0.390508 0.420267
C31   C     C_R   0.483646 0.871336 0.503329 -0.211067
Cu1   Cu    Cu3+1 0.499990 0.499980 0.640670 0.959191
Cu2   Cu    Cu3+1 0.500010 0.500020 0.359330 0.941640
H1    H     H_    0.111477 0.409647 0.291161 0.147553
H2    H     H_    0.543631 0.750452 0.131737 0.271513
H3    H     H_    0.884796 0.411128 0.290811 0.155730
H4    H     H_    0.890722 0.636627 0.802485 0.116719
H5    H     H_    0.133907 0.709164 0.655002 0.069194
H6    H     H_    0.394259 0.109344 0.298069 0.172028
H7    H     H_    0.629090 0.914373 0.811037 0.207037
H8    H     H_    0.001354 0.706883 0.449296 0.148512
H9    H     H_    0.026950 0.855521 0.533282 0.140393
H10   H     H_    0.832706 0.929371 0.440666 0.239161
H11   H     H_    0.917019 0.858384 0.299443 0.203047
H12   H     H_    0.716301 0.900947 0.643060 0.252595
H13   H     H_    0.788366 0.775900 0.378529 0.252679
H14   H     H_    0.144168 0.433436 0.856225 0.168811
H15   H     H_    0.995169 0.489261 0.915978 0.137531
H16   H     H_    0.130555 0.512021 0.020950 0.173214
H17   H     H_    0.196474 0.914545 0.318827 0.132005
H18   H     H_    0.250032 0.776975 0.404525 0.111145
H19   H     H_    0.264019 0.670219 0.171710 0.266134
H20   H     H_    0.109409 0.720532 0.210529 0.184847
H21   H     H_    0.205210 0.805827 0.088626 0.259483
H22   H     H_    0.627918 0.128431 0.799000 0.204348
H23   H     H_    0.715725 0.121707 0.629255 0.191059
H24   H     H_    0.350804 0.371952 0.128348 0.126054
H25   H     H_    0.352872 0.369887 0.867579 0.127419
H26   H     H_    0.704882 0.721333 0.876154 0.205713
H27   H     H_    0.533026 0.746199 0.884820 0.231842
H28   H     H_    0.712886 0.717184 0.126333 0.189633
N1    N     N_R   0.500790 0.500930 0.147930 -0.183375
N2    N     N_R   0.500790 0.500890 0.852020 -0.180550
O1    O     O_R   0.500000 0.319640 0.618810 -0.587006
O2    O     O_3   0.123687 0.624742 0.849748 -0.564600
O3    O     O_3   0.378818 0.868647 0.276389 -0.576766
O4    O     O_R   0.500010 0.319680 0.381230 -0.586973
O5    O     O_R   0.319650 0.499970 0.618810 -0.565983
O6    O     O_R   0.319660 0.500010 0.381230 -0.596238
O7    O     O_R   0.499990 0.680320 0.618770 -0.573782
O8    O     O_R   0.500000 0.680360 0.381190 -0.548554
O9    O     O_R   0.680340 0.499990 0.618770 -0.579505
O10   O     O_R   0.680350 0.500030 0.381190 -0.595946
O11   O     O_3   0.888907 0.748285 0.625382 -0.597970

loop_
_geom_bond_atom_site_label_1
_geom_bond_atom_site_label_2
_ccdc_geom_bond_type
C22   H15   S    
C5    H23   S    
C6    C9    A    
C20   H8    S    
C7    C8    A    
C7    N1    A    
C12   C23   S    
C28   C29   A    
C25   H20   S    
Cu2   N1    S    
C30   C31   A    
C13   O7    A    
C15   C16   A    
C18   C19   A    
C23   C26   S    
C8    H25   S    
C5    C27   S    
C16   C17   A    
C1    C28   S    
C2    C27   A    
C9    C10   S    
C24   O3    S    
Cu1   O5    S    
C24   H18   S    
C22   H14   S    
C21   H10   S    
C4    O6    A    
C13   C31   S    
C24   H17   S    
C14   O10   A    
C25   H21   S    
Cu1   O1    S    
Cu1   O9    S    
C6    C11   S    
C4    O5    A    
C26   H5    S    
C15   C26   S    
Cu1   O7    S    
C13   O8    A    
C11   H28   S    
C23   H4    S    
C3    H12   S    
C2    C31   A    
C4    C16   S    
C10   H27   S    
C22   O2    S    
C29   C30   A    
C21   H11   S    
C12   C15   A    
C29   H6    S    
C17   C18   A    
C20   O11   S    
C24   C25   S    
C30   O3    S    
C22   H16   S    
Cu2   O10   S    
C3    H7    S    
C17   H1    S    
C23   O11   S    
C1    O1    A    
Cu2   O4    S    
C21   H13   S    
C9    N2    A    
C26   O2    S    
C14   O9    A    
C14   C19   S    
C5    H22   S    
Cu1   N2    S    
C3    C5    S    
C20   H9    S    
Cu2   O6    S    
Cu1   Cu2   S    
C6    N1    A    
C11   H2    S    
C2    C3    S    
C25   H19   S    
C12   C19   A    
C1    O4    A    
C10   H26   S    
C10   C11   S    
Cu2   O8    S    
C8    N2    A    
C20   C21   S    
C27   C28   A    
C18   H3    S    
C7    H24   S    
