data_mof_unit_34476.cif
_audit_creation_date              2012-12-11T14:44:10-0500
_audit_creation_method            fapswitch 2.2
_symmetry_space_group_name_H-M    P1
_symmetry_Int_Tables_number       1
_space_group_crystal_system       triclinic
_cell_length_a                    24.917592
_cell_length_b                    17.156544
_cell_length_c                    15.983136
_cell_angle_alpha                 89.512706
_cell_angle_beta                  48.986672
_cell_angle_gamma                 89.72441
_cell_volume                      5155.53764999

loop_
_atom_site_label
_atom_site_type_symbol
_atom_type_description
_atom_site_fract_x
_atom_site_fract_y
_atom_site_fract_z
_atom_type_partial_charge
C1    C     C_R   0.351788 0.146000 0.758910 -0.069715
C2    C     C_3   0.717050 0.720186 0.579799 -0.297154
C3    C     C_2   0.259185 0.904500 0.853209 1.072886
C4    C     C_2   0.772859 0.645150 0.845382 1.158126
C5    C     C_2   0.231828 0.458836 0.138919 0.965750
C6    C     C_2   0.207296 0.676211 0.228010 1.062526
C7    C     C_2   0.759292 0.413168 0.855591 1.066461
C8    C     C_3   0.792838 0.017615 0.308887 0.072882
C9    C     C_3   0.218235 0.893956 0.692079 -0.064947
C10   C     C_3   0.181136 0.079070 0.743329 -0.107729
C11   C     C_3   0.770798 0.818954 0.240720 -0.184202
C12   C     C_3   0.292965 0.518235 0.308050 0.041091
C13   C     C_3   0.761060 0.196049 0.596954 -0.389189
C14   C     C_3   0.712553 0.366225 0.716463 -0.159429
C15   C     C_3   0.687894 0.563577 0.732944 -0.062741
C16   C     C_3   0.268386 0.316593 0.239536 -0.198372
C17   C     C_2   0.761471 0.851828 0.472365 0.998457
C18   C     C_2   0.148908 0.045606 0.560813 0.990209
C19   C     C_2   0.270986 0.851654 0.427579 1.073637
C20   C     C_2   0.799877 0.046695 0.543191 1.000109
C21   C     C_2   0.268790 0.349635 0.458117 1.005175
C22   C     C_2   0.652383 0.543217 0.556794 0.986720
C23   C     C_2   0.765113 0.352298 0.440404 1.068957
C24   C     C_3   0.305255 0.700460 0.393394 -0.267105
C25   C     C_2   0.286222 0.551428 0.567740 1.001505
C26   C     C_3   0.397089 0.230164 0.257041 -0.204842
C27   C     C_3   0.527946 0.672518 0.708996 -0.185010
C28   C     C_3   0.611677 0.284010 0.626512 -0.226370
C29   C     C_3   0.449412 0.651877 0.402579 -0.053381
C30   C     C_3   0.897064 0.739849 0.267653 -0.196525
C31   C     C_3   0.028070 0.182701 0.721205 -0.143099
C32   C     C_3   0.114413 0.786021 0.603429 -0.203239
C33   C     C_3   0.956538 0.153360 0.380309 -0.065670
C34   C     C_2   0.196402 0.141514 0.357259 1.185216
C35   C     C_3   0.711473 0.670760 0.428144 -0.265161
C36   C     C_2   0.718272 0.754103 0.665175 1.174128
C37   C     C_2   0.738018 0.182328 0.710001 1.267715
C38   C     C_2   0.345440 0.701703 0.270407 1.136896
C39   C     C_2   0.705739 0.642144 0.345690 1.177441
C40   C     C_2   0.229952 0.260354 0.649995 1.135266
C41   C     C_2   0.224039 0.698044 0.720567 1.288846
C42   C     C_2   0.839727 0.209259 0.272334 1.141925
C43   C     C_3   0.221889 0.221647 0.574395 -0.296775
C44   C     C_3   0.254146 0.702747 0.602258 -0.397739
C45   C     C_3   0.803118 0.203651 0.393813 -0.267685
C46   C     C_2   0.630787 0.268239 0.171268 -0.162829
C47   C     C_2   0.310263 0.838207 0.975983 -0.141944
C48   C     C_2   0.364711 0.257226 0.848672 -0.217291
C49   C     C_R   0.669249 0.908107 0.188817 0.032446
C50   C     C_2   0.701255 0.862007 0.010988 -0.102072
C51   C     C_2   0.130336 0.768125 0.171874 -0.172591
C52   C     C_2   0.810282 0.340819 0.977702 -0.143985
C53   C     C_2   0.865733 0.757915 0.846889 -0.219349
C54   C     C_2   0.201318 0.362717 0.010680 -0.111183
C55   C     C_2   0.700417 0.274689 0.087026 -0.024889
C56   C     C_2   0.239755 0.845923 0.047307 -0.041223
C57   C     C_2   0.317930 0.305252 0.860309 -0.113716
C58   C     C_2   0.766885 0.840876 0.967631 -0.030051
C59   C     C_2   0.199776 0.773476 0.086430 -0.024909
C60   C     C_R   0.642322 0.150258 0.252739 -0.095044
C61   C     C_2   0.739744 0.347681 0.049813 -0.029721
C62   C     C_2   0.818069 0.805214 0.859930 -0.103407
C63   C     C_2   0.266933 0.341647 0.967338 -0.028945
C64   C     C_R   0.617867 0.099490 0.589358 -0.142207
C65   C     C_R   0.412422 0.852416 0.409206 -0.108890
C66   C     C_R   0.379498 0.095775 0.414065 -0.175827
C67   C     C_R   0.585804 0.851542 0.592227 -0.136457
C68   C     C_R   0.117755 0.599199 0.589559 -0.127461
C69   C     C_R   0.912804 0.352774 0.408100 -0.107892
C70   C     C_R   0.880416 0.597100 0.412646 -0.184259
C71   C     C_R   0.332793 0.890243 0.804518 -0.047278
C72   C     C_R   0.087509 0.353131 0.592768 -0.124803
C73   C     C_R   0.693016 0.094528 0.407855 0.565353
C74   C     C_R   0.333209 0.856129 0.593607 0.554785
C75   C     C_R   0.306062 0.094217 0.597499 0.613763
C76   C     C_R   0.661405 0.851687 0.407671 0.584350
C77   C     C_R   0.192942 0.594631 0.407998 0.562346
C78   C     C_R   0.834202 0.355159 0.591971 0.588868
C79   C     C_R   0.807046 0.596565 0.595042 0.616073
C80   C     C_R   0.161585 0.351743 0.408098 0.571467
C81   C     C_R   0.553195 0.145248 0.252788 -0.052284
C82   C     C_R   0.851234 0.645670 0.760294 -0.065811
C83   C     C_R   0.423555 0.890964 0.800090 -0.127242
C84   C     C_R   0.444985 0.142691 0.750699 -0.099347
C85   C     C_R   0.578565 0.896152 0.196189 -0.139365
C86   C     C_R   0.052916 0.645429 0.253541 -0.055117
C87   C     C_R   0.923464 0.391768 0.800469 -0.139146
C88   C     C_R   0.945606 0.643160 0.749240 -0.100247
C89   C     C_R   0.078652 0.396495 0.196002 -0.143084
C90   C     C_R   0.389019 0.187912 0.781064 0.040944
C91   C     C_R   0.650664 0.884315 0.128602 0.030969
C92   C     C_R   0.607278 0.192123 0.226668 0.028204
C93   C     C_R   0.169284 0.408223 0.188823 0.030052
C94   C     C_R   0.353278 0.871244 0.864687 0.011650
C95   C     C_R   0.889704 0.688374 0.779573 0.030509
C96   C     C_R   0.150754 0.384858 0.128364 0.035488
C97   C     C_R   0.106535 0.692551 0.228423 0.030800
C98   C     C_R   0.852771 0.373778 0.866321 0.004618
C99   C     C_R   0.687782 0.110554 0.496718 -0.124255
C100  C     C_R   0.358719 0.811262 0.503231 -0.072169
C101  C     C_R   0.308890 0.105991 0.507899 -0.077157
C102  C     C_R   0.634054 0.806109 0.500275 -0.004666
C103  C     C_R   0.187519 0.610392 0.497064 -0.117321
C104  C     C_R   0.141892 0.650570 0.253845 -0.102735
C105  C     C_R   0.860371 0.310304 0.501146 -0.080710
C106  C     C_R   0.810220 0.608924 0.505837 -0.073553
C107  C     C_R   0.135418 0.307446 0.501174 -0.010329
C108  C     C_3   0.279773 0.191265 0.402053 0.641881
C109  C     C_3   0.649253 0.695261 0.602369 0.636826
C110  C     C_3   0.713953 0.221179 0.570596 0.663575
C111  C     C_3   0.346616 0.678184 0.431409 0.614343
C112  C     C_3   0.780186 0.695700 0.404137 0.633076
C113  C     C_3   0.151195 0.199153 0.604365 0.649633
C114  C     C_3   0.212387 0.725488 0.565563 0.655615
C115  C     C_R   0.832194 0.392907 0.806185 -0.000723
C116  C     C_3   0.849588 0.179700 0.421910 0.612044
C117  C     C_3   0.741768 0.767919 0.478206 -0.330735
C118  C     C_3   0.185058 0.123361 0.536081 -0.305979
C119  C     C_3   0.275762 0.773652 0.467269 -0.329313
C120  C     C_3   0.789259 0.126630 0.517217 -0.316968
C121  C     C_3   0.245788 0.266238 0.471145 -0.327011
C122  C     C_3   0.687657 0.621888 0.529922 -0.306735
C123  C     C_3   0.773856 0.273366 0.473622 -0.323899
C124  C     C_3   0.282610 0.629582 0.529003 -0.313861
C125  C     C_3   0.673397 0.743201 0.501690 -0.140135
C126  C     C_3   0.208322 0.169675 0.432827 -0.270855
C127  C     C_3   0.256755 0.145612 0.505353 -0.120467
C128  C     C_3   0.317943 0.751078 0.503678 -0.137821
C129  C     C_3   0.741692 0.151287 0.491567 -0.083449
C130  C     C_3   0.174603 0.244321 0.502203 -0.151467
C131  C     C_3   0.756696 0.647201 0.505716 -0.115357
C132  C     C_3   0.821000 0.248890 0.500477 -0.144390
C133  C     C_3   0.240511 0.652140 0.492728 -0.085477
C134  C     C_2   0.273618 0.148710 0.835001 1.139710
C135  C     C_2   0.731503 0.959258 0.138672 0.961582
C136  C     C_2   0.706850 0.176548 0.229040 1.054806
H1    H     H_    0.596102 0.097887 0.674248 0.192447
H2    H     H_    0.453260 0.893515 0.827560 0.138906
H3    H     H_    0.421875 0.653528 0.120722 0.323606
H4    H     H_    0.648273 0.638733 0.298090 0.325535
H5    H     H_    0.182162 0.314663 0.795131 0.332407
H6    H     H_    0.319093 0.673660 0.675561 0.258684
H7    H     H_    0.913072 0.164482 0.118941 0.319430
H8    H     H_    0.481945 0.155838 0.762529 0.125894
H9    H     H_    0.548508 0.898535 0.169285 0.129296
H10   H     H_    0.015149 0.659704 0.243716 0.102462
H11   H     H_    0.953570 0.393959 0.827256 0.139312
H12   H     H_    0.982937 0.656704 0.760186 0.131188
H13   H     H_    0.048649 0.399083 0.169015 0.130221
H14   H     H_    0.214279 0.899333 0.052260 0.140053
H15   H     H_    0.731503 0.221525 0.048214 0.155087
H16   H     H_    0.780619 0.839452 0.019495 0.106399
H17   H     H_    0.440448 0.836902 0.324064 0.143483
H18   H     H_    0.308970 0.305418 0.802467 0.185363
H19   H     H_    0.713766 0.401387 0.057149 0.145422
H20   H     H_    0.230248 0.719883 0.048171 0.157416
H21   H     H_    0.280713 0.340426 0.019037 0.104935
H22   H     H_    0.808277 0.804518 0.803046 0.186912
H23   H     H_    0.334045 0.787959 0.982789 0.150583
H24   H     H_    0.596163 0.318708 0.210202 0.157917
H25   H     H_    0.684058 0.857034 0.963960 0.147425
H26   H     H_    0.375851 0.260599 0.903973 0.152409
H27   H     H_    0.834553 0.290534 0.983411 0.147937
H28   H     H_    0.399804 0.088034 0.330830 0.189461
H29   H     H_    0.096359 0.819088 0.210622 0.156753
H30   H     H_    0.184037 0.357453 0.963801 0.144095
H31   H     H_    0.877599 0.761770 0.901236 0.155504
H32   H     H_    0.180842 0.112405 0.980041 0.333902
H33   H     H_    0.809665 0.025853 0.008655 0.357872
H34   H     H_    0.814061 0.173474 0.121734 0.337658
H35   H     H_    0.160160 0.861596 0.938089 0.328317
H36   H     H_    0.686107 0.605703 0.995477 0.330971
H37   H     H_    0.310442 0.525044 0.008820 0.356057
H38   H     H_    0.314557 0.670137 0.120401 0.345368
H39   H     H_    0.559101 0.837481 0.677397 0.186577
H40   H     H_    0.656324 0.380658 0.951231 0.314724
H41   H     H_    0.837182 0.996617 0.223928 0.186936
H42   H     H_    0.757554 0.967777 0.358751 0.064755
H43   H     H_    0.816998 0.039506 0.342493 0.146284
H44   H     H_    0.193715 0.856674 0.669656 0.155517
H45   H     H_    0.243766 0.943990 0.633649 0.142073
H46   H     H_    0.174250 0.915349 0.776673 0.167227
H47   H     H_    0.179511 0.048057 0.685816 0.116538
H48   H     H_    0.159850 0.138490 0.760652 0.194365
H49   H     H_    0.144681 0.047827 0.823888 0.177574
H50   H     H_    0.095863 0.598144 0.674538 0.188476
H51   H     H_    0.790314 0.853923 0.273778 0.110411
H52   H     H_    0.798920 0.839345 0.155021 0.155863
H53   H     H_    0.787839 0.758108 0.231374 0.177867
H54   H     H_    0.258308 0.467224 0.353427 0.080358
H55   H     H_    0.314600 0.538354 0.346436 0.139027
H56   H     H_    0.338949 0.499786 0.222517 0.193312
H57   H     H_    0.672170 0.319648 0.756328 0.205770
H58   H     H_    0.722237 0.386129 0.641500 0.127609
H59   H     H_    0.686828 0.413136 0.777705 0.160044
H60   H     H_    0.701320 0.517001 0.674567 0.120792
H61   H     H_    0.940961 0.337908 0.322718 0.146179
H62   H     H_    0.655139 0.609346 0.737206 0.187123
H63   H     H_    0.654144 0.538610 0.817812 0.176733
H64   H     H_    0.290666 0.358060 0.262330 0.122214
H65   H     H_    0.294382 0.328514 0.152059 0.156028
H66   H     H_    0.284554 0.257224 0.239984 0.188978
H67   H     H_    0.721588 0.958828 0.533881 0.315070
H68   H     H_    0.135015 0.953962 0.498854 0.339427
H69   H     H_    0.296109 0.966071 0.399217 0.353958
H70   H     H_    0.761669 0.961284 0.657265 0.355598
H71   H     H_    0.234466 0.458219 0.516511 0.312809
H72   H     H_    0.901028 0.590069 0.329074 0.193561
H73   H     H_    0.625262 0.455446 0.507756 0.344594
H74   H     H_    0.788911 0.466990 0.412741 0.343053
H75   H     H_    0.235167 0.469589 0.688571 0.350381
H76   H     H_    0.398697 0.243427 0.323431 0.171340
H77   H     H_    0.392420 0.283761 0.223082 0.180043
H78   H     H_    0.448848 0.203422 0.187708 0.168284
H79   H     H_    0.512803 0.611728 0.740404 0.190324
H80   H     H_    0.542567 0.676121 0.626575 0.127977
H81   H     H_    0.480060 0.709278 0.766835 0.156530
H82   H     H_    0.627476 0.263731 0.547086 0.180778
H83   H     H_    0.062127 0.340933 0.677793 0.183203
H84   H     H_    0.624955 0.346358 0.621977 0.168426
H85   H     H_    0.552978 0.279108 0.690524 0.171962
H86   H     H_    0.493778 0.609319 0.357575 0.177563
H87   H     H_    0.412340 0.634506 0.491476 0.095183
H88   H     H_    0.472625 0.709923 0.391954 0.114385
H89   H     H_    0.895536 0.750202 0.337869 0.171530
H90   H     H_    0.892774 0.794828 0.235616 0.182251
H91   H     H_    0.950049 0.715398 0.198552 0.165328
H92   H     H_    0.003805 0.128824 0.772097 0.198519
H93   H     H_    0.042037 0.172950 0.640048 0.136956
H94   H     H_    0.515153 0.159683 0.243493 0.101998
H95   H     H_    0.986486 0.228446 0.765583 0.136721
H96   H     H_    0.135621 0.762718 0.521965 0.176221
H97   H     H_    0.126097 0.848915 0.597869 0.157894
H98   H     H_    0.055739 0.779920 0.661228 0.171706
H99   H     H_    0.003019 0.114035 0.326802 0.175205
H100  H     H_    0.922768 0.129762 0.466216 0.101606
H101  H     H_    0.977224 0.211632 0.376162 0.115551
H102  H     H_    0.126169 0.122705 0.336127 0.323548
H103  H     H_    0.662079 0.791688 0.821899 0.339153
H104  H     H_    0.838625 0.179423 0.650701 0.265188
N1    N     N_R   0.389620 0.081040 0.705440 -0.065008
N2    N     N_R   0.417680 0.920160 0.443370 -0.066854
N3    N     N_R   0.417680 0.079840 0.443370 -0.083283
N4    N     N_R   0.582320 0.920160 0.556630 -0.082879
N5    N     N_R   0.082320 0.579840 0.556630 -0.091355
N6    N     N_R   0.917680 0.420160 0.443370 -0.067441
N7    N     N_R   0.917680 0.579840 0.443370 -0.084748
N8    N     N_R   0.082320 0.420160 0.556630 -0.082907
N9    N     N_R   0.627920 0.078930 0.443400 -0.106064
N10   N     N_R   0.372080 0.921070 0.556600 -0.104234
N11   N     N_R   0.372080 0.078930 0.556600 -0.092184
N12   N     N_R   0.610380 0.918960 0.294560 -0.058944
N13   N     N_R   0.627920 0.921070 0.443400 -0.104712
N14   N     N_R   0.127920 0.578930 0.443400 -0.108633
N15   N     N_R   0.872080 0.421070 0.556600 -0.104943
N16   N     N_R   0.872080 0.578930 0.556600 -0.095246
N17   N     N_R   0.127920 0.421070 0.443400 -0.100516
N18   N     N_R   0.555090 0.077730 0.294590 -0.059824
N19   N     N_R   0.444910 0.922270 0.705410 -0.058296
N20   N     N_R   0.444910 0.077730 0.705410 -0.050580
N21   N     N_R   0.555090 0.922270 0.294590 -0.064986
N22   N     N_R   0.055090 0.577730 0.294590 -0.058642
N23   N     N_R   0.610380 0.081040 0.294560 -0.079886
N24   N     N_R   0.944910 0.422270 0.705410 -0.059071
N25   N     N_R   0.944910 0.577730 0.705410 -0.051308
N26   N     N_R   0.055090 0.422270 0.294590 -0.064608
N27   N     N_R   0.389620 0.918960 0.705440 -0.085726
N28   N     N_R   0.889620 0.581040 0.705440 -0.065697
N29   N     N_R   0.110380 0.418960 0.294560 -0.057920
N30   N     N_R   0.110380 0.581040 0.294560 -0.079422
N31   N     N_R   0.889620 0.418960 0.705440 -0.084950
N32   N     N_R   0.582320 0.079840 0.556630 -0.088401
Ni1   Ni    Ni4+2 0.382970 0.000000 0.629840 0.290934
Ni2   Ni    Ni4+2 0.617030 1.000000 0.370160 0.286340
Ni3   Ni    Ni4+2 0.882970 0.500000 0.629840 0.285212
Ni4   Ni    Ni4+2 0.117030 0.500000 0.370160 0.285858
Ni5   Ni    Ni4+2 0.514540 0.000000 0.629840 0.213877
Ni6   Ni    Ni4+2 0.485460 1.000000 0.370160 0.208710
Ni7   Ni    Ni4+2 0.014540 0.500000 0.629840 0.214211
Ni8   Ni    Ni4+2 0.985460 0.500000 0.370160 0.209851
O1    O     O_2   0.243795 0.194396 0.818310 -0.660574
O2    O     O_R   0.739682 0.599025 0.940329 -0.785911
O3    O     O_2   0.251117 0.472056 0.190024 -0.626391
O4    O     O_R   0.266925 0.494479 0.035564 -0.782160
O5    O     O_2   0.205616 0.731801 0.276991 -0.600103
O6    O     O_R   0.272060 0.643192 0.138121 -0.775050
O7    O     O_2   0.748104 0.476099 0.833811 -0.649559
O8    O     O_R   0.704182 0.358760 0.919731 -0.770092
O9    O     O_3   0.755495 0.076280 0.303071 -0.617659
O10   O     O_3   0.265458 0.850357 0.694172 -0.651450
O11   O     O_3   0.249296 0.077953 0.708887 -0.631173
O12   O     O_R   0.233942 0.104082 0.932254 -0.767276
O13   O     O_3   0.696635 0.822525 0.302747 -0.627484
O14   O     O_3   0.255560 0.577215 0.302967 -0.621483
O15   O     O_3   0.773185 0.339852 0.698803 -0.647358
O16   O     O_3   0.748765 0.595646 0.707354 -0.628268
O17   O     O_3   0.193920 0.320653 0.305236 -0.637961
O18   O     O_2   0.821924 0.875522 0.399630 -0.657393
O19   O     O_R   0.708670 0.902214 0.554677 -0.789911
O20   O     O_2   0.099101 0.025869 0.656228 -0.676998
O21   O     O_R   0.169126 0.998750 0.473320 -0.765240
O22   O     O_2   0.242933 0.855521 0.387450 -0.557091
O23   O     O_2   0.749885 0.974257 0.190611 -0.622868
O24   O     O_R   0.299343 0.918823 0.434159 -0.836346
O25   O     O_2   0.853793 0.009969 0.472203 -0.579756
O26   O     O_R   0.748249 0.014983 0.649263 -0.770315
O27   O     O_2   0.329510 0.370802 0.381486 -0.665794
O28   O     O_R   0.218616 0.402487 0.539017 -0.786718
O29   O     O_2   0.617213 0.515589 0.649954 -0.694770
O30   O     O_R   0.655679 0.504252 0.477187 -0.755791
O31   O     O_2   0.731645 0.357074 0.409307 -0.569768
O32   O     O_R   0.796356 0.419095 0.441588 -0.831471
O33   O     O_2   0.340935 0.513142 0.509282 -0.586529
O34   O     O_R   0.766943 0.993940 0.034643 -0.779901
O35   O     O_R   0.226465 0.522662 0.671041 -0.775527
O36   O     O_3   0.342802 0.177446 0.291561 -0.622108
O37   O     O_3   0.581400 0.698199 0.709805 -0.597148
O38   O     O_3   0.641605 0.238767 0.660650 -0.632707
O39   O     O_3   0.417794 0.651667 0.354934 -0.585765
O40   O     O_3   0.845107 0.686690 0.293977 -0.630907
O41   O     O_3   0.085446 0.205538 0.714040 -0.609382
O42   O     O_3   0.139674 0.745714 0.648508 -0.622895
O43   O     O_3   0.921391 0.156923 0.338366 -0.589048
O44   O     O_2   0.246004 0.115708 0.265857 -0.585460
O45   O     O_2   0.703809 0.231667 0.279943 -0.601172
O46   O     O_R   0.127877 0.143308 0.393605 -0.808940
O47   O     O_2   0.774891 0.773679 0.638293 -0.649377
O48   O     O_R   0.654609 0.765714 0.773498 -0.733781
O49   O     O_2   0.674895 0.176163 0.791130 -0.559135
O50   O     O_R   0.787957 0.173336 0.722964 -0.740722
O51   O     O_2   0.335348 0.753869 0.229767 -0.600151
O52   O     O_R   0.397788 0.645834 0.201585 -0.766424
O53   O     O_2   0.752402 0.600654 0.269259 -0.577899
O54   O     O_R   0.646219 0.661547 0.358439 -0.793287
O55   O     O_2   0.289371 0.272496 0.617303 -0.640888
O56   O     O_R   0.772338 0.145067 0.138800 -0.773978
O57   O     O_R   0.169771 0.286581 0.754190 -0.739953
O58   O     O_2   0.160766 0.709441 0.796839 -0.551193
O59   O     O_R   0.267460 0.680373 0.744599 -0.744487
O60   O     O_2   0.830023 0.265654 0.236639 -0.598332
O61   O     O_R   0.889394 0.152691 0.198828 -0.763797
O62   O     O_2   0.242700 0.968225 0.842095 -0.615972
O63   O     O_R   0.209027 0.844271 0.907496 -0.753548
O64   O     O_2   0.737772 0.690907 0.839465 -0.639213

loop_
_geom_bond_atom_site_label_1
_geom_bond_atom_site_label_2
_ccdc_geom_bond_type
C51   C97   S    
C20   O25   D    
H103  O48   S    
C53   C95   S    
C10   H48   S    
C66   C101  A    
H104  O50   S    
C102  C125  S    
H35   O63   S    
C40   O55   D    
H37   O4    S    
C32   H98   S    
C80   C107  A    
C124  C133  S    
H69   O24   S    
C52   C61   D    
C48   H26   S    
N6    N15   A    
C21   O27   D    
C10   H49   S    
C89   N26   A    
N7    Ni8   S    
C136  O56   S    
N8    Ni7   S    
C7    O8    S    
C77   O14   S    
C40   C43   S    
N21   Ni6   S    
N17   Ni4   S    
C31   H95   S    
C46   C55   D    
C4    O64   D    
C6    C104  S    
C18   C118  S    
C70   N7    A    
C119  C128  S    
C14   H58   S    
C88   C95   A    
C44   C114  S    
C28   H84   S    
C60   N23   A    
C136  O45   D    
C49   C91   A    
C16   H66   S    
C61   H19   S    
C2    C117  S    
C58   H16   S    
C22   C122  S    
C29   H86   S    
C12   H56   S    
C134  O1    D    
C99   C129  S    
C43   C127  S    
C42   O61   S    
C69   C105  A    
C74   C100  A    
C120  C129  S    
C42   C45   S    
C37   O50   S    
C29   O39   S    
C30   O40   S    
C110  C123  S    
H7    O61   S    
N23   Ni2   S    
C46   H24   S    
C2    C131  S    
C88   H12   S    
C55   H15   S    
H40   O8    S    
C33   H100  S    
H6    O59   S    
C15   H60   S    
H32   O12   S    
N24   N31   A    
H67   O19   S    
C27   H80   S    
C77   C103  A    
N2    Ni6   S    
H74   O32   S    
C20   C120  S    
N27   Ni1   S    
C27   O37   S    
C111  C124  S    
C35   C122  S    
C67   N4    A    
C111  O39   S    
C57   H18   S    
C56   C59   S    
C72   N8    A    
C89   C96   A    
C76   O13   S    
N20   Ni5   S    
C78   O15   S    
C14   O15   S    
C31   H93   S    
C52   C98   S    
N4    Ni5   S    
C13   C132  S    
C112  C131  S    
C52   H27   S    
C3    O63   S    
C93   N29   A    
C54   C63   D    
C75   C101  A    
C19   O24   S    
C26   H76   S    
C80   N17   A    
C108  C126  S    
N12   Ni2   S    
C86   N22   A    
C83   H2    S    
C29   H88   S    
C32   H96   S    
C2    C109  S    
C123  C132  S    
C30   H90   S    
C68   C103  A    
C121  C130  S    
C48   C57   D    
C47   H23   S    
C45   C123  S    
C26   H77   S    
C78   N15   A    
H68   O21   S    
C85   H9    S    
N13   Ni2   S    
C115  N31   A    
C66   N3    A    
C84   H8    S    
H38   O6    S    
C33   O43   S    
C110  C129  S    
C32   O42   S    
C35   C125  S    
C86   C97   A    
C65   H17   S    
C64   N32   A    
H70   O26   S    
C81   C92   A    
C64   C99   A    
C4    O2    S    
C9    H46   S    
C60   C136  S    
C114  C119  S    
C16   H64   S    
N7    N16   A    
C49   C135  S    
C68   H50   S    
C48   C90   S    
C31   H92   S    
N9    N32   A    
C84   C90   A    
H73   O30   S    
C40   O57   S    
H33   O34   S    
C57   C63   S    
C73   N9    A    
C8    O9    S    
C60   C92   A    
C76   C102  A    
C15   O16   S    
N3    N11   A    
C113  C130  S    
C11   H52   S    
H5    O57   S    
C9    O10   S    
C6    O5    D    
C33   H101  S    
C23   C123  S    
C82   N28   A    
C116  C120  S    
C79   C106  A    
C109  O37   S    
C116  C132  S    
C19   O22   D    
C66   H28   S    
C23   O32   S    
C80   O17   S    
C39   O53   D    
C51   H29   S    
C118  C127  S    
C63   H21   S    
C56   H14   S    
C41   O59   S    
C122  C131  S    
C13   C120  S    
C11   O13   S    
C20   O26   S    
C82   C95   A    
N29   Ni4   S    
C100  C128  S    
N26   N29   A    
C59   H20   S    
C112  O40   S    
C36   O47   D    
C45   C116  S    
C98   C115  A    
C55   C61   S    
C101  C127  S    
C22   O29   D    
C38   O51   D    
C104  N30   A    
C9    H45   S    
C50   C91   S    
C34   O44   D    
C111  C128  S    
N9    Ni2   S    
C73   O9    S    
C116  O43   S    
C117  C125  S    
C35   C112  S    
C47   C56   D    
C58   C62   S    
C14   H59   S    
C17   O19   S    
C45   C129  S    
C1    C90   A    
N1    N20   A    
C18   O20   D    
C5    O4    S    
C108  C121  S    
C81   N18   A    
C87   H11   S    
C134  O12   S    
C112  C117  S    
C114  O42   S    
C88   N25   A    
C46   C92   S    
C126  C130  S    
C18   O21   S    
N24   Ni7   S    
N1    Ni1   S    
C37   O49   D    
C8    H41   S    
C67   H39   S    
N18   Ni6   S    
C79   N16   A    
C62   H22   S    
C83   N19   A    
C43   C121  S    
C33   H99   S    
C17   C117  S    
C64   H1    S    
C87   C98   A    
C89   H13   S    
C19   C119  S    
C27   H79   S    
C10   H47   S    
C54   H30   S    
C107  C130  S    
C75   N11   A    
C86   H10   S    
C105  C132  S    
C32   H97   S    
C12   O14   S    
C106  C131  S    
C50   C58   D    
C70   C106  A    
C15   H62   S    
C83   C94   A    
C44   C124  S    
C21   O28   S    
N15   Ni3   S    
C11   H53   S    
N2    N10   A    
C3    C71   S    
C79   O16   S    
N22   N30   A    
C34   C126  S    
N22   Ni8   S    
N5    Ni7   S    
N6    Ni8   S    
C25   C124  S    
C14   H57   S    
C27   H81   S    
N4    N13   A    
C41   C44   S    
C16   H65   S    
C29   H87   S    
C12   H55   S    
C24   C119  S    
C71   N27   A    
C30   H91   S    
C110  O38   S    
C65   C100  A    
C135  O23   D    
C10   O11   S    
C68   N5    A    
N5    N14   A    
C26   H78   S    
C8    H43   S    
H75   O35   S    
C25   O33   D    
C47   C94   S    
C108  O36   S    
C97   C104  A    
N19   N27   A    
C69   N6    A    
H71   O28   S    
H4    O54   S    
C24   C133  S    
N32   Ni5   S    
H102  O46   S    
C35   C39   S    
N18   N23   A    
C85   C91   A    
C71   C94   A    
N31   Ni3   S    
C78   C105  A    
C11   H51   S    
C113  C118  S    
C6    O6    S    
C109  C122  S    
C70   H72   S    
C31   O41   S    
N10   Ni1   S    
C7    C115  S    
C74   O10   S    
C53   H31   S    
C28   H85   S    
C24   C38   S    
N16   Ni3   S    
H34   O56   S    
C54   C96   S    
H36   O2    S    
C50   H25   S    
C69   H61   S    
C49   N12   A    
C30   H89   S    
C24   C111  S    
C41   O58   D    
N3    Ni6   S    
C74   N10   A    
H3    O52   S    
N30   Ni4   S    
C7    O7    D    
C75   O11   S    
N14   Ni4   S    
N25   Ni7   S    
C25   O35   S    
N26   Ni8   S    
C26   O36   S    
C16   O17   S    
C36   O48   S    
C28   O38   S    
C13   C110  S    
C15   H63   S    
C53   C62   D    
C135  O34   S    
C72   C107  A    
C42   O60   D    
C22   O30   S    
C38   O52   S    
C23   O31   D    
C76   N13   A    
C9    H44   S    
C1    N1    A    
N12   N21   A    
C109  C125  S    
C93   C96   A    
C51   C59   D    
C1    C134  S    
C2    C36   S    
C73   C99   A    
C72   H83   S    
C17   O18   D    
C44   C128  S    
C28   H82   S    
C5    O3    D    
C13   C37   S    
C84   N20   A    
C77   N14   A    
N11   Ni1   S    
C85   N21   A    
C5    C93   S    
C12   H54   S    
C65   N2    A    
C34   O46   S    
C81   H94   S    
C103  C133  S    
N19   Ni5   S    
C43   C113  S    
C3    O62   D    
C113  O41   S    
N28   Ni3   S    
C114  C133  S    
C108  C127  S    
C21   C121  S    
N25   N28   A    
N8    N17   A    
C39   O54   S    
C8    H42   S    
C4    C82   S    
C118  C126  S    
C87   N24   A    
C67   C102  A    
