data_mof_unit_43141.cif
_audit_creation_date              2012-12-10T17:40:32-0500
_audit_creation_method            fapswitch 2.2
_symmetry_space_group_name_H-M    P1
_symmetry_Int_Tables_number       1
_space_group_crystal_system       triclinic
_cell_length_a                    13.69623
_cell_length_b                    15.118188
_cell_length_c                    15.853072
_cell_angle_alpha                 89.756377
_cell_angle_beta                  69.23285
_cell_angle_gamma                 89.161335
_cell_volume                      3068.96973465

loop_
_atom_site_label
_atom_site_type_symbol
_atom_type_description
_atom_site_fract_x
_atom_site_fract_y
_atom_site_fract_z
_atom_type_partial_charge
C1    C     C_R   0.498220 0.671349 0.502223 0.818486
C2    C     C_R   0.501726 0.328612 0.497954 0.819527
C3    C     C_R   0.374287 0.495195 0.099204 -0.233983
C4    C     C_R   0.621440 0.461984 0.904007 -0.232681
C5    C     C_R   0.300243 0.500751 0.057919 -0.034373
C6    C     C_R   0.695280 0.455973 0.945509 -0.034590
C7    C     C_R   0.410224 0.187547 0.534292 -0.232893
C8    C     C_R   0.589576 0.812348 0.465784 -0.234088
C9    C     C_R   0.504716 0.231731 0.495790 -0.118284
C10   C     C_R   0.495191 0.768166 0.504684 -0.117531
C11   C     C_R   0.599406 0.183232 0.456991 -0.082111
C12   C     C_R   0.400605 0.816568 0.544295 -0.081637
C13   C     C_R   0.597821 0.089986 0.458845 0.058534
C14   C     C_R   0.402052 0.909829 0.542069 0.058383
C15   C     C_R   0.501416 0.046461 0.498970 0.062384
C16   C     C_R   0.498394 0.953383 0.501621 0.062424
C17   C     C_R   0.407868 0.095750 0.536445 0.104645
C18   C     C_R   0.591928 0.904111 0.463938 0.105088
C19   C     C_R   0.690087 0.038901 0.421695 -0.185181
C20   C     C_R   0.309784 0.960898 0.579178 -0.185390
C21   C     C_R   0.686939 0.947102 0.424276 -0.178595
C22   C     C_R   0.312867 0.052724 0.576199 -0.177445
C23   C     C_R   0.435817 0.501132 0.673070 0.821958
C24   C     C_R   0.564166 0.498690 0.327041 0.821543
C25   C     C_R   0.227673 0.558963 0.447526 0.048520
C26   C     C_R   0.772504 0.440713 0.552096 0.049545
C27   C     C_R   0.187138 0.439946 0.551094 0.087510
C28   C     C_R   0.813533 0.558715 0.447294 0.087121
C29   C     C_R   0.083460 0.437344 0.552234 -0.043570
C30   C     C_R   0.917677 0.560430 0.445090 -0.040303
C31   C     C_R   0.052261 0.499078 0.498960 0.049805
C32   C     C_R   0.948591 0.499245 0.499037 0.050692
C33   C     C_R   0.125250 0.560279 0.445115 -0.073793
C34   C     C_R   0.875501 0.438260 0.553162 -0.074361
C35   C     C_R   0.010915 0.374927 0.604715 0.127599
C36   C     C_R   0.991141 0.621094 0.390516 0.122783
C37   C     C_R   0.907085 0.376338 0.606100 -0.062638
C38   C     C_R   0.094448 0.620687 0.390399 -0.063867
C39   C     C_R   0.395591 0.501476 0.773095 -0.115255
C40   C     C_R   0.604356 0.492386 0.227412 -0.115348
C41   C     C_R   0.258236 0.508256 0.920435 -0.189158
C42   C     C_R   0.738795 0.462326 0.082154 -0.191204
C43   C     C_R   0.288469 0.508910 0.826721 0.170161
C44   C     C_R   0.709593 0.472388 0.175191 0.169630
C45   C     C_R   0.468980 0.494345 0.815929 -0.260845
C46   C     C_R   0.532034 0.502677 0.183927 -0.256903
C47   C     C_R   0.439653 0.490880 0.910438 0.091374
C48   C     C_R   0.558652 0.486388 0.091042 0.091146
C49   C     C_R   0.332015 0.499878 0.963314 0.063961
C50   C     C_R   0.664955 0.468372 0.039139 0.062379
C51   C     C_R   0.514964 0.481044 0.953348 0.062267
C52   C     C_R   0.482403 0.488602 0.048705 0.063353
Cu1   Cu    Cu3+1 0.402580 0.500010 0.499990 0.978761
Cu2   Cu    Cu3+1 0.597420 0.499990 0.500010 0.978376
H1    H     H_    0.285676 0.604809 0.407504 0.135402
H2    H     H_    0.714332 0.395220 0.592547 0.135256
H3    H     H_    0.214187 0.394740 0.591112 0.162930
H4    H     H_    0.786546 0.603689 0.407034 0.161238
H5    H     H_    0.454794 0.525016 0.224496 0.161071
H6    H     H_    0.549867 0.494182 0.773433 0.164142
H7    H     H_    0.175784 0.515060 0.959665 0.176513
H8    H     H_    0.820128 0.447882 0.043852 0.176143
H9    H     H_    0.343887 0.493300 0.171875 0.144886
H10   H     H_    0.649995 0.448289 0.832679 0.144425
H11   H     H_    0.337961 0.224983 0.564209 0.171888
H12   H     H_    0.661790 0.774930 0.435461 0.170355
H13   H     H_    0.765480 0.069245 0.390451 0.167360
H14   H     H_    0.234444 0.930500 0.610544 0.167571
H15   H     H_    0.759177 0.909601 0.395114 0.173385
H16   H     H_    0.240611 0.090212 0.605225 0.176007
N1    N     N_R   0.256170 0.500070 0.500040 -0.191157
N2    N     N_R   0.743830 0.499930 0.499960 -0.191345
O1    O     O_R   0.417730 0.629750 0.499970 -0.577748
O2    O     O_R   0.582270 0.370250 0.500030 -0.577016
O3    O     O_R   0.582270 0.629730 0.499980 -0.590509
O4    O     O_R   0.417730 0.370270 0.500020 -0.590188
O5    O     O_R   0.371590 0.500020 0.629830 -0.550612
O6    O     O_R   0.628410 0.499980 0.370170 -0.551524
O7    O     O_R   0.536130 0.499990 0.629840 -0.596153
O8    O     O_R   0.463870 0.500010 0.370160 -0.594865
C53   C     C_1   0.191549 0.508669 0.115513 0.258228
N3    N     N_1   0.104803 0.515129 0.161812 -0.211326
C54   C     C_1   0.802696 0.437918 0.889174 0.260550
N4    N     N_1   0.888615 0.423763 0.844163 -0.209899
I1    I     I_    0.056862 0.275107 0.680643 -0.353978
I2    I     I_    0.948380 0.715076 0.307226 -0.352349
C55   C     C_1   0.833230 0.313647 0.662315 0.276757
N5    N     N_1   0.774029 0.263689 0.707295 -0.253479
C56   C     C_1   0.168829 0.682387 0.333106 0.276501
N6    N     N_1   0.228446 0.731568 0.287290 -0.250474
I3    I     I_    0.832667 0.453724 0.226323 -0.276976
I4    I     I_    0.163799 0.525975 0.777169 -0.284811
C57   C     C_1   0.697283 0.228515 0.413457 0.268307
N7    N     N_1   0.775474 0.264395 0.378889 -0.229932
C58   C     C_1   0.303268 0.771065 0.589567 0.265625
N8    N     N_1   0.225646 0.734862 0.625621 -0.232126

loop_
_geom_bond_atom_site_label_1
_geom_bond_atom_site_label_2
_ccdc_geom_bond_type
C55   N5    T    
C45   H6    S    
C8    H12   S    
C57   N7    T    
C46   H5    S    
C27   C29   A    
C18   C21   A    
C26   N2    A    
C58   N8    T    
C41   H7    S    
C53   N3    T    
C2    O4    A    
C47   C49   A    
Cu1   Cu2   S    
C40   C46   A    
C38   C56   S    
C19   C21   A    
C15   C16   A    
C34   C37   A    
C7    C9    A    
Cu2   O2    S    
C24   O8    A    
C54   N4    T    
C7    C17   A    
C31   C33   A    
C12   C58   S    
C19   H13   S    
C25   N1    A    
C42   H8    S    
C2    O2    A    
C39   C45   A    
C11   C57   S    
C48   C50   A    
C26   C34   A    
C41   C43   A    
C5    C49   A    
C28   N2    A    
C42   C44   A    
C41   C49   A    
C20   H14   S    
C45   C47   A    
C46   C48   A    
C13   C19   A    
C4    C51   A    
C51   C52   A    
C1    O3    A    
C14   C20   A    
Cu1   O8    S    
C4    C6    A    
C27   H3    S    
C39   C43   A    
C36   I2    S    
C6    C50   A    
C21   H15   S    
C32   C34   A    
Cu1   O5    S    
C7    H11   S    
C5    C53   S    
C31   C32   A    
C40   C44   A    
C16   C18   A    
C23   O5    A    
C9    C11   A    
C44   I3    S    
C10   C12   A    
C42   C50   A    
C43   I4    S    
C24   O6    A    
C20   C22   A    
C28   H4    S    
C13   C15   A    
C14   C16   A    
Cu1   O4    S    
Cu1   N1    S    
C27   N1    A    
Cu2   O7    S    
C15   C17   A    
C4    H10   S    
C35   I1    S    
C6    C54   S    
C35   C37   A    
C37   C55   S    
Cu1   O1    S    
C1    C10   S    
C25   H1    S    
C12   C14   A    
C3    C5    A    
C26   H2    S    
C47   C51   A    
C3    C52   A    
C3    H9    S    
C29   C35   A    
C17   C22   A    
C30   C36   A    
C1    O1    A    
C36   C38   A    
C29   C31   A    
C30   C32   A    
C11   C13   A    
C23   C39   S    
C28   C30   A    
C24   C40   S    
C8    C18   A    
Cu2   O3    S    
C48   C52   A    
Cu2   N2    S    
C8    C10   A    
C33   C38   A    
C23   O7    A    
C56   N6    T    
C2    C9    S    
C22   H16   S    
C25   C33   A    
Cu2   O6    S    
