data_mof_unit_53249.cif
_audit_creation_date              2012-12-11T15:08:50-0500
_audit_creation_method            fapswitch 2.2
_symmetry_space_group_name_H-M    P1
_symmetry_Int_Tables_number       1
_space_group_crystal_system       triclinic
_cell_length_a                    19.420441
_cell_length_b                    11.290022
_cell_length_c                    18.698452
_cell_angle_alpha                 89.972073
_cell_angle_beta                  90.208745
_cell_angle_gamma                 90.004863
_cell_volume                      4099.74263429

loop_
_atom_site_label
_atom_site_type_symbol
_atom_type_description
_atom_site_fract_x
_atom_site_fract_y
_atom_site_fract_z
_atom_type_partial_charge
C1    C     C_R   0.272458 0.043622 0.854078 0.531263
C2    C     C_3   0.688084 0.528607 0.956082 -0.235397
C3    C     C_R   0.226417 0.542310 0.354662 0.539338
C4    C     C_R   0.470156 0.822859 0.646285 0.541006
C5    C     C_R   0.531819 0.822890 0.354963 0.543668
C6    C     C_R   0.970155 0.322859 0.646285 0.541006
C7    C     C_R   0.031819 0.322890 0.354963 0.543668
C8    C     C_R   0.260181 0.638404 0.644354 0.538576
C9    C     C_R   0.738850 0.641212 0.356820 0.541152
C10   C     C_R   0.760181 0.138405 0.644354 0.538576
C11   C     C_R   0.238850 0.141212 0.356820 0.541155
C12   C     C_3   0.479693 0.915878 0.035625 -0.109335
C13   C     C_3   0.811913 0.028627 0.043957 -0.235440
C14   C     C_3   0.520271 0.915897 0.964304 -0.109397
C15   C     C_3   0.979693 0.415877 0.035625 -0.109335
C16   C     C_3   0.020270 0.415897 0.964304 -0.109397
C17   C     C_3   0.431528 0.817921 0.006471 -0.158951
C18   C     C_3   0.568473 0.818013 0.993517 -0.159151
C19   C     C_3   0.931529 0.317919 0.006471 -0.158952
C20   C     C_3   0.068473 0.318014 0.993517 -0.159152
C21   C     C_3   0.472062 0.819611 0.935993 0.057541
C22   C     C_3   0.527939 0.819673 0.063997 0.057380
C23   C     C_3   0.972061 0.319611 0.935993 0.057542
C24   C     C_3   0.188084 0.028608 0.956081 -0.235398
C25   C     C_3   0.027940 0.319673 0.063997 0.057380
C26   C     C_3   0.321296 0.553054 0.963529 -0.234840
C27   C     C_3   0.678705 0.553082 0.036496 -0.234822
C28   C     C_3   0.821296 0.053054 0.963529 -0.234840
C29   C     C_3   0.178704 0.053083 0.036496 -0.234822
C30   C     C_3   0.179708 0.523661 0.025839 -0.208388
C31   C     C_3   0.820283 0.523697 0.974207 -0.208328
C32   C     C_3   0.679708 0.023661 0.025838 -0.208388
C33   C     C_R   0.727543 0.043650 0.145928 0.532357
C34   C     C_3   0.320283 0.023697 0.974207 -0.208328
C35   C     C_3   0.240701 0.707881 0.056592 -0.257364
C36   C     C_3   0.759282 0.707877 0.943319 -0.257272
C37   C     C_3   0.740701 0.207881 0.056592 -0.257364
C38   C     C_3   0.259282 0.207877 0.943319 -0.257272
C39   C     C_3   0.241014 0.574825 0.070277 0.065270
C40   C     C_3   0.758976 0.574811 0.929722 0.065563
C41   C     C_3   0.741015 0.074825 0.070277 0.065270
C42   C     C_3   0.258976 0.074811 0.929722 0.065563
C43   C     C_3   0.255078 0.610023 0.932235 0.055270
C44   C     C_R   0.772458 0.543622 0.854078 0.531263
C45   C     C_3   0.744923 0.610079 0.067756 0.054943
C46   C     C_3   0.755079 0.110023 0.932235 0.055269
C47   C     C_3   0.244923 0.110080 0.067756 0.054943
C48   C     C_3   0.194949 0.524787 0.945040 -0.253899
C49   C     C_3   0.805049 0.524850 0.055008 -0.253773
C50   C     C_3   0.694949 0.024787 0.945040 -0.253899
C51   C     C_3   0.305049 0.024850 0.055008 -0.253773
C52   C     C_3   0.238733 0.725741 0.974614 -0.222234
C53   C     C_3   0.761273 0.725780 0.025288 -0.222375
C54   C     C_3   0.738733 0.225741 0.974614 -0.222234
C55   C     C_R   0.227543 0.543650 0.145928 0.532357
C56   C     C_3   0.261273 0.225780 0.025288 -0.222375
C57   C     C_3   0.507445 0.699838 0.461992 -0.227472
C58   C     C_3   0.506010 0.700139 0.542045 -0.234833
C59   C     C_3   0.007445 0.199838 0.461992 -0.227471
C60   C     C_3   0.006010 0.200139 0.542046 -0.234832
C61   C     C_R   0.444164 0.817024 0.862394 0.538042
C62   C     C_R   0.555832 0.817069 0.137603 0.538249
C63   C     C_R   0.944163 0.317023 0.862395 0.538041
C64   C     C_R   0.055832 0.317069 0.137603 0.538249
C65   C     C_3   0.562874 0.909835 0.473457 -0.214120
C66   C     C_3   0.519815 0.722179 0.964598 -0.112609
C67   C     C_3   0.431979 0.883055 0.526828 -0.224659
C68   C     C_3   0.062875 0.409834 0.473458 -0.214121
C69   C     C_3   0.931979 0.383056 0.526828 -0.224659
C70   C     C_3   0.441307 0.881832 0.444657 -0.262990
C71   C     C_3   0.554816 0.901543 0.555519 -0.256615
C72   C     C_3   0.941308 0.381832 0.444657 -0.262989
C73   C     C_3   0.054816 0.401543 0.555519 -0.256615
C74   C     C_3   0.511638 0.828271 0.431448 0.064107
C75   C     C_3   0.491620 0.827330 0.570017 0.058892
C76   C     C_3   0.011639 0.328271 0.431449 0.064105
C77   C     C_3   0.480221 0.722161 0.035450 -0.112399
C78   C     C_3   0.991620 0.327330 0.570017 0.058893
C79   C     C_3   0.177216 0.641934 0.460915 -0.228018
C80   C     C_3   0.815907 0.662336 0.543255 -0.234889
C81   C     C_3   0.677216 0.141934 0.460915 -0.228019
C82   C     C_3   0.315906 0.162336 0.543255 -0.234889
C83   C     C_3   0.179072 0.645191 0.540970 -0.235015
C84   C     C_3   0.814277 0.665934 0.463198 -0.226841
C85   C     C_3   0.679073 0.145190 0.540970 -0.235015
C86   C     C_3   0.314277 0.165935 0.463198 -0.226838
C87   C     C_3   0.255410 0.454317 0.472948 -0.212763
C88   C     C_3   0.019815 0.222180 0.964598 -0.112608
C89   C     C_3   0.759938 0.460970 0.527554 -0.223751
C90   C     C_3   0.755412 0.954318 0.472948 -0.212763
C91   C     C_3   0.259938 0.960970 0.527554 -0.223749
C92   C     C_3   0.301846 0.648744 0.442537 -0.263778
C93   C     C_3   0.690236 0.635211 0.557466 -0.257543
C94   C     C_3   0.801846 0.148745 0.442537 -0.263778
C95   C     C_3   0.190236 0.135212 0.557466 -0.257543
C96   C     C_3   0.239477 0.570864 0.430557 0.067748
C97   C     C_3   0.759126 0.577249 0.571057 0.062243
C98   C     C_3   0.739478 0.070864 0.430557 0.067747
C99   C     C_3   0.980222 0.222160 0.035450 -0.112399
C100  C     C_3   0.259125 0.077250 0.571057 0.062241
C101  C     C_3   0.250760 0.603606 0.568446 0.061057
C102  C     C_3   0.747070 0.608354 0.433037 0.066473
C103  C     C_3   0.750760 0.103606 0.568446 0.061057
C104  C     C_3   0.247070 0.108354 0.433036 0.066475
C105  C     C_3   0.256522 0.472020 0.554733 -0.257093
C106  C     C_3   0.755108 0.476573 0.445650 -0.264667
C107  C     C_3   0.756523 0.972020 0.554733 -0.257092
C108  C     C_3   0.255110 0.976573 0.445649 -0.264667
C109  C     C_R   0.262161 0.641853 0.855021 0.534595
C110  C     C_3   0.311913 0.528628 0.043958 -0.235440
C111  C     C_R   0.737830 0.641913 0.144964 0.535416
C112  C     C_R   0.762161 0.141853 0.855021 0.534594
C113  C     C_R   0.237830 0.141913 0.144964 0.535416
C114  C     C_3   0.307817 0.664542 0.524342 -0.226945
C115  C     C_3   0.680984 0.644084 0.475587 -0.214863
C116  C     C_3   0.807818 0.164543 0.524342 -0.226945
C117  C     C_3   0.180983 0.144081 0.475586 -0.214862
C118  C     C_R   0.272444 0.045773 0.646758 0.535590
C119  C     C_R   0.726417 0.042310 0.354662 0.539338
C120  C     C_R   0.772444 0.545772 0.646758 0.535591
Cr1   Cr    Cr6+3 0.229620 0.836040 0.749110 0.991085
Cr2   Cr    Cr6+3 0.613980 0.676590 0.250790 0.993837
Cr3   Cr    Cr6+3 0.886020 0.176590 0.749210 0.992891
Cr4   Cr    Cr6+3 0.113980 0.176590 0.250790 0.993836
Cr5   Cr    Cr6+3 0.770380 0.836040 0.250890 0.991983
Cr6   Cr    Cr6+3 0.729620 0.336040 0.749110 0.991085
Cr7   Cr    Cr6+3 0.270380 0.336040 0.250890 0.991983
Cr8   Cr    Cr6+3 0.387630 0.990680 0.750730 0.995712
Cr9   Cr    Cr6+3 0.612370 0.990680 0.249270 0.996655
Cr10  Cr    Cr6+3 0.887630 0.490680 0.750730 0.995712
Cr11  Cr    Cr6+3 0.112370 0.490680 0.249270 0.996655
Cr12  Cr    Cr6+3 0.386020 0.676590 0.749210 0.992891
H1    H     H_    0.376729 0.804713 0.017395 0.092238
H2    H     H_    0.712723 0.746736 0.918561 0.103540
H3    H     H_    0.218859 0.900793 0.545938 0.130906
H4    H     H_    0.305994 0.440333 0.577802 0.115545
H5    H     H_    0.710463 0.426931 0.423586 0.110643
H6    H     H_    0.805995 0.940334 0.577802 0.115546
H7    H     H_    0.210466 0.926929 0.423583 0.110642
H8    H     H_    0.317910 0.434212 0.054807 0.131175
H9    H     H_    0.682093 0.434190 0.945312 0.131090
H10   H     H_    0.817909 0.934212 0.054807 0.131175
H11   H     H_    0.182093 0.934191 0.945312 0.131090
H12   H     H_    0.353731 0.572546 0.074689 0.109946
H13   H     H_    0.787247 0.246770 0.081338 0.103824
H14   H     H_    0.646263 0.572486 0.925315 0.109755
H15   H     H_    0.853731 0.072546 0.074689 0.109947
H16   H     H_    0.146263 0.072486 0.925314 0.109755
H17   H     H_    0.365931 0.612913 0.955564 0.136370
H18   H     H_    0.634073 0.612940 0.044414 0.136297
H19   H     H_    0.865931 0.112913 0.955564 0.136370
H20   H     H_    0.134073 0.112942 0.044413 0.136296
H21   H     H_    0.333042 0.468807 0.935272 0.117142
H22   H     H_    0.666951 0.468849 0.064818 0.117295
H23   H     H_    0.833042 0.968807 0.935272 0.117142
H24   H     H_    0.212723 0.246737 0.918561 0.103540
H25   H     H_    0.166951 0.968851 0.064818 0.117295
H26   H     H_    0.664514 0.938226 0.047054 0.099818
H27   H     H_    0.335476 0.938262 0.953069 0.099957
H28   H     H_    0.164514 0.438226 0.047054 0.099817
H29   H     H_    0.835477 0.438262 0.953069 0.099957
H30   H     H_    0.708461 0.935890 0.925682 0.110990
H31   H     H_    0.291543 0.935952 0.074434 0.111222
H32   H     H_    0.208460 0.435890 0.925682 0.110989
H33   H     H_    0.791543 0.435952 0.074434 0.111222
H34   H     H_    0.139027 0.587945 0.563706 0.117865
H35   H     H_    0.273662 0.795421 0.958348 0.109091
H36   H     H_    0.859858 0.618227 0.441979 0.113448
H37   H     H_    0.639028 0.087944 0.563706 0.117864
H38   H     H_    0.359858 0.118228 0.441979 0.113447
H39   H     H_    0.726353 0.795464 0.041496 0.108959
H40   H     H_    0.773662 0.295420 0.958348 0.109090
H41   H     H_    0.226353 0.295465 0.041496 0.108959
H42   H     H_    0.185379 0.752026 0.960383 0.130942
H43   H     H_    0.814629 0.752092 0.039486 0.130831
H44   H     H_    0.685379 0.252026 0.960383 0.130942
H45   H     H_    0.623275 0.804896 0.982581 0.092289
H46   H     H_    0.314629 0.252091 0.039486 0.130831
H47   H     H_    0.632893 0.078881 0.034618 0.137137
H48   H     H_    0.367096 0.078927 0.965381 0.137161
H49   H     H_    0.132893 0.578881 0.034619 0.137137
H50   H     H_    0.867097 0.578927 0.965381 0.137161
H51   H     H_    0.148469 0.554002 0.915045 0.124510
H52   H     H_    0.851531 0.554094 0.084977 0.124724
H53   H     H_    0.648469 0.054003 0.915045 0.124510
H54   H     H_    0.351531 0.054094 0.084977 0.124724
H55   H     H_    0.548049 0.641161 0.444154 0.137306
H56   H     H_    0.876729 0.304712 0.017395 0.092238
H57   H     H_    0.467873 0.632687 0.558391 0.136160
H58   H     H_    0.048050 0.141161 0.444154 0.137306
H59   H     H_    0.967874 0.132687 0.558391 0.136160
H60   H     H_    0.460274 0.655668 0.441417 0.113033
H61   H     H_    0.555176 0.668954 0.564149 0.117510
H62   H     H_    0.960273 0.155668 0.441417 0.113034
H63   H     H_    0.055176 0.168955 0.564149 0.117510
H64   H     H_    0.616030 0.898759 0.456623 0.112289
H65   H     H_    0.391252 0.825072 0.539864 0.112142
H66   H     H_    0.116031 0.398758 0.456625 0.112288
H67   H     H_    0.123275 0.304898 0.982580 0.092289
H68   H     H_    0.891251 0.325074 0.539864 0.112141
H69   H     H_    0.600976 0.861876 0.580799 0.103198
H70   H     H_    0.400707 0.828804 0.417952 0.106288
H71   H     H_    0.100975 0.361876 0.580800 0.103197
H72   H     H_    0.900707 0.328804 0.417951 0.106289
H73   H     H_    0.464697 0.996671 0.065378 0.113615
H74   H     H_    0.535243 0.996703 0.934498 0.113555
H75   H     H_    0.964696 0.496669 0.065378 0.113615
H76   H     H_    0.035242 0.496704 0.934499 0.113555
H77   H     H_    0.438162 0.972846 0.422373 0.111105
H78   H     H_    0.195259 0.751545 0.081297 0.127107
H79   H     H_    0.546340 0.990630 0.579043 0.115704
H80   H     H_    0.938163 0.472846 0.422372 0.111105
H81   H     H_    0.046340 0.490630 0.579043 0.115704
H82   H     H_    0.422226 0.974267 0.545226 0.129386
H83   H     H_    0.547803 0.001054 0.459187 0.120091
H84   H     H_    0.922227 0.474268 0.545226 0.129385
H85   H     H_    0.047804 0.501053 0.459187 0.120092
H86   H     H_    0.127190 0.610455 0.443451 0.136583
H87   H     H_    0.868973 0.638089 0.559167 0.135690
H88   H     H_    0.627191 0.110453 0.443452 0.136583
H89   H     H_    0.804712 0.751558 0.918568 0.126987
H90   H     H_    0.368973 0.138089 0.559167 0.135690
H91   H     H_    0.178496 0.734003 0.439890 0.112959
H92   H     H_    0.807589 0.751123 0.565836 0.116461
H93   H     H_    0.678496 0.234002 0.439890 0.112960
H94   H     H_    0.307590 0.251123 0.565836 0.116461
H95   H     H_    0.164716 0.736206 0.556957 0.135398
H96   H     H_    0.822966 0.756258 0.445818 0.136339
H97   H     H_    0.664716 0.236205 0.556957 0.135398
H98   H     H_    0.322965 0.256258 0.445818 0.136339
H99   H     H_    0.722961 0.880270 0.456976 0.112308
H100  H     H_    0.695259 0.251545 0.081297 0.127107
H101  H     H_    0.309433 0.928398 0.540056 0.112728
H102  H     H_    0.222960 0.380268 0.456976 0.112308
H103  H     H_    0.809433 0.428397 0.540054 0.112728
H104  H     H_    0.713882 0.923445 0.580712 0.102464
H105  H     H_    0.301739 0.942535 0.418567 0.105880
H106  H     H_    0.213881 0.423446 0.580712 0.102464
H107  H     H_    0.801735 0.442534 0.418566 0.105880
H108  H     H_    0.348966 0.606950 0.420492 0.111860
H109  H     H_    0.649734 0.578221 0.581311 0.115945
H110  H     H_    0.848967 0.106952 0.420492 0.111859
H111  H     H_    0.304713 0.251558 0.918567 0.126987
H112  H     H_    0.149734 0.078224 0.581313 0.115944
H113  H     H_    0.295293 0.735016 0.414913 0.104522
H114  H     H_    0.687863 0.723573 0.582976 0.102362
H115  H     H_    0.795293 0.235017 0.414913 0.104522
H116  H     H_    0.187864 0.223576 0.582974 0.102363
H117  H     H_    0.535012 0.640854 0.935473 0.122269
H118  H     H_    0.465040 0.640816 0.064619 0.122431
H119  H     H_    0.035013 0.140855 0.935472 0.122270
H120  H     H_    0.965041 0.140815 0.064618 0.122431
H121  H     H_    0.298008 0.754652 0.535300 0.113091
H122  H     H_    0.287247 0.746770 0.081338 0.103824
H123  H     H_    0.660105 0.729396 0.459324 0.112257
H124  H     H_    0.798008 0.254653 0.535300 0.113090
H125  H     H_    0.160100 0.229391 0.459321 0.112258
H126  H     H_    0.359025 0.635463 0.542870 0.129522
H127  H     H_    0.642255 0.576397 0.461642 0.120039
H128  H     H_    0.859025 0.135465 0.542870 0.129523
H129  H     H_    0.142256 0.076388 0.461643 0.120038
H130  H     H_    0.308616 0.430532 0.458195 0.121060
H131  H     H_    0.718860 0.400792 0.545938 0.130906
H132  H     H_    0.808617 0.930532 0.458194 0.121060
O1    O     O_R   0.214130 0.708570 0.829890 -0.528181
O2    O     O_R   0.542830 0.717300 0.331620 -0.530745
O3    O     O_R   0.957170 0.217300 0.668380 -0.530762
O4    O     O_R   0.042830 0.217300 0.331620 -0.530745
O5    O     O_R   0.320870 0.624890 0.673130 -0.510988
O6    O     O_R   0.679130 0.624890 0.326870 -0.511190
O7    O     O_R   0.820870 0.124890 0.673130 -0.510988
O8    O     O_R   0.179130 0.124890 0.326870 -0.511192
O9    O     O_3   0.334430 0.834430 0.749680 -0.281048
O10   O     O_3   0.665570 0.834430 0.250320 -0.284429
O11   O     O_3   0.834430 0.334430 0.749680 -0.281049
O12   O     O_R   0.785870 0.708570 0.170110 -0.527612
O13   O     O_3   0.165570 0.334430 0.250320 -0.284429
O14   O     O_R   0.236050 0.959150 0.825270 -0.514358
O15   O     O_R   0.763950 0.959150 0.174730 -0.513842
O16   O     O_R   0.736050 0.459150 0.825270 -0.514358
O17   O     O_R   0.263950 0.459150 0.174730 -0.513842
O18   O     O_R   0.332100 0.076650 0.832310 -0.533285
O19   O     O_R   0.667900 0.076650 0.167690 -0.532708
O20   O     O_R   0.832100 0.576650 0.832310 -0.533285
O21   O     O_R   0.167900 0.576650 0.167690 -0.532708
O22   O     O_R   0.446500 0.918620 0.826240 -0.504385
O23   O     O_R   0.714130 0.208570 0.829890 -0.528181
O24   O     O_R   0.553500 0.918620 0.173760 -0.503671
O25   O     O_R   0.946500 0.418620 0.826240 -0.504384
O26   O     O_R   0.053500 0.418620 0.173760 -0.503671
O27   O     O_R   0.457310 0.715830 0.831280 -0.524654
O28   O     O_R   0.542690 0.715830 0.168720 -0.523913
O29   O     O_R   0.957310 0.215830 0.831280 -0.524653
O30   O     O_R   0.042690 0.215830 0.168720 -0.523913
O31   O     O_R   0.321000 0.623520 0.824130 -0.519233
O32   O     O_R   0.679000 0.623520 0.175870 -0.518720
O33   O     O_R   0.821000 0.123520 0.824130 -0.519233
O34   O     O_R   0.285870 0.208570 0.170110 -0.527612
O35   O     O_R   0.179000 0.123520 0.175870 -0.518720
O36   O     O_R   0.213990 0.710040 0.667000 -0.532958
O37   O     O_R   0.786010 0.710040 0.333000 -0.533056
O38   O     O_R   0.713990 0.210040 0.667000 -0.532958
O39   O     O_R   0.286010 0.210040 0.333000 -0.533057
O40   O     O_R   0.235920 0.960520 0.674260 -0.512010
O41   O     O_R   0.764080 0.960520 0.325740 -0.512300
O42   O     O_R   0.735920 0.460520 0.674260 -0.512010
O43   O     O_R   0.264080 0.460520 0.325740 -0.512300
O44   O     O_R   0.331960 0.078120 0.669410 -0.533959
O45   O     O_R   0.446360 0.919990 0.675230 -0.507541
O46   O     O_R   0.668040 0.078120 0.330590 -0.534270
O47   O     O_R   0.831960 0.578120 0.669410 -0.533959
O48   O     O_R   0.168040 0.578120 0.330590 -0.534270
O49   O     O_R   0.553640 0.919990 0.324770 -0.507610
O50   O     O_R   0.946360 0.419990 0.675230 -0.507541
O51   O     O_R   0.053640 0.419990 0.324770 -0.507610
O52   O     O_R   0.457170 0.717300 0.668380 -0.530761

loop_
_geom_bond_atom_site_label_1
_geom_bond_atom_site_label_2
_ccdc_geom_bond_type
C37   H100  S    
C9    O6    A    
C31   H29   S    
C113  O34   A    
C46   C112  S    
C11   O8    A    
C34   C42   S    
C4    O52   A    
C33   O19   A    
C14   C21   S    
C90   C107  S    
Cr2   O10   S    
C54   H44   S    
C5    C74   S    
Cr9   O19   S    
C36   C53   S    
C18   H45   S    
C89   C106  S    
C70   C74   S    
C35   H122  S    
C91   C100  S    
C94   H115  S    
C85   C103  S    
C59   C60   S    
Cr9   O10   S    
C83   H34   S    
C85   H97   S    
C57   H60   S    
Cr1   O1    S    
Cr11  O21   S    
C19   C99   S    
C61   O27   A    
C81   H88   S    
Cr4   O4    S    
C85   H37   S    
C19   C23   S    
C84   H36   S    
C19   H56   S    
C49   H52   S    
Cr11  O51   S    
C16   C20   S    
C13   H10   S    
C87   H130  S    
Cr4   O35   S    
C82   H90   S    
C71   H79   S    
C10   O7    A    
C14   H74   S    
C63   O29   A    
C17   H1    S    
C120  O47   A    
C104  C117  S    
C116  H124  S    
C66   C77   S    
C26   H17   S    
C10   O38   A    
C45   C111  S    
C48   H32   S    
C58   H61   S    
C12   H73   S    
Cr12  O52   S    
C107  H6    S    
C103  C116  S    
C79   C96   S    
C115  H127  S    
Cr7   O34   S    
C62   O24   A    
Cr8   O9    S    
C57   H55   S    
C88   C99   S    
Cr8   O45   S    
C2    C40   S    
C108  H105  S    
C81   C98   S    
C55   O17   A    
C103  C107  S    
C77   H118  S    
C70   H70   S    
Cr8   O44   S    
C21   C66   S    
C50   H30   S    
C84   C102  S    
C3    O48   A    
Cr8   O18   S    
C86   C104  S    
C56   H46   S    
C95   C117  S    
C38   H111  S    
C82   H94   S    
C28   C46   S    
C34   C51   S    
C29   C47   S    
C30   C48   S    
C65   H83   S    
C43   C52   S    
C15   C25   S    
C24   H11   S    
C12   C22   S    
C92   C96   S    
Cr1   O36   S    
C64   O26   A    
C2    H9    S    
C8    O36   A    
C119  O46   A    
C32   C41   S    
C89   H131  S    
C90   H132  S    
C5    O49   A    
C65   H64   S    
Cr5   O37   S    
C34   H27   S    
C27   H22   S    
C45   C53   S    
Cr3   O33   S    
C69   H84   S    
Cr4   O30   S    
Cr3   O11   S    
C60   C78   S    
C54   H40   S    
C109  O1    A    
C53   H39   S    
C106  H5    S    
C109  O31   A    
C111  O12   A    
C62   O28   A    
C65   C74   S    
C25   C64   S    
C69   C72   S    
C28   H23   S    
C87   C105  S    
Cr12  O27   S    
C61   O22   A    
C115  H123  S    
C11   C104  S    
C27   H18   S    
C23   C88   S    
C67   C75   S    
C13   H15   S    
Cr3   O29   S    
C93   C97   S    
C35   C52   S    
Cr2   O2    S    
Cr3   O7    S    
Cr4   O8    S    
C83   C101  S    
C18   C22   S    
C36   H2    S    
C108  H7    S    
C79   H91   S    
C7    C76   S    
Cr9   O49   S    
C16   C23   S    
C91   H101  S    
C67   C70   S    
C89   H103  S    
C68   H85   S    
C51   H54   S    
C93   H109  S    
C57   C58   S    
C44   O16   A    
Cr12  O9    S    
Cr10  O25   S    
C30   C39   S    
C37   C41   S    
C40   C44   S    
C38   C56   S    
C28   H19   S    
C67   H82   S    
C43   C109  S    
C59   C76   S    
C15   H75   S    
C60   H63   S    
C47   C56   S    
C107  H104  S    
Cr10  O50   S    
C52   H42   S    
C24   C42   S    
C34   H48   S    
C80   C84   S    
C80   H87   S    
C13   C41   S    
Cr2   O32   S    
C15   C19   S    
C53   H43   S    
C10   C103  S    
C35   H78   S    
C52   H35   S    
C80   C97   S    
C20   C25   S    
C94   C98   S    
C44   O20   A    
C55   O21   A    
C31   C40   S    
C24   C29   S    
C4    C75   S    
C102  C115  S    
C25   C99   S    
C39   C55   S    
C9    C102  S    
C12   C17   S    
C69   H68   S    
C13   C28   S    
C51   H31   S    
C2    C27   S    
C112  O23   A    
C119  O41   A    
C8    C101  S    
C21   C61   S    
C95   H112  S    
C72   H72   S    
C117  H129  S    
C27   C45   S    
C23   C63   S    
C5    O2    A    
C113  O35   A    
C86   H38   S    
C92   H113  S    
C101  C114  S    
C73   H81   S    
C31   C49   S    
Cr5   O10   S    
Cr1   O40   S    
C86   H98   S    
Cr1   O14   S    
Cr12  O5    S    
C94   C116  S    
C95   C100  S    
C47   C51   S    
C16   H76   S    
C82   C86   S    
C35   C39   S    
C49   H33   S    
C80   H92   S    
C73   H71   S    
C6    O50   A    
Cr6   O38   S    
C45   C49   S    
Cr7   O43   S    
C46   C54   S    
C17   C77   S    
Cr2   O28   S    
Cr7   O13   S    
C110  H12   S    
C88   H119  S    
C31   H50   S    
C30   H49   S    
C18   C66   S    
C104  C108  S    
C47   C113  S    
C114  H121  S    
C91   C108  S    
C22   C77   S    
C99   H120  S    
C67   H65   S    
C48   H51   S    
C29   H25   S    
Cr4   O13   S    
C38   C42   S    
Cr11  O48   S    
Cr12  O31   S    
C56   H41   S    
C33   C41   S    
C1    O14   A    
C79   C83   S    
C20   C88   S    
C7    O51   A    
Cr1   O9    S    
Cr11  O13   S    
C6    C78   S    
C93   H114  S    
Cr2   O6    S    
Cr3   O3    S    
C1    C42   S    
C91   H3    S    
C6    O3    A    
C120  O42   A    
C59   H58   S    
C58   C75   S    
Cr5   O12   S    
C17   C21   S    
Cr6   O11   S    
C14   C18   S    
C38   H24   S    
C72   C76   S    
C98   C119  S    
C83   H95   S    
C30   H28   S    
C92   H108  S    
C87   H102  S    
C81   H93   S    
Cr6   O42   S    
Cr7   O39   S    
C1    O18   A    
C4    O45   A    
C15   C16   S    
C68   H66   S    
C93   C115  S    
Cr10  O20   S    
C39   C110  S    
C118  O44   A    
C73   C78   S    
C32   H47   S    
C3    C96   S    
C43   C48   S    
C26   C110  S    
C116  H128  S    
C66   H117  S    
Cr6   O23   S    
Cr5   O41   S    
C69   C78   S    
C26   C43   S    
C32   H26   S    
Cr10  O47   S    
C59   H62   S    
C101  C105  S    
C36   C40   S    
C24   H16   S    
C79   H86   S    
Cr5   O15   S    
C68   C73   S    
C65   C71   S    
Cr6   O16   S    
C89   C97   S    
C57   C74   S    
C20   H67   S    
C9    O37   A    
C8    O5    A    
C95   H116  S    
C22   C62   S    
C117  H125  S    
C11   O39   A    
C105  H106  S    
C87   C96   S    
C58   H57   S    
C118  O40   A    
C68   C76   S    
C114  H126  S    
C32   C50   S    
C105  H4    S    
C37   C54   S    
C12   C14   S    
C90   H99   S    
C84   H96   S    
C33   O15   A    
C71   H69   S    
C111  O32   A    
Cr11  O26   S    
C82   C100  S    
Cr9   O24   S    
C26   H21   S    
Cr9   O46   S    
C2    H14   S    
C46   C50   S    
C112  O33   A    
C106  H107  S    
Cr7   O17   S    
C97   C120  S    
C110  H8    S    
C94   H110  S    
Cr8   O22   S    
C29   H20   S    
C71   C75   S    
C72   H80   S    
C60   H59   S    
C36   H89   S    
C102  C106  S    
C7    O4    A    
C81   C85   S    
C100  C118  S    
C63   O25   A    
C70   H77   S    
C3    O43   A    
C64   O30   A    
C37   H13   S    
Cr10  O11   S    
C50   H53   S    
C92   C114  S    
C90   C98   S    
