data_mof_unit_30311.cif
_audit_creation_date              2013-03-05T15:59:46-0500
_audit_creation_method            fapswitch 2.2
_symmetry_space_group_name_H-M    P1
_symmetry_Int_Tables_number       1
_space_group_crystal_system       triclinic
_cell_length_a                    18.20033
_cell_length_b                    25.978805
_cell_length_c                    18.449786
_cell_angle_alpha                 89.944727
_cell_angle_beta                  90.18659
_cell_angle_gamma                 90.095896
_cell_volume                      8723.41742854

loop_
_atom_site_label
_atom_site_type_symbol
_atom_site_description
_atom_site_fract_x
_atom_site_fract_y
_atom_site_fract_z
_atom_type_partial_charge
Zn1   Zn    Zn3+2 0.500000 0.706650 0.586810 1.021233
Zn2   Zn    Zn3+2 0.500000 0.293350 0.413190 1.022570
Zn3   Zn    Zn3+2 0.500000 0.706650 0.413190 1.023872
Zn4   Zn    Zn3+2 0.500000 0.293350 0.586810 1.010312
Zn5   Zn    Zn3+2 0.000000 0.206650 0.086810 1.016536
Zn6   Zn    Zn3+2 0.000000 0.793350 0.913190 1.031626
Zn7   Zn    Zn3+2 0.000000 0.206650 0.913190 1.003121
Zn8   Zn    Zn3+2 0.000000 0.793350 0.086810 1.029096
Zn9   Zn    Zn3+2 0.586710 0.793420 0.500000 0.925664
Zn10  Zn    Zn3+2 0.413290 0.206580 0.500000 0.945866
Zn11  Zn    Zn3+2 0.413290 0.793420 0.500000 0.945961
Zn12  Zn    Zn3+2 0.586710 0.206580 0.500000 0.949160
Zn13  Zn    Zn3+2 0.086710 0.293420 0.000000 0.923322
Zn14  Zn    Zn3+2 0.913290 0.706580 0.000000 0.936892
Zn15  Zn    Zn3+2 0.913290 0.293420 0.000000 0.946885
Zn16  Zn    Zn3+2 0.086710 0.706580 0.000000 0.947028
O1    O     O_3   0.500000 0.750040 0.500000 -0.488700
O2    O     O_3   0.500000 0.249960 0.500000 -0.487807
O3    O     O_3   0.000000 0.250040 0.000000 -0.484420
O4    O     O_3   1.000000 0.749960 0.000000 -0.489714
O5    O     O_R   0.585420 0.719700 0.353880 -0.619294
O6    O     O_R   0.414580 0.280300 0.646120 -0.614213
O7    O     O_R   0.414580 0.719700 0.646120 -0.618776
O8    O     O_R   0.585420 0.280300 0.353880 -0.612709
O9    O     O_R   0.585420 0.280300 0.646120 -0.635336
O10   O     O_R   0.414580 0.719700 0.353880 -0.618358
O11   O     O_R   0.414580 0.280300 0.353880 -0.632349
O12   O     O_R   0.585420 0.719700 0.646120 -0.624642
O13   O     O_R   0.085420 0.219700 0.853880 -0.622297
O14   O     O_R   0.914580 0.780300 0.146120 -0.606515
O15   O     O_R   0.914580 0.219700 0.146120 -0.600848
O16   O     O_R   0.085420 0.780300 0.853880 -0.629792
O17   O     O_R   0.085420 0.780300 0.146120 -0.631869
O18   O     O_R   0.914580 0.219700 0.853880 -0.629758
O19   O     O_R   0.914580 0.780300 0.853880 -0.621919
O20   O     O_R   0.085420 0.219700 0.146120 -0.641323
O21   O     O_R   0.646120 0.780390 0.585510 -0.662481
O22   O     O_R   0.353880 0.219610 0.414490 -0.643379
O23   O     O_R   0.353880 0.780390 0.414490 -0.649805
O24   O     O_R   0.646120 0.219610 0.585510 -0.656987
O25   O     O_R   0.646120 0.219610 0.414490 -0.651254
O26   O     O_R   0.353880 0.780390 0.585510 -0.650554
O27   O     O_R   0.353880 0.219610 0.585510 -0.658583
O28   O     O_R   0.646120 0.780390 0.414490 -0.658694
O29   O     O_R   0.146120 0.280390 0.085510 -0.660659
O30   O     O_R   0.853880 0.719610 0.914490 -0.649640
O31   O     O_R   0.853880 0.280390 0.914490 -0.649242
O32   O     O_R   0.146120 0.719610 0.085510 -0.656607
O33   O     O_R   0.146120 0.719610 0.914490 -0.649606
O34   O     O_R   0.853880 0.280390 0.085510 -0.656848
O35   O     O_R   0.853880 0.719610 0.085510 -0.670544
O36   O     O_R   0.146120 0.280390 0.914490 -0.660538
O37   O     O_R   0.560660 0.865840 0.500000 -0.637247
O38   O     O_R   0.439340 0.134160 0.500000 -0.652660
O39   O     O_R   0.439340 0.865840 0.500000 -0.657195
O40   O     O_R   0.560660 0.134160 0.500000 -0.651122
O41   O     O_R   0.060660 0.365840 0.000000 -0.637158
O42   O     O_R   0.939340 0.634160 0.000000 -0.655380
O43   O     O_R   0.939340 0.365840 0.000000 -0.655908
O44   O     O_R   0.060660 0.634160 0.000000 -0.652794
O45   O     O_R   0.500000 0.634240 0.439310 -0.627335
O46   O     O_R   0.500000 0.365760 0.560690 -0.636574
O47   O     O_R   0.500000 0.634240 0.560690 -0.639363
O48   O     O_R   0.500000 0.365760 0.439310 -0.633278
O49   O     O_R   0.000000 0.134240 0.939310 -0.612358
O50   O     O_R   0.000000 0.865760 0.060690 -0.609539
O51   O     O_R   0.000000 0.134240 0.060690 -0.623670
O52   O     O_R   0.000000 0.865760 0.939310 -0.601183
C1    C     C_R   0.641420 0.749392 0.361298 0.801931
C2    C     C_R   0.358942 0.250172 0.639202 0.794886
C3    C     C_R   0.360495 0.751043 0.640603 0.808963
C4    C     C_R   0.641048 0.250382 0.360873 0.810953
C5    C     C_R   0.639620 0.249313 0.640367 0.808694
C6    C     C_R   0.360716 0.751283 0.359291 0.796501
C7    C     C_R   0.358807 0.250715 0.361067 0.797988
C8    C     C_R   0.641137 0.749375 0.638878 0.808469
C9    C     C_R   0.141461 0.249306 0.861361 0.801936
C10   C     C_R   0.859094 0.749968 0.139371 0.826499
C11   C     C_R   0.858987 0.249523 0.139141 0.858799
C12   C     C_R   0.139584 0.749012 0.859454 0.834380
C13   C     C_R   0.139640 0.749344 0.140333 0.808582
C14   C     C_R   0.860726 0.251253 0.859292 0.779096
C15   C     C_R   0.858784 0.750707 0.861093 0.808392
C16   C     C_R   0.141165 0.249379 0.138841 0.803942
C17   C     C_R   0.500663 0.890525 0.495654 0.817751
C18   C     C_R   0.499805 0.109864 0.507879 0.806094
C19   C     C_R   0.000647 0.390510 0.995519 0.816715
C20   C     C_R   0.999742 0.609839 0.007740 0.799282
C21   C     C_R   0.500205 0.609789 0.500114 0.853082
C22   C     C_R   0.500142 0.389800 0.499933 0.870604
C23   C     C_R   0.999475 0.109694 0.998672 0.804087
C24   C     C_R   0.999203 0.889811 0.000360 0.840466
C25   C     C_R   0.499499 0.544455 0.363631 -0.057365
C26   C     C_R   0.417741 0.453956 0.609823 -0.067286
C27   C     C_R   0.500893 0.543589 0.637488 -0.070281
C28   C     C_R   0.582037 0.454709 0.388940 -0.067103
C29   C     C_R   0.070185 0.042657 0.881543 -0.130015
C30   C     C_R   0.872348 0.945255 0.061060 -0.063682
C31   C     C_R   0.873585 0.052661 0.066168 -0.057110
C32   C     C_R   0.122875 0.952744 0.948596 -0.088459
C33   C     C_R   0.546775 0.526152 0.308675 -0.151330
C34   C     C_R   0.410356 0.479808 0.677270 -0.122425
C35   C     C_R   0.456394 0.522502 0.693050 -0.159951
C36   C     C_R   0.591153 0.482426 0.322993 -0.130522
C37   C     C_R   0.136147 0.019777 0.856965 -0.145733
C38   C     C_R   0.826551 0.970768 0.110976 -0.134778
C39   C     C_R   0.827798 0.024995 0.114222 -0.142467
C40   C     C_R   0.166022 0.977372 0.894971 -0.120896
C41   C     C_R   0.531416 0.473850 0.441131 -0.003065
C42   C     C_R   0.491613 0.524517 0.565995 0.004947
C43   C     C_R   0.468947 0.473552 0.558564 -0.006437
C44   C     C_R   0.509048 0.524874 0.434633 -0.009936
C45   C     C_R   0.053056 0.973912 0.967324 -0.009470
C46   C     C_R   0.933124 0.026785 0.031422 0.018880
C47   C     C_R   0.933785 0.972045 0.031144 0.009796
C48   C     C_R   0.037571 0.024477 0.946917 0.005825
C49   C     C_R   0.500211 0.445823 0.499807 -0.080858
C50   C     C_R   0.500431 0.553063 0.500363 -0.074317
C51   C     C_R   0.996091 0.945982 0.001499 -0.093873
C52   C     C_R   0.988832 0.053279 0.991889 -0.084786
C53   C     C_R   0.268698 0.798048 0.718048 0.138674
C54   C     C_R   0.773321 0.240813 0.322703 0.152031
C55   C     C_R   0.771273 0.767368 0.320128 0.154136
C56   C     C_R   0.229467 0.231692 0.681170 0.155564
C57   C     C_R   0.226249 0.249803 0.322548 0.179219
C58   C     C_R   0.773840 0.751194 0.676683 0.180816
C59   C     C_R   0.721554 0.202400 0.727590 0.170807
C60   C     C_R   0.274787 0.798722 0.275780 0.155666
C61   C     C_R   0.727134 0.258269 0.177722 0.170015
C62   C     C_R   0.231568 0.702057 0.782118 0.151730
C63   C     C_R   0.271852 0.265740 0.820761 0.163937
C64   C     C_R   0.730240 0.729768 0.181888 0.159812
C65   C     C_R   0.726258 0.748071 0.822607 0.179444
C66   C     C_R   0.273906 0.250171 0.176623 0.175547
C67   C     C_R   0.220610 0.702515 0.228461 0.170792
C68   C     C_R   0.774054 0.298631 0.776537 0.163223
C69   C     C_R   0.676691 0.259642 0.234271 -0.204070
C70   C     C_R   0.286111 0.705128 0.729402 -0.240240
C71   C     C_R   0.321711 0.266660 0.763840 -0.194408
C72   C     C_R   0.679891 0.730576 0.238173 -0.228838
C73   C     C_R   0.675495 0.747218 0.766065 -0.260784
C74   C     C_R   0.324806 0.251703 0.233255 -0.247852
C75   C     C_R   0.276845 0.704950 0.279780 -0.236384
C76   C     C_R   0.720621 0.296049 0.722461 -0.248244
C77   C     C_R   0.214227 0.795017 0.770873 -0.225035
C78   C     C_R   0.823867 0.240384 0.266057 -0.240575
C79   C     C_R   0.821076 0.768065 0.263214 -0.222430
C80   C     C_R   0.179242 0.232044 0.737597 -0.212459
C81   C     C_R   0.175465 0.248979 0.266010 -0.253222
C82   C     C_R   0.824681 0.752819 0.733340 -0.251344
C83   C     C_R   0.778197 0.204810 0.778479 -0.249211
C84   C     C_R   0.221398 0.796123 0.221634 -0.239847
H1    H     H_    0.619175 0.266240 0.221798 0.167391
H2    H     H_    0.313416 0.670226 0.711908 0.194013
H3    H     H_    0.377479 0.279426 0.774516 0.180054
H4    H     H_    0.624718 0.716386 0.228137 0.186568
H5    H     H_    0.617277 0.745985 0.778515 0.171121
H6    H     H_    0.383077 0.251829 0.221090 0.156334
H7    H     H_    0.296918 0.669873 0.304622 0.164180
H8    H     H_    0.698249 0.331406 0.700194 0.173546
H9    H     H_    0.187042 0.829951 0.788458 0.196357
H10   H     H_    0.881501 0.233911 0.277996 0.158537
H11   H     H_    0.876322 0.782072 0.273427 0.179344
H12   H     H_    0.123589 0.218943 0.727106 0.176056
H13   H     H_    0.117210 0.249029 0.278399 0.158961
H14   H     H_    0.882927 0.753925 0.721158 0.155309
H15   H     H_    0.799635 0.169542 0.801860 0.182237
H16   H     H_    0.199605 0.831468 0.198763 0.188407
C85   C     C_R   0.698465 0.250538 0.305970 -0.052774
C86   C     C_R   0.304543 0.752085 0.696923 -0.049428
C87   C     C_R   0.301897 0.249634 0.694572 -0.069867
C88   C     C_R   0.698979 0.749245 0.306633 -0.068982
C89   C     C_R   0.698232 0.749141 0.693971 -0.044030
C90   C     C_R   0.301917 0.250999 0.305570 -0.055419
C91   C     C_R   0.304275 0.752281 0.303394 -0.051286
C92   C     C_R   0.695182 0.248687 0.697067 -0.037970
C93   C     C_R   0.195672 0.748025 0.803246 -0.053180
C94   C     C_R   0.801926 0.249253 0.194374 -0.038152
C95   C     C_R   0.801976 0.749360 0.194641 -0.043175
C96   C     C_R   0.198990 0.249088 0.806681 -0.060011
C97   C     C_R   0.198257 0.249317 0.193928 -0.037501
C98   C     C_R   0.801858 0.750879 0.805635 -0.048738
C99   C     C_R   0.804418 0.252205 0.803290 -0.057194
C100  C     C_R   0.195198 0.748749 0.197009 -0.039048
C101  C     C_R   0.437367 0.975451 0.484783 0.141531
C102  C     C_R   0.565957 0.026247 0.531013 0.094125
C103  C     C_R   0.569914 0.974204 0.509226 0.124619
C104  C     C_R   0.433448 0.025329 0.513137 0.157232
C105  C     C_R   0.937244 0.475349 0.983957 0.142268
C106  C     C_R   0.065630 0.526194 0.030777 0.090795
C107  C     C_R   0.069698 0.474229 0.008772 0.121090
C108  C     C_R   0.933059 0.525257 0.012240 0.154945
C109  C     C_R   0.499287 0.053413 0.521068 -0.185871
C110  C     C_R   0.503282 0.947459 0.493130 -0.189028
C111  C     C_R   0.998970 0.553356 0.020718 -0.188653
C112  C     C_R   0.003169 0.447431 0.992671 -0.191160
C113  C     C_2   0.452612 0.547753 0.764865 0.996608
O53   O     O_2   0.471842 0.524496 0.819322 -0.572589
O54   O     O_R   0.427150 0.598365 0.769798 -0.787042
H17   H     H_    0.426887 0.611579 0.821480 0.341944
C114  C     C_2   0.648917 0.467412 0.270886 1.011369
O55   O     O_2   0.633202 0.440728 0.218511 -0.569116
O56   O     O_R   0.721385 0.483147 0.282757 -0.808132
H18   H     H_    0.756108 0.469966 0.244170 0.340413
C115  C     C_2   0.554921 0.555940 0.240203 0.987227
O57   O     O_2   0.560735 0.533806 0.182059 -0.593338
O58   O     O_R   0.555226 0.609762 0.242633 -0.773180
H19   H     H_    0.558991 0.625933 0.192759 0.334883
C116  C     C_2   0.352993 0.463953 0.729756 0.973800
O59   O     O_2   0.370511 0.447161 0.789244 -0.598814
O60   O     O_R   0.278869 0.467923 0.710532 -0.793836
H20   H     H_    0.244910 0.455711 0.750493 0.336693
C117  C     C_2   0.778849 0.053138 0.164708 0.968850
O61   O     O_2   0.712109 0.049484 0.158940 -0.583706
O62   O     O_R   0.809744 0.085179 0.217522 -0.767115
H21   H     H_    0.771228 0.103218 0.247848 0.340661
C118  C     C_2   0.240412 0.957409 0.876736 0.981509
O63   O     O_2   0.257210 0.949360 0.813666 -0.644583
O64   O     O_R   0.291168 0.947722 0.932124 -0.777299
H22   H     H_    0.339509 0.933970 0.913116 0.344525
C119  C     C_2   0.172054 0.038669 0.790087 1.017314
O65   O     O_2   0.230836 0.061387 0.793704 -0.616553
O66   O     O_R   0.138393 0.029879 0.723033 -0.788676
H23   H     H_    0.167539 0.044520 0.681159 0.328169
C120  C     C_2   0.776216 0.940541 0.157745 0.984372
O67   O     O_2   0.709659 0.945256 0.151561 -0.582303
O68   O     O_R   0.805538 0.905500 0.207566 -0.770430
H24   H     H_    0.766110 0.886388 0.235524 0.341578
C121  C     C_2   0.428345 0.570237 0.344044 0.994027
O69   O     O_2   0.382124 0.578183 0.390736 -0.646693
O70   O     O_R   0.411401 0.581755 0.271839 -0.784391
H25   H     H_    0.360044 0.596033 0.265449 0.327164
C122  C     C_2   0.364319 0.412992 0.588452 0.953668
O71   O     O_2   0.342397 0.410538 0.525789 -0.652039
O72   O     O_R   0.338113 0.377876 0.639689 -0.775590
H26   H     H_    0.299985 0.353567 0.618692 0.323697
C123  C     C_2   0.568148 0.574468 0.655723 0.979450
O73   O     O_2   0.620895 0.573624 0.614758 -0.641731
O74   O     O_R   0.572093 0.604091 0.718858 -0.769931
H27   H     H_    0.620683 0.622905 0.724113 0.343277
C124  C     C_2   0.634791 0.412970 0.408331 0.933549
O75   O     O_2   0.656705 0.408681 0.470800 -0.652903
O76   O     O_R   0.660919 0.379510 0.355098 -0.773134
H28   H     H_    0.699868 0.355240 0.374226 0.329787
C125  C     C_2   0.026797 0.074865 0.830116 1.030746
O77   O     O_2   0.960671 0.067544 0.823652 -0.585183
O78   O     O_R   0.060815 0.114015 0.790296 -0.788336
H29   H     H_    0.025114 0.133290 0.757913 0.339449
C126  C     C_2   0.845288 0.896244 0.028247 0.886888
O79   O     O_2   0.844364 0.891670 0.962256 -0.628996
O80   O     O_R   0.818425 0.856372 0.071563 -0.779845
H30   H     H_    0.799763 0.826179 0.041931 0.306833
C127  C     C_2   0.848177 0.104197 0.040888 0.898047
O81   O     O_2   0.830878 0.137456 0.084323 -0.625916
O82   O     O_R   0.842020 0.113882 0.966523 -0.780278
H31   H     H_    0.824091 0.150025 0.955695 0.320696
C128  C     C_2   0.153005 0.907255 0.987591 0.928902
O83   O     O_2   0.153131 0.906360 0.053872 -0.624220
O84   O     O_R   0.180830 0.865551 0.948512 -0.810926
H32   H     H_    0.198981 0.836799 0.981132 0.326958
C129  C     C_3   0.287938 0.850886 0.688048 -0.377310
C130  C     C_3   0.363663 0.868883 0.713645 -0.764548
H33   H     H_    0.366063 0.869213 0.773819 0.269375
H34   H     H_    0.407701 0.843541 0.692694 0.227061
H35   H     H_    0.374035 0.908533 0.693613 0.252284
H36   H     H_    0.284391 0.851478 0.628092 0.223763
H37   H     H_    0.247260 0.879966 0.706187 0.240443
C131  C     C_3   0.802279 0.231429 0.399045 -0.390570
C132  C     C_3   0.798007 0.279565 0.446379 -0.825065
H38   H     H_    0.740264 0.289894 0.458351 0.254792
H39   H     H_    0.826293 0.272210 0.498788 0.248033
H40   H     H_    0.825528 0.312463 0.419095 0.257030
H41   H     H_    0.773301 0.198737 0.425024 0.235969
H42   H     H_    0.860950 0.219604 0.397435 0.197451
C133  C     C_3   0.799664 0.783873 0.393810 -0.404099
C134  C     C_3   0.795894 0.842230 0.402508 -0.805801
H43   H     H_    0.738870 0.856225 0.394377 0.269597
H44   H     H_    0.814554 0.853035 0.457796 0.235051
H45   H     H_    0.832304 0.861316 0.362410 0.271150
H46   H     H_    0.770109 0.764317 0.438224 0.226137
H47   H     H_    0.857823 0.771607 0.400485 0.193276
C135  C     C_3   0.202327 0.211256 0.609157 -0.400509
C136  C     C_3   0.212158 0.152898 0.605731 -0.772504
H48   H     H_    0.194188 0.138083 0.552206 0.232300
H49   H     H_    0.270467 0.142149 0.614443 0.271816
H50   H     H_    0.178277 0.134235 0.648252 0.266109
H51   H     H_    0.142886 0.219998 0.602447 0.184187
H52   H     H_    0.229040 0.230744 0.562885 0.225379
C137  C     C_3   0.196322 0.251210 0.398876 -0.404222
C138  C     C_3   0.164800 0.198771 0.419793 -0.836218
H53   H     H_    0.125108 0.184842 0.378359 0.259898
H54   H     H_    0.209816 0.170236 0.425553 0.275309
H55   H     H_    0.134823 0.202005 0.471725 0.241650
H56   H     H_    0.238153 0.263284 0.439169 0.206269
H57   H     H_    0.151959 0.280508 0.401827 0.199212
C139  C     C_3   0.802562 0.749084 0.599672 -0.433668
C140  C     C_3   0.789742 0.696152 0.565735 -0.827043
H58   H     H_    0.812366 0.665526 0.601419 0.271713
H59   H     H_    0.730327 0.688947 0.556680 0.253868
H60   H     H_    0.818087 0.694031 0.512645 0.236868
H61   H     H_    0.777462 0.779786 0.566111 0.228512
H62   H     H_    0.862688 0.756714 0.598646 0.204326
C141  C     C_3   0.687086 0.150717 0.711656 -0.421071
C142  C     C_3   0.609102 0.147519 0.742358 -0.849583
H63   H     H_    0.609898 0.155774 0.801427 0.271810
H64   H     H_    0.571859 0.175181 0.715024 0.240779
H65   H     H_    0.586080 0.108419 0.734274 0.250510
H66   H     H_    0.687367 0.143534 0.652626 0.223898
H67   H     H_    0.719952 0.119296 0.736630 0.217550
C143  C     C_3   0.296022 0.851488 0.303267 -0.400185
C144  C     C_3   0.238859 0.870339 0.357632 -0.805052
H68   H     H_    0.182919 0.869073 0.333411 0.261075
H69   H     H_    0.239757 0.846055 0.407176 0.274224
H70   H     H_    0.250328 0.910658 0.373159 0.240975
H71   H     H_    0.351552 0.851789 0.328045 0.200827
H72   H     H_    0.298602 0.879012 0.257139 0.211209
C145  C     C_3   0.697727 0.263582 0.101103 -0.401927
C146  C     C_3   0.686622 0.320069 0.080955 -0.757945
H73   H     H_    0.739315 0.341533 0.084287 0.274255
H74   H     H_    0.665240 0.322789 0.024661 0.235385
H75   H     H_    0.646266 0.338220 0.118006 0.279658
H76   H     H_    0.733805 0.244561 0.060915 0.227644
H77   H     H_    0.644057 0.243285 0.096592 0.199371
C147  C     C_3   0.212527 0.649162 0.812094 -0.384138
C148  C     C_3   0.136559 0.631171 0.787210 -0.829088
H78   H     H_    0.126271 0.591610 0.807711 0.248219
H79   H     H_    0.092699 0.656634 0.808219 0.242139
H80   H     H_    0.133740 0.630572 0.727061 0.260839
H81   H     H_    0.252883 0.620002 0.793322 0.217277
H82   H     H_    0.216651 0.648567 0.872027 0.233837
C149  C     C_3   0.300592 0.280284 0.895090 -0.431121
C150  C     C_3   0.299863 0.338543 0.905605 -0.751869
H83   H     H_    0.243734 0.354159 0.897262 0.264052
H84   H     H_    0.318393 0.348014 0.961422 0.233282
H85   H     H_    0.337748 0.357212 0.866496 0.292426
H86   H     H_    0.269494 0.260906 0.938623 0.227470
H87   H     H_    0.357967 0.266325 0.901721 0.198819
C151  C     C_3   0.704038 0.707191 0.110725 -0.398056
C152  C     C_3   0.719662 0.649406 0.107954 -0.779154
H88   H     H_    0.703667 0.633627 0.054338 0.245423
H89   H     H_    0.778735 0.641527 0.117303 0.266223
H90   H     H_    0.687704 0.629074 0.150411 0.260167
H91   H     H_    0.643756 0.712772 0.104594 0.189886
H92   H     H_    0.728054 0.727654 0.063804 0.226272
C153  C     C_3   0.696350 0.747609 0.899004 -0.403990
C154  C     C_3   0.669103 0.693823 0.919032 -0.812294
H93   H     H_    0.630370 0.678859 0.877408 0.269757
H94   H     H_    0.716268 0.666975 0.924088 0.273286
H95   H     H_    0.639271 0.695340 0.971226 0.243373
H96   H     H_    0.737187 0.761045 0.939442 0.204185
H97   H     H_    0.649706 0.775076 0.902581 0.205312
C155  C     C_3   0.302504 0.247074 0.099659 -0.424772
C156  C     C_3   0.288857 0.193920 0.066764 -0.839948
H98   H     H_    0.310971 0.163472 0.103057 0.271396
H99   H     H_    0.229329 0.187131 0.057805 0.244767
H100  H     H_    0.317200 0.191039 0.013745 0.244426
H101  H     H_    0.277728 0.277611 0.065577 0.227984
H102  H     H_    0.362731 0.254285 0.098423 0.206289
C157  C     C_3   0.185808 0.650894 0.212733 -0.417878
C158  C     C_3   0.107581 0.648063 0.242836 -0.862869
H103  H     H_    0.107953 0.656533 0.301846 0.270132
H104  H     H_    0.070732 0.675731 0.214998 0.240281
H105  H     H_    0.084448 0.608981 0.234826 0.249026
H106  H     H_    0.186443 0.643477 0.153758 0.226552
H107  H     H_    0.218239 0.619439 0.238169 0.204370
C159  C     C_3   0.794993 0.351393 0.804287 -0.412411
C160  C     C_3   0.738267 0.369815 0.859374 -0.787815
H108  H     H_    0.681971 0.367798 0.836079 0.263486
H109  H     H_    0.740577 0.345774 0.909089 0.271419
H110  H     H_    0.749075 0.410350 0.874309 0.244087
H111  H     H_    0.850805 0.351870 0.828417 0.200877
H112  H     H_    0.796828 0.379115 0.758357 0.203398
C161  C     C_3   0.376290 0.957274 0.434303 -0.397441
C162  C     C_3   0.371326 0.991922 0.367233 -0.882784
H113  H     H_    0.356288 0.031899 0.382033 0.264173
H114  H     H_    0.424915 0.992532 0.338560 0.269143
H115  H     H_    0.328951 0.976975 0.329317 0.258196
H116  H     H_    0.386387 0.918228 0.413047 0.231433
H117  H     H_    0.322714 0.956528 0.462662 0.215125
C163  C     C_3   0.628665 0.050445 0.574387 -0.344010
C164  C     C_3   0.648365 0.019369 0.642565 -0.855560
H118  H     H_    0.602713 0.993620 0.659503 0.264416
H119  H     H_    0.699047 0.996960 0.633968 0.265796
H120  H     H_    0.660884 0.045194 0.688524 0.247993
H121  H     H_    0.677910 0.056399 0.540043 0.201633
H122  H     H_    0.611932 0.088497 0.594997 0.221204
C165  C     C_3   0.644532 0.952643 0.485903 -0.318170
C166  C     C_3   0.683868 0.919332 0.542934 -0.751864
H123  H     H_    0.650673 0.914842 0.592944 0.260530
H124  H     H_    0.694977 0.880390 0.520917 0.267076
H125  H     H_    0.738212 0.936200 0.556685 0.218872
H126  H     H_    0.637437 0.930185 0.435081 0.196086
H127  H     H_    0.681773 0.984442 0.469477 0.185430
C167  C     C_3   0.360754 0.044424 0.543975 -0.399864
C168  C     C_3   0.334030 0.009385 0.605243 -0.842288
H128  H     H_    0.376056 0.007488 0.648981 0.270298
H129  H     H_    0.282723 0.025257 0.628388 0.263426
H130  H     H_    0.322475 0.969826 0.585752 0.254929
H131  H     H_    0.366029 0.082765 0.569329 0.235257
H132  H     H_    0.318101 0.047102 0.501066 0.214757
C169  C     C_3   0.876641 0.457032 0.932977 -0.393585
C170  C     C_3   0.872792 0.491109 0.865293 -0.893996
H133  H     H_    0.858429 0.531361 0.879252 0.266435
H134  H     H_    0.926576 0.490953 0.836970 0.260471
H135  H     H_    0.830343 0.476158 0.827438 0.260578
H136  H     H_    0.886601 0.417771 0.912499 0.229391
H137  H     H_    0.822675 0.456730 0.960566 0.220972
C171  C     C_3   0.128295 0.550281 0.074362 -0.336362
C172  C     C_3   0.147401 0.519278 0.142780 -0.861416
H138  H     H_    0.101714 0.493403 0.159236 0.263315
H139  H     H_    0.198276 0.496953 0.134752 0.266642
H140  H     H_    0.159210 0.545185 0.188858 0.245802
H141  H     H_    0.177764 0.555965 0.040239 0.203410
H142  H     H_    0.111820 0.588447 0.094747 0.220776
C173  C     C_3   0.144257 0.452863 0.985001 -0.324617
C174  C     C_3   0.184210 0.419884 0.041962 -0.735525
H143  H     H_    0.151065 0.414990 0.091930 0.257348
H144  H     H_    0.196052 0.381080 0.019823 0.263238
H145  H     H_    0.238174 0.437299 0.055819 0.224582
H146  H     H_    0.136932 0.430188 0.934397 0.190855
H147  H     H_    0.181123 0.484748 0.968060 0.186470
C175  C     C_3   0.859649 0.544744 0.041110 -0.379173
C176  C     C_3   0.830224 0.510010 0.101549 -0.876591
H148  H     H_    0.870259 0.508466 0.147092 0.261245
H149  H     H_    0.777693 0.525922 0.122203 0.271708
H150  H     H_    0.819761 0.470281 0.082226 0.264773
H151  H     H_    0.864801 0.582893 0.066867 0.231998
H152  H     H_    0.818379 0.547898 0.996972 0.219496

loop_
_geom_bond_atom_site_label_1
_geom_bond_atom_site_label_2
_geom_bond_distance
_ccdc_geom_bond_type
Zn6   O16   1.934657 S    
Zn7   O13   1.933374 S    
C138  H55   1.107460 S    
C114  O56   1.396841 S    
C102  C109  1.416087 A    
C102  C163  1.526689 S    
O66   H23   1.012090 S    
C75   C91   1.395884 A    
Zn5   O51   1.942323 S    
O34   C11   1.276260 A    
C42   C50   1.428677 A    
C46   C47   1.422147 A    
C143  H72   1.112096 S    
C135  C136  1.528300 S    
C8    C89   1.451270 S    
C24   C51   1.460615 S    
C18   C109  1.486372 S    
C29   C125  1.489885 S    
C38   C39   1.410217 A    
Zn5   O20   1.928006 S    
C26   C43   1.423137 A    
Zn6   O19   1.928008 S    
C35   C113  1.480893 S    
O23   C6    1.275551 A    
C113  O54   1.398005 S    
C42   C43   1.392882 A    
C142  H65   1.108161 S    
C65   C153  1.512652 S    
O74   H27   1.014143 S    
C55   C133  1.514809 S    
C147  C148  1.528071 S    
C71   C87   1.398718 A    
C76   H8    1.085224 S    
C29   C37   1.416549 A    
C70   H2    1.084613 S    
O54   H17   1.013764 S    
C125  O77   1.223594 D    
C74   H6    1.084753 S    
O11   C7    1.279365 A    
C156  H99   1.109274 S    
C176  H150  1.108237 S    
C62   C147  1.520682 S    
C117  O62   1.398192 S    
C9    C96   1.456359 S    
C10   C95   1.458629 S    
C108  C111  1.411556 A    
Zn16  O33   1.944625 S    
Zn14  O30   1.939535 S    
C25   C33   1.415103 A    
C1    C88   1.456559 S    
Zn12  O24   1.939433 S    
O62   H21   1.014020 S    
C121  O69   1.223948 D    
C165  H127  1.110262 S    
C62   C93   1.417741 A    
O16   C12   1.282547 A    
C63   C149  1.514145 S    
O40   C18   1.282481 A    
C141  C142  1.531998 S    
Zn16  O4    1.940759 S    
C155  C156  1.528516 S    
C3    C86   1.457562 S    
C69   H1    1.084940 S    
C169  H137  1.107746 S    
C57   C81   1.391596 A    
C72   H4    1.084527 S    
C40   C118  1.490284 S    
C73   H5    1.085340 S    
C139  C140  1.528739 S    
Zn7   O3    1.959420 S    
C28   C36   1.423236 A    
C164  H118  1.111253 S    
C165  C166  1.537533 S    
C62   C70   1.394141 A    
Zn6   O4    1.957641 S    
C61   C94   1.414365 A    
C59   C92   1.411515 A    
O49   C23   1.266849 A    
C32   C128  1.487542 S    
C60   C91   1.415076 A    
C146  H75   1.110943 S    
Zn3   O10   1.928551 S    
O42   C20   1.276434 A    
C30   C126  1.492544 S    
C56   C135  1.512380 S    
C28   C41   1.425320 A    
C30   C38   1.410756 A    
O33   C12   1.275406 A    
Zn10  O22   1.939535 S    
C157  H107  1.111510 S    
C12   C93   1.457805 S    
C133  H46   1.104569 S    
C147  H81   1.112352 S    
O35   C10   1.272451 A    
C129  H36   1.107943 S    
C174  H143  1.110458 S    
Zn13  O29   1.939534 S    
C105  C112  1.411727 A    
C106  C171  1.526954 S    
Zn10  O2    1.937691 S    
C83   H15   1.084939 S    
C68   C99   1.415269 A    
O52   C24   1.288722 A    
Zn3   O1    1.959420 S    
C160  H110  1.105917 S    
C54   C78   1.394644 A    
O43   C19   1.288676 A    
C167  C168  1.530718 S    
C25   C44   1.415093 A    
O41   C19   1.269745 A    
C61   C69   1.392508 A    
C26   C34   1.421478 A    
C68   C76   1.392563 A    
C131  H42   1.112123 S    
C157  C158  1.531562 S    
O37   C17   1.269538 A    
C124  O76   1.397276 S    
C102  C103  1.412896 A    
C159  H111  1.107813 S    
C57   C137  1.512057 S    
C163  C164  1.535793 S    
C106  C107  1.412209 A    
C155  H102  1.112048 S    
C105  C108  1.400352 A    
C31   C46   1.430007 A    
C169  C170  1.531519 S    
O44   C20   1.283504 A    
C54   C131  1.521842 S    
C139  H62   1.112011 S    
C126  O79   1.223470 D    
C137  H57   1.112048 S    
C77   H9    1.084808 S    
C129  C130  1.528117 S    
Zn13  O41   1.940975 S    
C151  H91   1.112315 S    
C82   H14   1.084697 S    
O32   C13   1.279167 A    
C78   C94   1.399262 A    
C128  O83   1.223071 D    
Zn16  O44   1.939436 S    
C153  H96   1.107666 S    
C148  H79   1.108753 S    
C162  H113  1.109089 S    
C146  H74   1.110167 S    
C59   C83   1.393497 A    
C107  C112  1.426303 A    
C145  H76   1.109089 S    
C60   C84   1.392944 A    
C166  H123  1.110460 S    
C164  H120  1.104695 S    
C157  H106  1.105286 S    
C149  H86   1.104589 S    
C55   C88   1.418085 A    
C135  H52   1.105695 S    
C141  H67   1.111533 S    
C67   C75   1.393421 A    
C53   C86   1.417215 A    
C175  H151  1.103242 S    
C123  O73   1.223991 D    
C136  H50   1.110033 S    
C140  H59   1.109276 S    
O47   C21   1.286056 A    
C57   C90   1.413637 A    
C158  H103  1.110935 S    
C27   C35   1.417646 A    
C137  C138  1.527004 S    
C115  O58   1.399015 S    
C32   C40   1.416697 A    
C80   H12   1.084867 S    
C174  H145  1.109870 S    
C81   H13   1.085358 S    
C150  H83   1.110005 S    
O38   C18   1.277381 A    
C149  H87   1.112330 S    
C138  H54   1.110586 S    
O50   C24   1.275970 A    
C118  O63   1.222394 D    
C48   C52   1.429474 A    
O5    C1    1.284212 A    
C162  H115  1.109482 S    
C119  O65   1.222647 D    
C79   C95   1.398336 A    
Zn4   O6    1.933376 S    
C154  H94   1.110597 S    
C39   C117  1.484832 S    
C71   H3    1.084781 S    
C76   C92   1.394831 A    
C116  O59   1.222223 D    
C38   C120  1.483874 S    
C163  H122  1.103213 S    
C67   C157  1.510144 S    
C171  C172  1.535960 S    
C172  H140  1.105128 S    
C106  C111  1.416148 A    
C101  C161  1.522655 S    
C104  C109  1.409157 A    
C47   C51   1.432081 A    
C144  H69   1.110238 S    
C175  C176  1.531274 S    
O8    C4    1.283502 A    
C154  H95   1.107801 S    
C170  H133  1.109040 S    
C171  H141  1.109886 S    
C134  H44   1.110242 S    
C108  C175  1.527278 S    
C63   C96   1.417480 A    
C34   C116  1.483827 S    
C83   C99   1.396789 A    
C141  H66   1.105174 S    
C68   C159  1.511435 S    
Zn1   O1    1.957640 S    
C107  C173  1.532565 S    
C43   C49   1.422959 A    
C36   C114  1.479980 S    
C161  H117  1.108237 S    
Zn4   O2    1.959418 S    
C79   H11   1.084727 S    
C58   C82   1.394396 A    
C103  C165  1.532994 S    
C30   C47   1.428303 A    
C166  H125  1.109862 S    
C37   C119  1.481039 S    
C120  O68   1.398289 S    
O9    C5    1.279029 A    
C34   C35   1.418795 A    
C133  H47   1.112371 S    
C28   C124  1.492019 S    
C63   C71   1.390321 A    
C152  H90   1.109973 S    
O13   C9    1.283580 A    
C134  H43   1.109944 S    
C136  H48   1.108378 S    
O18   C14   1.283010 A    
C13   C100  1.452314 S    
O6    C2    1.284912 A    
C158  H105  1.108352 S    
O84   H32   1.013876 S    
C133  C134  1.526335 S    
C150  H85   1.110291 S    
O48   C22   1.281541 A    
C101  C110  1.411838 A    
C144  H68   1.110997 S    
C130  H35   1.110099 S    
C156  H98   1.110990 S    
C41   C49   1.423271 A    
O80   H30   1.014009 S    
C82   C98   1.399136 A    
C117  O61   1.222539 D    
Zn15  O3    1.940761 S    
C78   H10   1.084490 S    
C167  H131  1.104735 S    
C168  H130  1.108670 S    
C17   C110  1.480445 S    
C70   C86   1.399375 A    
O76   H28   1.011948 S    
Zn4   O46   1.941422 S    
O24   C5    1.279204 A    
Zn11  O26   1.944624 S    
C138  H53   1.110516 S    
C140  H58   1.111007 S    
C159  C160  1.528834 S    
O10   C6    1.283644 A    
C45   C51   1.414147 A    
Zn1   O12   1.928006 S    
O72   H26   1.013769 S    
Zn2   O11   1.928008 S    
C58   C139  1.516612 S    
C169  H136  1.103502 S    
C80   C96   1.395494 A    
C132  H38   1.108084 S    
C81   C97   1.394389 A    
C20   C111  1.486579 S    
C84   H16   1.085296 S    
Zn4   O9    1.928550 S    
C143  H71   1.107908 S    
Zn14  O42   1.940975 S    
Zn13  O3    1.937689 S    
O58   H19   1.013629 S    
Zn14  O4    1.937691 S    
O64   H22   1.013917 S    
O19   C15   1.279871 A    
C173  H147  1.110418 S    
C174  H144  1.109770 S    
O39   C17   1.288978 A    
C149  C150  1.526155 S    
C22   C49   1.455424 S    
Zn12  O25   1.944625 S    
O7    C3    1.282275 A    
C66   C74   1.394688 A    
Zn13  O36   1.945785 S    
C152  H88   1.108976 S    
C134  H45   1.110714 S    
C54   C85   1.418986 A    
O51   C23   1.310450 A    
O28   C1    1.272653 A    
C160  H109  1.109915 S    
C29   C48   1.425766 A    
C130  H33   1.110961 S    
C58   C89   1.414491 A    
O21   C8    1.275052 A    
C33   C36   1.419017 A    
C125  O78   1.398899 S    
C103  C110  1.427182 A    
Zn7   O18   1.928551 S    
Zn9   O37   1.940975 S    
O12   C8    1.280058 A    
C159  H112  1.112111 S    
C156  H100  1.110004 S    
Zn11  O39   1.939436 S    
C143  C144  1.528970 S    
Zn11  O1    1.940761 S    
Zn15  O43   1.939436 S    
C104  C167  1.525767 S    
C27   C42   1.418937 A    
C168  H128  1.111173 S    
C26   C122  1.492714 S    
C75   H7    1.083120 S    
Zn5   O3    1.957640 S    
C64   C72   1.387381 A    
C31   C39   1.413730 A    
C65   C73   1.391420 A    
C137  H56   1.107530 S    
Zn8   O14   1.933376 S    
C5    C92   1.452707 S    
C6    C91   1.453485 S    
C121  O70   1.398649 S    
C4    C85   1.457747 S    
C59   C141  1.509785 S    
C127  O81   1.221385 D    
C56   C87   1.418535 A    
C151  H92   1.106291 S    
O26   C3    1.275519 A    
C148  H78   1.110604 S    
C162  H114  1.111156 S    
O30   C15   1.276698 A    
C131  C132  1.528185 S    
C166  H124  1.109681 S    
C132  H40   1.110893 S    
C164  H119  1.103571 S    
C173  H146  1.111955 S    
C46   C52   1.426606 A    
C61   C145  1.516155 S    
O56   H18   1.013706 S    
C175  H152  1.109119 S    
C136  H49   1.108979 S    
C114  O55   1.222667 D    
C160  H108  1.110993 S    
Zn15  O31   1.939435 S    
C2    C87   1.458963 S    
Zn16  O32   1.939433 S    
C158  H104  1.108554 S    
C60   C143  1.511254 S    
C74   C90   1.399112 A    
C115  O57   1.222588 D    
Zn8   O4    1.959418 S    
C16   C97   1.451116 S    
C150  H84   1.110271 S    
C19   C112  1.480271 S    
C129  H37   1.111235 S    
C27   C123  1.499866 S    
Zn15  O34   1.944624 S    
Zn7   O49   1.941422 S    
C147  H82   1.108145 S    
C124  O75   1.223420 D    
C64   C151  1.513839 S    
O31   C14   1.276013 A    
O68   H24   1.014046 S    
C53   C129  1.520327 S    
C172  H138  1.111227 S    
Zn14  O35   1.945783 S    
C176  H149  1.110932 S    
C131  H41   1.108416 S    
Zn8   O50   1.941422 S    
C172  H139  1.103853 S    
C69   C85   1.399702 A    
C45   C48   1.395140 A    
Zn6   O52   1.942323 S    
C72   C88   1.396086 A    
C155  H101  1.107457 S    
C73   C89   1.395116 A    
C113  O53   1.222401 D    
C67   C100  1.411415 A    
Zn1   O47   1.942323 S    
O45   C21   1.288636 A    
C170  H134  1.111153 S    
O22   C7    1.277225 A    
Zn3   O45   1.941422 S    
C139  H61   1.107559 S    
C37   C40   1.413836 A    
C171  H142  1.103121 S    
C126  O80   1.396386 S    
C31   C127  1.491085 S    
Zn2   O48   1.942323 S    
C165  H126  1.111892 S    
C41   C44   1.392247 A    
C176  H148  1.111140 S    
C127  O82   1.398833 S    
C101  C104  1.399854 A    
C130  H34   1.108845 S    
C14   C99   1.453128 S    
C15   C98   1.453780 S    
C128  O84   1.398503 S    
C153  H97   1.112072 S    
C148  H80   1.110878 S    
C161  H116  1.103794 S    
O60   H20   1.013943 S    
C7    C90   1.453833 S    
C146  H73   1.110118 S    
C170  H135  1.109761 S    
C145  H77   1.112182 S    
C173  C174  1.537075 S    
Zn9   O21   1.939534 S    
C120  O67   1.222687 D    
C11   C94   1.457355 S    
Zn11  O23   1.939435 S    
C122  O72   1.397553 S    
Zn12  O40   1.939436 S    
C33   C115  1.488523 S    
O25   C4    1.274467 A    
Zn9   O1    1.937689 S    
C142  H63   1.110974 S    
C152  H89   1.107736 S    
C55   C79   1.389477 A    
Zn1   O7    1.934658 S    
O27   C2    1.273127 A    
C123  O74   1.398275 S    
Zn2   O8    1.934657 S    
C140  H60   1.109997 S    
C53   C77   1.394561 A    
Zn3   O5    1.933374 S    
O29   C16   1.274415 A    
C84   C100  1.395055 A    
C66   C97   1.414522 A    
Zn12  O2    1.940759 S    
O82   H31   1.014023 S    
C122  O71   1.223476 D    
C25   C121  1.501888 S    
Zn9   O28   1.945785 S    
C56   C80   1.387715 A    
Zn10  O27   1.945783 S    
C32   C45   1.429034 A    
Zn2   O2    1.957641 S    
O78   H29   1.013841 S    
O15   C11   1.281483 A    
C118  O64   1.398240 S    
C132  H39   1.110509 S    
C119  O66   1.397538 S    
C167  H132  1.109160 S    
C161  C162  1.531982 S    
C44   C50   1.426500 A    
C168  H129  1.108413 S    
C154  H93   1.110832 S    
O20   C16   1.280612 A    
O46   C22   1.282670 A    
C142  H64   1.108558 S    
C116  O60   1.397769 S    
C163  H121  1.109861 S    
C66   C155  1.516211 S    
Zn8   O17   1.928550 S    
C145  C146  1.527046 S    
Zn10  O38   1.940975 S    
C64   C95   1.419536 A    
O14   C10   1.285677 A    
C65   C98   1.413873 A    
C135  H51   1.112292 S    
C21   C50   1.473689 S    
C151  C152  1.529277 S    
C144  H70   1.105525 S    
C77   C93   1.399889 A    
O70   H25   1.012684 S    
C105  C169  1.523171 S    
C23   C52   1.483372 S    
C153  C154  1.527336 S    
O17   C13   1.278856 A    
O36   C9    1.273144 A    
Zn5   O15   1.934658 S    
