data_mof_unit_63995.cif
_audit_creation_date              2012-12-10T17:37:16-0500
_audit_creation_method            fapswitch 2.2
_symmetry_space_group_name_H-M    P1
_symmetry_Int_Tables_number       1
_space_group_crystal_system       triclinic
_cell_length_a                    45.285959
_cell_length_b                    32.006238
_cell_length_c                    31.981113
_cell_angle_alpha                 89.999293
_cell_angle_beta                  134.958469
_cell_angle_gamma                 90.010679
_cell_volume                      32801.3209149

loop_
_atom_site_label
_atom_site_type_symbol
_atom_type_description
_atom_site_fract_x
_atom_site_fract_y
_atom_site_fract_z
_atom_type_partial_charge
C1    C     C_R   0.580277 0.000001 0.580283 0.819204
C2    C     C_R   0.080277 0.499999 0.580283 0.819361
C3    C     C_3   0.466349 0.264086 0.487814 -0.279639
C4    C     C_3   0.466696 0.735879 0.488637 -0.279399
C5    C     C_3   0.968449 0.764087 0.492945 -0.279882
C6    C     C_3   0.967105 0.235884 0.489666 -0.279371
C7    C     C_3   0.499982 0.291451 0.500084 0.089923
C8    C     C_3   0.500027 0.708546 0.500120 0.089819
C9    C     C_3   0.999963 0.791451 0.500067 0.089829
C10   C     C_3   0.000024 0.208547 0.500123 0.089874
C11   C     C_3   0.466104 0.236415 0.448080 0.429292
C12   C     C_3   0.465875 0.763556 0.448340 0.429226
C13   C     C_3   0.964555 0.736415 0.449755 0.429234
C14   C     C_3   0.965555 0.263559 0.448661 0.429337
C15   C     C_3   0.498632 0.264326 0.458747 -0.209773
C16   C     C_3   0.498097 0.735679 0.458230 -0.209850
C17   C     C_3   0.994924 0.764323 0.455337 -0.209865
C18   C     C_3   0.997356 0.235677 0.457536 -0.209768
C19   C     C_1   0.500335 0.162755 0.500220 0.019020
C20   C     C_1   0.500336 0.837243 0.500225 0.019755
C21   C     C_1   0.000297 0.662755 0.500157 0.019142
C22   C     C_1   0.000336 0.337244 0.500220 0.019360
C23   C     C_1   0.499964 0.337243 0.500057 -0.029598
C24   C     C_1   0.500010 0.662755 0.500090 -0.029565
C25   C     C_1   0.999956 0.837243 0.500050 -0.029585
C26   C     C_1   0.000007 0.162756 0.500094 -0.029581
C27   C     C_3   0.764293 0.966366 0.785854 -0.197302
C28   C     C_3   0.764317 0.035272 0.783033 -0.197429
C29   C     C_3   0.264293 0.464510 0.782656 -0.197412
C30   C     C_3   0.264315 0.533383 0.786210 -0.197217
C31   C     C_3   0.736434 0.965766 0.718723 0.407004
C32   C     C_3   0.736458 0.032645 0.715985 0.406832
C33   C     C_3   0.236435 0.467532 0.715638 0.406796
C34   C     C_3   0.236457 0.534380 0.719088 0.407031
C35   C     C_1   0.625124 0.000004 0.625168 -0.147573
C36   C     C_1   0.125124 0.499988 0.625168 -0.147504
C37   C     C_1   0.874871 0.999985 0.874858 -0.173849
C38   C     C_1   0.374871 0.499986 0.874858 -0.173822
C39   C     C_R   0.500011 0.080265 0.500010 0.824759
C40   C     C_R   0.500008 0.919735 0.500009 0.825556
C41   C     C_R   0.000008 0.580264 0.500007 0.825416
C42   C     C_R   0.000009 0.419735 0.500009 0.825404
C43   C     C_3   0.736344 0.001643 0.776392 -0.270438
C44   C     C_3   0.236343 0.497929 0.776371 -0.270373
C45   C     C_3   0.708607 0.000018 0.709119 0.131459
C46   C     C_3   0.208607 0.499954 0.709118 0.131451
C47   C     C_3   0.791407 0.999983 0.791337 0.063824
C48   C     C_3   0.291407 0.499980 0.791338 0.063782
C49   C     C_3   0.764055 0.998342 0.724093 -0.289097
C50   C     C_3   0.264056 0.502024 0.724112 -0.289185
C51   C     C_1   0.662779 0.000009 0.662979 0.052398
C52   C     C_1   0.162779 0.499974 0.662979 0.052489
C53   C     C_1   0.837214 0.999982 0.837166 -0.018313
C54   C     C_1   0.337214 0.499982 0.837166 -0.018282
C55   C     C_3   0.236151 0.030955 0.260386 0.042341
C56   C     C_3   0.236078 0.963654 0.250841 0.082127
C57   C     C_3   0.736160 0.531032 0.260321 0.042301
C58   C     C_3   0.736085 0.463703 0.250964 0.082157
C59   C     C_3   0.263979 0.036443 0.249294 0.335927
C60   C     C_3   0.263883 0.969006 0.239709 0.338834
C61   C     C_3   0.763989 0.536411 0.249216 0.335935
C62   C     C_3   0.763883 0.468946 0.239807 0.338647
C63   C     C_1   0.375198 0.999958 0.375214 -0.141042
C64   C     C_1   0.875200 0.499965 0.375213 -0.140831
C65   C     C_1   0.124770 0.000033 0.124816 -0.166656
C66   C     C_1   0.624773 0.500027 0.124828 -0.166624
C67   C     C_R   0.419826 0.999988 0.419834 0.825002
C68   C     C_R   0.919826 0.499989 0.419834 0.825271
C69   C     C_3   0.263922 0.994542 0.302871 0.054176
C70   C     C_3   0.763930 0.494660 0.302904 0.054309
C71   C     C_3   0.292078 0.999944 0.292120 0.019617
C72   C     C_3   0.792083 0.499950 0.292134 0.019575
C73   C     C_3   0.207890 0.000065 0.207921 0.006654
C74   C     C_3   0.707895 0.500073 0.207946 0.006824
C75   C     C_3   0.236131 0.005485 0.197281 0.003682
C76   C     C_3   0.736131 0.505387 0.197282 0.003470
C77   C     C_1   0.337674 0.999939 0.337694 0.097618
C78   C     C_1   0.837677 0.499947 0.337697 0.097763
C79   C     C_1   0.162289 0.000058 0.162322 0.043889
C80   C     C_1   0.662293 0.500057 0.162340 0.044103
C81   C     C_R   0.499966 0.500000 0.580294 0.822271
C82   C     C_R   0.999966 0.000000 0.580294 0.822266
C83   C     C_R   0.499984 0.419741 0.500037 0.822940
C84   C     C_R   0.499994 0.580259 0.500046 0.822784
C85   C     C_R   0.999985 0.919740 0.500038 0.822900
C86   C     C_R   0.999994 0.080259 0.500047 0.822829
C87   C     C_R   0.500019 0.500000 0.419782 0.823946
C88   C     C_R   0.000019 0.000000 0.419782 0.823955
C89   C     C_R   0.000046 1.000000 0.080412 0.826163
C90   C     C_R   0.500046 0.500000 0.080412 0.826151
C91   C     C_3   0.535493 0.264376 0.553949 -0.126637
C92   C     C_3   0.535790 0.735648 0.553728 -0.126958
C93   C     C_3   0.037014 0.764375 0.552103 -0.126201
C94   C     C_3   0.036111 0.235647 0.553387 -0.126911
C95   C     C_R   0.919718 0.999995 0.919752 0.821903
C96   C     C_R   0.419719 0.499995 0.919752 0.821886
C97   C     C_R   0.999970 0.000000 0.919742 0.824770
C98   C     C_R   0.499970 0.500000 0.919742 0.824761
C99   C     C_R   0.080146 0.000007 0.080211 0.822187
C100  C     C_R   0.580147 0.500006 0.080216 0.822155
C101  C     C_3   0.020380 0.034134 0.784466 -0.218306
C102  C     C_3   0.018937 0.965057 0.783022 -0.219203
C103  C     C_3   0.521058 0.533721 0.785145 -0.218218
C104  C     C_3   0.518234 0.464686 0.782319 -0.219253
C105  C     C_3   0.481332 0.535173 0.717550 -0.212784
C106  C     C_3   0.478522 0.466473 0.714738 -0.212754
C107  C     C_3   0.980633 0.034789 0.716850 -0.212819
C108  C     C_3   0.979197 0.966047 0.715414 -0.212727
C109  C     C_1   0.499913 0.500007 0.625121 -0.158889
C110  C     C_1   0.999913 0.000003 0.625121 -0.158869
C111  C     C_1   1.000000 0.000001 0.874892 -0.168937
C112  C     C_1   0.500000 0.500001 0.874892 -0.168923
C113  C     C_3   0.538196 0.498448 0.774590 0.456831
C114  C     C_3   0.038220 0.999212 0.774614 0.456838
C115  C     C_3   0.499471 0.500027 0.708230 0.156999
C116  C     C_3   0.999470 0.000014 0.708230 0.156994
C117  C     C_3   0.000039 0.000001 0.791391 0.123378
C118  C     C_3   0.500039 0.500002 0.791391 0.123372
C119  C     C_3   0.533910 0.236381 0.512526 -0.241352
C120  C     C_3   0.533625 0.763651 0.511757 -0.241122
C121  C     C_3   0.031757 0.736378 0.507323 -0.241247
C122  C     C_3   0.033213 0.263647 0.510727 -0.241449
C123  C     C_3   0.960276 0.000824 0.724549 -0.132509
C124  C     C_3   0.460301 0.501622 0.724573 -0.132542
C125  C     C_1   0.499762 0.500015 0.662668 -0.006486
C126  C     C_1   0.999762 0.000007 0.662668 -0.006476
C127  C     C_1   0.000026 0.000001 0.837219 -0.041077
C128  C     C_1   0.500026 0.500001 0.837219 -0.041072
C129  C     C_3   0.020399 0.966059 0.256525 -0.154982
C130  C     C_3   0.019277 0.034599 0.255400 -0.154543
C131  C     C_3   0.520173 0.465924 0.256298 -0.154968
C132  C     C_3   0.519506 0.534470 0.255630 -0.154511
C133  C     C_3   0.480641 0.465529 0.244646 -0.154484
C134  C     C_3   0.479975 0.534076 0.243978 -0.154691
C135  C     C_3   0.980871 0.965400 0.244876 -0.154493
C136  C     C_3   0.979748 0.033941 0.243751 -0.154718
C137  C     C_1   0.500039 0.500000 0.374879 -0.168240
C138  C     C_1   0.000039 0.000000 0.374879 -0.168238
C139  C     C_1   0.000067 0.999999 0.125356 -0.167294
C140  C     C_1   0.500067 0.499999 0.125356 -0.167242
C141  C     C_3   0.539599 0.500395 0.303644 -0.155386
C142  C     C_3   0.039596 0.000659 0.303641 -0.155378
C143  C     C_3   0.500068 0.500000 0.291295 0.183374
C144  C     C_3   0.000068 0.000000 0.291295 0.183410
C145  C     C_3   0.000080 1.000000 0.208981 0.183493
C146  C     C_3   0.500080 0.499999 0.208981 0.183459
C147  C     C_1   0.500156 0.125096 0.500123 -0.146558
C148  C     C_1   0.500156 0.874903 0.500127 -0.145892
C149  C     C_1   0.000136 0.625096 0.500095 -0.146379
C150  C     C_1   0.000156 0.374903 0.500126 -0.146212
C151  C     C_3   0.960552 0.999341 0.196636 -0.154254
C152  C     C_3   0.460549 0.499604 0.196632 -0.154241
C153  C     C_1   0.500054 0.500000 0.337170 -0.066680
C154  C     C_1   0.000054 0.000000 0.337170 -0.066703
C155  C     C_1   0.000078 0.999999 0.163091 -0.065838
C156  C     C_1   0.500078 0.499999 0.163091 -0.065784
C157  C     C_1   0.499969 0.374906 0.500044 -0.170072
C158  C     C_1   0.500003 0.625093 0.500070 -0.170136
C159  C     C_1   0.999967 0.874906 0.500045 -0.170093
C160  C     C_1   0.000001 0.125093 0.500072 -0.170102
C161  C     C_3   0.501880 0.236476 0.540393 0.147419
C162  C     C_3   0.502458 0.763515 0.540941 0.147301
C163  C     C_3   0.005397 0.736476 0.543576 0.147503
C164  C     C_3   0.003168 0.263518 0.541603 0.147306
C165  C     C_3   0.500594 0.208573 0.500354 0.142242
C166  C     C_3   0.500605 0.791426 0.500361 0.142374
C167  C     C_3   0.000538 0.708572 0.500248 0.142185
C168  C     C_3   0.000601 0.291427 0.500349 0.142359
Cu1   Cu    Cu3+1 0.500020 0.000000 0.541470 0.981898
Cu2   Cu    Cu3+1 0.000020 0.500000 0.541470 0.982003
Cu3   Cu    Cu3+1 0.499960 0.000000 0.458530 1.009054
Cu4   Cu    Cu3+1 0.999960 0.500000 0.458530 1.008269
Cu5   Cu    Cu3+1 0.541430 0.500000 0.541530 0.980140
Cu6   Cu    Cu3+1 0.041430 0.000000 0.541530 0.980128
Cu7   Cu    Cu3+1 0.458550 0.500000 0.458570 0.966404
Cu8   Cu    Cu3+1 0.958550 0.000000 0.458570 0.966473
Cu9   Cu    Cu3+1 0.999990 0.958550 0.000050 0.971517
Cu10  Cu    Cu3+1 0.999990 0.041450 0.000050 0.971260
Cu11  Cu    Cu3+1 0.499990 0.458550 0.000050 0.971582
Cu12  Cu    Cu3+1 0.499990 0.541450 0.000050 0.971375
H1    H     H_    0.561495 0.224801 0.522629 0.162017
H2    H     H_    0.560954 0.775256 0.521209 0.162184
H3    H     H_    0.057606 0.724796 0.513203 0.162090
H4    H     H_    0.060206 0.275250 0.519337 0.161957
H5    H     H_    0.724747 0.002992 0.797466 0.166008
H6    H     H_    0.224745 0.496257 0.797430 0.166051
H7    H     H_    0.465995 0.563940 0.690392 0.150117
H8    H     H_    0.460886 0.439050 0.685279 0.150084
H9    H     H_    0.964724 0.063243 0.689119 0.150149
H10   H     H_    0.962113 0.938276 0.686507 0.150061
H11   H     H_    0.037865 0.061748 0.813552 0.147530
H12   H     H_    0.035253 0.936743 0.810939 0.146785
H13   H     H_    0.539091 0.560979 0.814780 0.147560
H14   H     H_    0.533981 0.436050 0.809666 0.146791
H15   H     H_    0.927835 0.001495 0.704241 0.142492
H16   H     H_    0.427880 0.502943 0.704286 0.142479
H17   H     H_    0.464653 0.437166 0.240593 0.135962
H18   H     H_    0.463438 0.562114 0.239376 0.136062
H19   H     H_    0.965072 0.936931 0.241012 0.135908
H20   H     H_    0.963025 0.061868 0.238963 0.136036
H21   H     H_    0.564017 0.276171 0.598261 0.147928
H22   H     H_    0.564542 0.723874 0.597853 0.147965
H23   H     H_    0.066873 0.776167 0.595038 0.148164
H24   H     H_    0.065141 0.223873 0.597254 0.147901
H25   H     H_    0.037123 0.938133 0.261313 0.136838
H26   H     H_    0.035077 0.063068 0.259264 0.137389
H27   H     H_    0.536711 0.437887 0.260900 0.136896
H28   H     H_    0.535496 0.562833 0.259683 0.137428
H29   H     H_    0.928033 0.998799 0.152147 0.135365
H30   H     H_    0.428027 0.499279 0.152141 0.135393
H31   H     H_    0.572121 0.500720 0.348135 0.137203
H32   H     H_    0.072114 0.001201 0.348128 0.137179
H33   H     H_    0.496594 0.276096 0.424122 0.149888
H34   H     H_    0.495598 0.723911 0.423175 0.149977
H35   H     H_    0.989885 0.776093 0.418038 0.149938
H36   H     H_    0.994252 0.223909 0.421929 0.149938
H37   H     H_    0.438648 0.275204 0.477712 0.149783
H38   H     H_    0.439252 0.724734 0.479188 0.150033
H39   H     H_    0.942495 0.775208 0.487086 0.149572
H40   H     H_    0.939999 0.224742 0.481063 0.149992
H41   H     H_    0.776025 0.938447 0.814494 0.152296
H42   H     H_    0.776070 0.064484 0.809335 0.152408
H43   H     H_    0.276027 0.435153 0.808646 0.152457
H44   H     H_    0.276067 0.561130 0.815146 0.152349
H45   H     H_    0.775203 0.996987 0.702413 0.154051
H46   H     H_    0.275205 0.503703 0.702448 0.154039
O1    O     O_R   0.560480 0.000000 0.595480 -0.583565
O2    O     O_R   0.060480 0.500000 0.595480 -0.583513
O3    O     O_R   0.465000 0.439530 0.465010 -0.580651
O4    O     O_R   0.465000 0.560470 0.465010 -0.580549
O5    O     O_R   0.965000 0.939530 0.465010 -0.580621
O6    O     O_R   0.965000 0.060470 0.465010 -0.580546
O7    O     O_R   0.535000 0.500000 0.474630 -0.580027
O8    O     O_R   0.035000 0.000000 0.474630 -0.580030
O9    O     O_R   0.465020 0.500000 0.404580 -0.579973
O10   O     O_R   0.965020 1.000000 0.404580 -0.579973
O11   O     O_R   0.000030 0.965010 0.060550 -0.579788
O12   O     O_R   0.000030 0.034990 0.060550 -0.579501
O13   O     O_R   0.500030 0.465010 0.060550 -0.579760
O14   O     O_R   0.500030 0.534990 0.060550 -0.579493
O15   O     O_R   0.939530 0.965000 0.939580 -0.579777
O16   O     O_R   0.939530 0.035000 0.939580 -0.579835
O17   O     O_R   0.439530 0.465000 0.939580 -0.579756
O18   O     O_R   0.439530 0.535000 0.939580 -0.579842
O19   O     O_R   0.999960 0.964990 0.939550 -0.579458
O20   O     O_R   0.999960 0.035010 0.939550 -0.579067
O21   O     O_R   0.499960 0.464990 0.939550 -0.579480
O22   O     O_R   0.499960 0.535010 0.939550 -0.579040
O23   O     O_R   0.060450 0.965000 0.060520 -0.578057
O24   O     O_R   0.060450 0.035000 0.060520 -0.578280
O25   O     O_R   0.560450 0.465000 0.060520 -0.578044
O26   O     O_R   0.560450 0.535000 0.060520 -0.578247
O27   O     O_R   0.560430 1.000000 0.525440 -0.571216
O28   O     O_R   0.060430 0.500000 0.525440 -0.571299
O29   O     O_R   0.500020 0.060460 0.535020 -0.580847
O30   O     O_R   0.500020 0.939540 0.535020 -0.579931
O31   O     O_R   0.000020 0.560460 0.535020 -0.580543
O32   O     O_R   0.000020 0.439540 0.535020 -0.580073
O33   O     O_R   0.499970 0.060450 0.464980 -0.573067
O34   O     O_R   0.499970 0.939550 0.464980 -0.573201
O35   O     O_R   0.999970 0.560450 0.464980 -0.573801
O36   O     O_R   0.999970 0.439550 0.464980 -0.573275
O37   O     O_R   0.439560 0.000000 0.474560 -0.582949
O38   O     O_R   0.939560 0.500000 0.474560 -0.582816
O39   O     O_R   0.439510 0.000000 0.404520 -0.567732
O40   O     O_R   0.939510 0.500000 0.404520 -0.567924
O41   O     O_R   0.534970 0.500000 0.595520 -0.568566
O42   O     O_R   0.034970 1.000000 0.595520 -0.568554
O43   O     O_R   0.464980 0.500000 0.525470 -0.584166
O44   O     O_R   0.964980 0.000000 0.525470 -0.584150
O45   O     O_R   0.534980 0.439530 0.535070 -0.577672
O46   O     O_R   0.534980 0.560470 0.535070 -0.577840
O47   O     O_R   0.034980 0.939530 0.535070 -0.577735
O48   O     O_R   0.034980 0.060470 0.535070 -0.577828
O49   O     O_3   0.278690 0.074555 0.248573 -0.701961
H47   H     H_    0.253385 0.090872 0.216140 0.335752
O50   O     O_3   0.278454 0.936552 0.228953 -0.699307
H48   H     H_    0.253088 0.922254 0.193094 0.333807
O51   O     O_3   0.778688 0.574483 0.248367 -0.701595
H49   H     H_    0.753375 0.590761 0.215866 0.335803
O52   O     O_3   0.778456 0.436420 0.229143 -0.699370
H50   H     H_    0.753092 0.422072 0.193350 0.333809
N1    N     N_3   0.221332 0.064654 0.272269 -0.573763
H51   H     H_    0.247527 0.081143 0.308799 0.234614
H52   H     H_    0.204153 0.085062 0.236270 0.227011
N2    N     N_3   0.221130 0.923724 0.251709 -0.564921
H53   H     H_    0.247250 0.906596 0.287251 0.249990
H54   H     H_    0.203690 0.929864 0.261173 0.224968
N3    N     N_3   0.721345 0.564800 0.272121 -0.573619
H55   H     H_    0.747545 0.581286 0.308645 0.234872
H56   H     H_    0.704204 0.585183 0.236099 0.227099
N4    N     N_3   0.721145 0.423818 0.251966 -0.564960
H57   H     H_    0.747273 0.406668 0.287454 0.250038
H58   H     H_    0.703800 0.430021 0.261572 0.225031
N5    N     N_3   0.221264 0.011807 0.139870 -0.564161
H59   H     H_    0.247442 0.012566 0.146594 0.255051
H60   H     H_    0.204097 0.985321 0.114378 0.221764
N6    N     N_3   0.721249 0.511587 0.139843 -0.564207
H61   H     H_    0.747435 0.512334 0.146587 0.255004
H62   H     H_    0.704126 0.485051 0.114458 0.221810
N7    N     N_3   0.278845 0.988246 0.360329 -0.570086
H63   H     H_    0.252695 0.987534 0.353671 0.235005
H64   H     H_    0.296039 0.014732 0.385795 0.228906
N8    N     N_3   0.778852 0.488489 0.360380 -0.570029
H65   H     H_    0.752711 0.487832 0.353747 0.235003
H66   H     H_    0.796059 0.514989 0.385786 0.229011
O53   O     O_3   0.578906 0.496789 0.799722 -0.719234
H67   H     H_    0.597195 0.496046 0.843005 0.318707
O54   O     O_3   0.078955 0.998369 0.799771 -0.719210
H68   H     H_    0.097256 0.997991 0.843065 0.318738
O55   O     O_3   0.430097 0.220958 0.392838 -0.712749
H69   H     H_    0.413813 0.245979 0.368354 0.322541
O56   O     O_3   0.429591 0.778985 0.393343 -0.712691
H70   H     H_    0.413209 0.753952 0.368977 0.322726
O57   O     O_3   0.926926 0.720959 0.396314 -0.712901
H71   H     H_    0.909950 0.745981 0.372694 0.322654
O58   O     O_3   0.928933 0.278991 0.394002 -0.712701
H72   H     H_    0.912401 0.253957 0.369799 0.322723
N9    N     N_3   0.504194 0.220803 0.585372 -0.577968
H73   H     H_    0.503397 0.246673 0.604492 0.221413
H74   H     H_    0.476949 0.203748 0.563719 0.223919
N10   N     N_3   0.505383 0.779188 0.586495 -0.577443
H75   H     H_    0.505185 0.753303 0.606209 0.221401
H76   H     H_    0.478076 0.795959 0.565269 0.224488
N11   N     N_3   0.011638 0.720803 0.592086 -0.577580
H77   H     H_    0.012598 0.746671 0.612959 0.221566
H78   H     H_    0.985064 0.703679 0.573577 0.223864
N12   N     N_3   0.006881 0.279191 0.587884 -0.577693
H79   H     H_    0.006909 0.253312 0.607832 0.221475
H80   H     H_    0.979756 0.296083 0.567299 0.224496
O59   O     O_3   0.721025 0.929445 0.684583 -0.715923
H81   H     H_    0.746029 0.913412 0.700931 0.322717
O60   O     O_3   0.721075 0.067307 0.678941 -0.715749
H82   H     H_    0.746091 0.082565 0.694009 0.322647
O61   O     O_3   0.221028 0.433091 0.678227 -0.715745
H83   H     H_    0.246033 0.417928 0.693131 0.322628
O62   O     O_3   0.221072 0.570889 0.685337 -0.715822
H84   H     H_    0.246088 0.587002 0.701856 0.322756

loop_
_geom_bond_atom_site_label_1
_geom_bond_atom_site_label_2
_ccdc_geom_bond_type
C101  C107  S    
N10   H76   S    
C22   C150  T    
C28   C47   S    
Cu7   O3    S    
C55   C59   S    
C114  O54   S    
C32   C45   S    
Cu10  O12   S    
O62   H84   S    
C2    O2    A    
O60   H82   S    
Cu4   O28   S    
C12   O56   S    
Cu3   O34   S    
C93   C121  S    
Cu2   O2    S    
C97   O19   A    
C67   O39   A    
C41   C149  S    
C10   C94   S    
Cu8   O6    S    
C29   C33   S    
C11   O55   S    
C163  N11   S    
C131  C146  S    
C96   O18   A    
Cu4   O40   S    
C134  C143  S    
Cu10  O20   S    
C11   C15   S    
C12   C16   S    
C25   C159  T    
N2    H54   S    
C26   C160  T    
C8    C92   S    
C4    C12   S    
C84   O4    A    
Cu7   O43   S    
C5    C13   S    
C47   C53   S    
C22   C168  S    
C138  C154  T    
C7    C15   S    
C8    C16   S    
C55   N1    S    
C73   C75   S    
Cu1   O30   S    
Cu6   O8    S    
C44   C46   S    
C133  C143  S    
C120  C166  S    
C28   C32   S    
C65   C99   S    
C58   C70   S    
C129  C142  S    
C33   C50   S    
N7    H63   S    
C102  C114  S    
C90   C140  S    
C83   C157  S    
C137  C153  T    
Cu2   O32   S    
C118  C124  S    
C88   C138  S    
C140  C156  T    
C94   C122  S    
Cu7   O9    S    
C60   O50   S    
C29   C44   S    
C35   C51   T    
C142  C144  S    
C50   H46   S    
N6    H61   S    
C14   C168  S    
C88   O8    A    
Cu9   O11   S    
C133  H17   S    
C56   C73   S    
C60   C75   S    
C32   O60   S    
C89   O12   A    
C18   H36   S    
C101  H11   S    
C67   O37   A    
C57   C61   S    
C87   O7    A    
C106  C115  S    
N4    H58   S    
C101  C117  S    
C135  H19   S    
C5    H39   S    
C10   C18   S    
Cu3   O39   S    
C144  C154  S    
C93   H23   S    
C136  H20   S    
C3    C11   S    
O61   H83   S    
C40   O30   A    
C39   O29   A    
C28   H42   S    
C106  C124  S    
C11   C165  S    
C56   N2    S    
C19   C165  S    
C120  H2    S    
C161  C165  S    
C113  C115  S    
Cu9   O15   S    
N9    H74   S    
C65   C79   T    
C31   O59   S    
C85   O5    A    
C62   O52   S    
C99   O23   A    
C131  H27   S    
C40   O34   A    
C87   O9    A    
N5    H60   S    
Cu6   O48   S    
C5    C9    S    
C69   N7    S    
C5    C163  S    
C30   C48   S    
C64   C68   S    
C93   C163  S    
Cu1   O37   S    
Cu2   O38   S    
C66   C100  S    
N11   H78   S    
C72   C78   S    
C129  C135  S    
C164  N12   S    
Cu11  O13   S    
C20   C148  T    
C34   C46   S    
C21   C149  T    
C141  H31   S    
C36   C52   T    
C37   C53   T    
C162  N10   S    
N8    H66   S    
O50   H48   S    
Cu1   Cu3   S    
C108  H10   S    
Cu5   Cu7   S    
C61   C76   S    
C27   H41   S    
C98   C112  S    
C30   C34   S    
Cu5   O45   S    
C84   C158  S    
Cu11  Cu12  S    
C16   H34   S    
C98   O22   A    
C130  H26   S    
C6    C14   S    
C139  C155  T    
C124  H16   S    
N3    H55   S    
C73   C79   S    
C103  C105  S    
C145  C151  S    
C41   O31   A    
C43   C45   S    
C55   C69   S    
C102  C117  S    
C110  C126  T    
C13   O57   S    
C132  C134  S    
C4    H38   S    
C95   O15   A    
C6    H40   S    
C94   H24   S    
C49   H45   S    
C71   C77   S    
C92   H22   S    
C58   C74   S    
C27   C47   S    
C132  C141  S    
C152  H30   S    
C135  C144  S    
C70   N8    S    
C105  C115  S    
N12   H79   S    
C114  C116  S    
C34   O62   S    
C66   C80   T    
C13   C17   S    
C161  N9    S    
C86   O6    A    
Cu3   O33   S    
C92   C120  S    
C42   O32   A    
Cu12  O26   S    
C7    C23   S    
C23   C157  T    
C48   C50   S    
C8    C24   S    
C15   C119  S    
C91   C119  S    
C130  C142  S    
Cu11  O17   S    
C32   C49   S    
C104  C113  S    
C55   C73   S    
C56   C69   S    
N1    H51   S    
C81   O41   A    
C104  H14   S    
C82   O42   A    
C14   O58   S    
C103  H13   S    
C58   C62   S    
C33   C46   S    
C59   C75   S    
Cu1   O29   S    
O49   H47   S    
C107  C123  S    
C100  O25   A    
C123  H15   S    
C104  C106  S    
C9    C25   S    
C90   O13   A    
C3    C7    S    
C141  C143  S    
C97   C111  S    
C107  C116  S    
C143  C153  S    
Cu12  O14   S    
C2    O28   A    
C37   C95   S    
Cu5   O41   S    
C119  H1    S    
Cu4   O35   S    
C75   N5    S    
C162  C166  S    
Cu9   O19   S    
C1    O27   A    
C102  H12   S    
O51   H49   S    
C57   C70   S    
C151  H29   S    
C68   O40   A    
C15   H33   S    
C58   N4    S    
N10   H75   S    
O57   H71   S    
Cu7   O4    S    
C74   C80   S    
C130  C145  S    
C101  C114  S    
C61   O51   S    
C30   C44   S    
C133  C152  S    
N6    H62   S    
C31   C49   S    
Cu5   O7    S    
C104  C118  S    
N7    H64   S    
C121  C167  S    
C68   O38   A    
C122  C168  S    
C40   C148  S    
O53   H67   S    
C89   O11   A    
C97   O20   A    
C83   O3    A    
C60   C71   S    
C100  O26   A    
Cu8   O5    S    
C27   C31   S    
C19   C147  T    
C56   C60   S    
C105  C124  S    
O59   H81   S    
C96   O17   A    
C129  H25   S    
C38   C54   T    
C164  C168  S    
Cu9   O23   S    
C107  H9    S    
C81   O43   A    
C9    C17   S    
C83   O45   A    
C117  C127  S    
C39   O33   A    
C61   C72   S    
C17   C121  S    
C6    C164  S    
C4    C162  S    
C103  C118  S    
C108  C123  S    
C94   C164  S    
N5    H59   S    
C136  C151  S    
C57   N3    S    
Cu6   O42   S    
C92   C162  S    
C29   H43   S    
C6    C10   S    
C20   C166  S    
C28   C43   S    
C21   C167  S    
C132  C146  S    
C108  C116  S    
C41   O35   A    
C136  C144  S    
C76   N6    S    
O56   H70   S    
Cu2   Cu4   S    
C135  C151  S    
Cu2   O31   S    
N11   H77   S    
Cu6   Cu8   S    
C112  C128  T    
C3    C161  S    
C95   O16   A    
N9    H73   S    
C27   C43   S    
Cu9   Cu10  S    
C31   C45   S    
C38   C96   S    
C43   H5    S    
C91   C161  S    
C85   C159  S    
C86   C160  S    
C44   H6    S    
Cu10  O16   S    
O55   H69   S    
N1    H52   S    
C14   C18   S    
C142  H32   S    
C4    C8    S    
Cu8   O44   S    
C47   C49   S    
O54   H68   S    
C48   C54   S    
C86   O48   A    
N4    H57   S    
C103  C113  S    
C12   C166  S    
N2    H53   S    
C24   C158  T    
C13   C167  S    
Cu6   O47   S    
C45   C51   S    
C82   C110  S    
C46   C52   S    
Cu11  O25   S    
C69   C71   S    
N3    H56   S    
C85   O47   A    
C89   C139  S    
Cu10  O24   S    
Cu1   O1    S    
C102  C108  S    
C121  H3    S    
C10   C26   S    
C122  H4    S    
C134  C152  S    
C116  C126  S    
C118  C128  S    
C87   C137  S    
C99   O24   A    
Cu12  O18   S    
C88   O10   A    
C63   C67   S    
C34   C50   S    
C84   O46   A    
C29   C48   S    
N12   H80   S    
C30   H44   S    
O52   H50   S    
C59   O49   S    
C57   C74   S    
C163  C167  S    
C3    H37   S    
Cu3   O27   S    
C62   C72   S    
C91   H21   S    
C146  C152  S    
C109  C125  T    
N8    H65   S    
Cu12  O22   S    
C18   C122  S    
C132  H28   S    
C111  C127  T    
C74   C76   S    
C9    C93   S    
C7    C91   S    
C64   C78   T    
C1    C35   S    
C63   C77   T    
C2    C36   S    
C42   O36   A    
C134  H18   S    
C119  C165  S    
C62   C76   S    
C16   C120  S    
C130  C136  S    
C81   C109  S    
C131  C133  S    
C131  C141  S    
Cu5   O46   S    
Cu11  O21   S    
C115  C125  S    
C90   O14   A    
C82   O44   A    
C105  H7    S    
C117  C123  S    
C106  H8    S    
C98   O21   A    
C1    O1    A    
Cu8   O10   S    
C113  O53   S    
C129  C145  S    
Cu4   O36   S    
O58   H72   S    
C42   C150  S    
C145  C155  S    
C146  C156  S    
C39   C147  S    
C33   O61   S    
C70   C72   S    
C17   H35   S    
C59   C71   S    
