data_mof_unit_24967.cif
_audit_creation_date              2013-03-05T15:59:22-0500
_audit_creation_method            fapswitch 2.2
_symmetry_space_group_name_H-M    P1
_symmetry_Int_Tables_number       1
_space_group_crystal_system       triclinic
_cell_length_a                    10.521394
_cell_length_b                    12.737539
_cell_length_c                    13.142943
_cell_angle_alpha                 82.680683
_cell_angle_beta                  92.684311
_cell_angle_gamma                 103.06641
_cell_volume                      1701.49189177

loop_
_atom_site_label
_atom_site_type_symbol
_atom_site_description
_atom_site_fract_x
_atom_site_fract_y
_atom_site_fract_z
_atom_type_partial_charge
O1    O     O_R   0.467970 0.366730 0.627150 -0.588448
O2    O     O_R   0.510820 0.544830 0.662520 -0.574912
C1    C     C_R   0.485648 0.439356 0.691321 0.922251
O3    O     O_R   0.664630 0.410960 0.482340 -0.572640
O4    O     O_R   0.707470 0.589060 0.517710 -0.622129
C2    C     C_R   0.742329 0.502257 0.497818 0.917892
Zn1   Zn    Zn3+2 0.471390 0.381080 0.476380 1.023851
Zn2   Zn    Zn3+2 0.528610 0.618920 0.523620 0.962798
O5    O     O_R   0.489180 0.455170 0.337480 -0.574125
O6    O     O_R   0.532030 0.633270 0.372850 -0.651552
O7    O     O_R   0.292530 0.410940 0.482290 -0.616975
O8    O     O_R   0.335370 0.589040 0.517660 -0.639334
C3    C     C_R   0.513266 0.560101 0.308879 0.852625
C4    C     C_R   0.257595 0.498204 0.499671 0.842155
C5    C     C_3   0.941036 0.458855 0.413013 -0.054010
C6    C     C_3   0.007916 0.396276 0.498699 -0.050839
C7    C     C_3   0.121467 0.495314 0.497513 -0.074720
C8    C     C_3   0.056434 0.558354 0.410727 -0.253578
C9    C     C_3   0.991297 0.604259 0.493124 -0.092107
C10   C     C_3   0.058638 0.541180 0.579755 -0.122106
C11   C     C_3   0.943293 0.441346 0.581036 -0.198493
C12   C     C_3   0.878099 0.504580 0.494835 -0.081420
H1    H     H_    0.106536 0.605371 0.341232 0.148498
H2    H     H_    0.982976 0.689918 0.487440 0.202710
H3    H     H_    0.109940 0.574226 0.648501 0.172174
H4    H     H_    0.893460 0.391586 0.648883 0.214841
C13   C     C_R   0.723370 0.649379 0.085672 -0.125556
H5    H     H_    0.725188 0.705330 0.232437 0.153240
H6    H     H_    0.829322 0.584322 0.935190 0.180796
H7    H     H_    0.822227 0.694578 0.069977 0.142572
C14   C     C_R   0.543741 0.594031 0.201619 -0.056465
C15   C     C_R   0.322178 0.337649 0.813641 -0.292594
C16   C     C_R   0.270866 0.314933 0.911606 0.456479
C17   C     C_R   0.342383 0.363206 0.993498 -0.123831
C18   C     C_R   0.463447 0.439814 0.973956 -0.073240
C19   C     C_R   0.525129 0.439880 0.880858 0.017626
C20   C     C_R   0.528470 0.514452 0.042150 0.134822
C21   C     C_R   0.657960 0.574149 0.021070 0.140205
C22   C     C_R   0.725285 0.550543 0.941553 -0.234305
C23   C     C_R   0.662133 0.476134 0.876251 0.027472
C24   C     C_R   0.469816 0.533220 0.129748 -0.200118
C25   C     C_R   0.667071 0.658041 0.176843 -0.134244
C26   C     C_R   0.448606 0.400055 0.797526 -0.101461
H8    H     H_    0.369927 0.495454 0.148326 0.133679
H9    H     H_    0.263656 0.304677 0.750150 0.181650
C27   C     C_R   0.308207 0.086053 0.348257 -0.263410
H10   H     H_    0.294738 0.253642 0.331987 0.182467
H11   H     H_    0.266878 0.876554 0.320240 0.154027
H12   H     H_    0.234212 0.064283 0.289798 0.160226
N1    N     N_R   0.432930 0.222190 0.444670 -0.146983
C28   C     C_R   0.680172 0.813579 0.608832 0.099985
C29   C     C_R   0.725472 0.923094 0.618161 -0.254302
C30   C     C_R   0.657825 0.996827 0.572847 -0.174992
C31   C     C_R   0.538140 0.963030 0.522546 0.029986
C32   C     C_R   0.499377 0.851713 0.506250 0.217574
C33   C     C_R   0.465832 0.039469 0.477314 -0.046195
C34   C     C_R   0.370568 0.008545 0.401185 0.171201
C35   C     C_R   0.339358 0.900984 0.379066 -0.247061
C36   C     C_R   0.401608 0.823614 0.431651 -0.178406
C37   C     C_R   0.485229 0.146534 0.504352 0.027190
C38   C     C_R   0.342940 0.193265 0.370474 0.090126
N2    N     N_R   0.566370 0.776980 0.554790 -0.165428
H13   H     H_    0.707574 0.080659 0.570591 0.201158
H14   H     H_    0.818498 0.952608 0.655662 0.198453
H15   H     H_    0.377957 0.744512 0.406994 0.201749
C39   C     C_2   0.016431 0.279604 0.504876 0.992424
O9    O     O_2   0.975853 0.216351 0.580292 -0.651432
O10   O     O_R   0.069444 0.243590 0.423963 -0.788107
H16   H     H_    0.067961 0.163105 0.436448 0.337158
C40   C     C_2   0.303673 0.313260 0.098052 0.926217
O11   O     O_2   0.386387 0.287914 0.158541 -0.633007
O12   O     O_R   0.172965 0.292393 0.126201 -0.796547
H17   H     H_    0.156249 0.252378 0.197520 0.344374
O13   O     O_3   0.157883 0.235609 0.929164 -0.585864
C41   C     C_3   0.049226 0.283392 0.909435 0.164177
H18   H     H_    0.034208 0.302420 0.825278 0.154298
H19   H     H_    0.060807 0.359178 0.946560 0.175662
C42   C     C_3   0.928563 0.203312 0.953265 -0.716469
H20   H     H_    0.946393 0.175049 0.035070 0.277255
H21   H     H_    0.844573 0.242902 0.949080 0.221330
H22   H     H_    0.904245 0.132152 0.909401 0.244279
C43   C     C_2   0.742574 0.416763 0.825601 0.848569
O14   O     O_2   0.860227 0.452453 0.817182 -0.709001
O15   O     O_R   0.686870 0.313564 0.799033 -0.799142
H23   H     H_    0.754579 0.275532 0.778031 0.357570
C44   C     C_2   0.537124 0.171427 0.606195 0.949191
O16   O     O_2   0.638266 0.239181 0.613893 -0.607967
O17   O     O_R   0.473551 0.112793 0.693649 -0.786513
H24   H     H_    0.519620 0.134694 0.759631 0.372514
C45   C     C_2   0.773134 0.746320 0.643874 0.949169
O18   O     O_2   0.886130 0.775453 0.615463 -0.666557
O19   O     O_R   0.737894 0.656126 0.715707 -0.789472
H25   H     H_    0.815423 0.622808 0.735101 0.350035
C46   C     C_2   0.871501 0.417185 0.318901 0.948596
O20   O     O_2   0.828392 0.479208 0.255038 -0.647497
O21   O     O_R   0.855207 0.308020 0.304959 -0.765674
H26   H     H_    0.806352 0.290099 0.238790 0.353930

loop_
_geom_bond_atom_site_label_1
_geom_bond_atom_site_label_2
_geom_bond_distance
_ccdc_geom_bond_type
C5    C8    1.542475 S    
C39   O10   1.395714 S    
C11   H4    1.105120 S    
C6    C11   1.538374 S    
C14   C25   1.395760 A    
C32   C36   1.405710 A    
C15   H9    1.084476 S    
C18   C19   1.411453 A    
C13   C25   1.388731 A    
C5    C46   1.501278 S    
C34   C35   1.399478 A    
C30   C31   1.399120 A    
Zn1   O7    2.009213 S    
C27   H12   1.083504 S    
C1    C26   1.461366 S    
C18   C20   1.428566 A    
C8    C9    1.548027 S    
C28   C45   1.462491 S    
C21   C22   1.389280 A    
O7    C4    1.296180 A    
C44   O17   1.397754 S    
C10   H3    1.110569 S    
C13   C21   1.402547 A    
C5    C6    1.532792 S    
C2    C12   1.424372 S    
C32   N2    1.384370 A    
C7    C10   1.532681 S    
C33   C34   1.410272 A    
C17   C18   1.430171 A    
O5    C3    1.311362 A    
C5    C12   1.528024 S    
C9    C10   1.546828 S    
O10   H16   1.014060 S    
C40   O11   1.220849 D    
C17   C40   1.473564 S    
C39   O9    1.222489 D    
O1    Zn1   1.967919 S    
C11   C12   1.532093 S    
C13   H7    1.083939 S    
C4    C7    1.423424 S    
C28   N2    1.381232 A    
O3    Zn1   1.981790 S    
C16   C17   1.409341 A    
C31   C33   1.423111 A    
O13   C41   1.411129 S    
C27   C38   1.396304 A    
C8    H1    1.110750 S    
C23   C43   1.483852 S    
C19   C23   1.412391 A    
C9    C12   1.530531 S    
O15   H23   1.013371 S    
O3    C2    1.294942 A    
C29   H14   1.085302 S    
C22   C23   1.394808 A    
C37   C44   1.466864 S    
C44   O16   1.218343 D    
C6    C7    1.527820 S    
C35   C36   1.397762 A    
C28   C29   1.387644 A    
O1    C1    1.306897 A    
C41   H18   1.113442 S    
C20   C21   1.422802 A    
C45   O19   1.382924 S    
Zn2   O8    1.981792 S    
O21   H26   1.014049 S    
H6    C22   1.084786 S    
C7    C8    1.534903 S    
O17   H24   1.012888 S    
C46   O21   1.396646 S    
C41   H19   1.116253 S    
O8    C4    1.299113 A    
C43   O15   1.393826 S    
C27   C34   1.401512 A    
C24   H8    1.077526 S    
C6    C39   1.500645 S    
C29   C30   1.365050 A    
Zn1   O5    1.942026 S    
C31   C32   1.424915 A    
C14   C24   1.393702 A    
C42   H20   1.110747 S    
C3    C14   1.449594 S    
O2    Zn2   1.942025 S    
Zn1   N1    2.064530 S    
O12   H17   1.011192 S    
O6    C3    1.309736 A    
H10   C38   1.075976 S    
O4    Zn2   2.009210 S    
H11   C35   1.083937 S    
N1    C37   1.361421 A    
C15   C16   1.390154 A    
O2    C1    1.318057 A    
C36   H15   1.069763 S    
C30   H13   1.075056 S    
C42   H22   1.110792 S    
C45   O18   1.223669 D    
O4    C2    1.300511 A    
H5    C25   1.083673 S    
O19   H25   1.009918 S    
C15   C26   1.396974 A    
C9    H2    1.107032 S    
C42   H21   1.108204 S    
C20   C24   1.402441 A    
C46   O20   1.221385 D    
C41   C42   1.522256 S    
C33   C37   1.420767 A    
C16   O13   1.382198 S    
C10   C11   1.545586 S    
Zn2   O6    1.967921 S    
C43   O14   1.223448 D    
N1    C38   1.352946 A    
C19   C26   1.406895 A    
C40   O12   1.398611 S    
Zn2   N2    2.052380 S    
