data_mof_unit_54338.cif
_audit_creation_date              2012-12-10T20:07:01-0500
_audit_creation_method            fapswitch 2.2
_symmetry_space_group_name_H-M    P1
_symmetry_Int_Tables_number       1
_space_group_crystal_system       triclinic
_cell_length_a                    19.263659
_cell_length_b                    18.536473
_cell_length_c                    10.748501
_cell_angle_alpha                 86.36574
_cell_angle_beta                  92.76418
_cell_angle_gamma                 88.868864
_cell_volume                      3824.90216556

loop_
_atom_site_label
_atom_site_type_symbol
_atom_type_description
_atom_site_fract_x
_atom_site_fract_y
_atom_site_fract_z
_atom_type_partial_charge
C1    C     C_R   0.365710 0.500617 0.500554 0.886901
C2    C     C_R   0.634254 0.499738 0.495845 0.894995
C3    C     C_R   0.708817 0.500406 0.479121 -0.099464
C4    C     C_R   0.290387 0.502350 0.499033 -0.139680
C5    C     C_R   0.961213 0.544372 0.549541 -0.160885
C6    C     C_R   0.037165 0.468015 0.383235 -0.187081
C7    C     C_R   0.033113 0.544282 0.559005 -0.194122
C8    C     C_R   0.965130 0.468008 0.373809 -0.158809
C9    C     C_R   0.070789 0.505892 0.476178 0.084605
C10   C     C_R   0.927285 0.505950 0.457416 0.151663
C11   C     C_R   0.538494 0.720349 0.592927 0.329650
C12   C     C_R   0.442875 0.276081 0.451348 0.325440
C13   C     C_R   0.459087 0.733306 0.416324 0.270646
C14   C     C_R   0.557231 0.269915 0.548111 0.284480
C15   C     C_R   0.535822 0.795894 0.604250 -0.195828
C16   C     C_R   0.440656 0.199324 0.460081 -0.144755
C17   C     C_R   0.463958 0.809308 0.416059 -0.139075
C18   C     C_R   0.557442 0.193476 0.546044 -0.183028
C19   C     C_R   0.500387 0.841244 0.512600 0.253680
C20   C     C_R   0.498484 0.157622 0.505876 0.236171
C21   C     C_R   0.544977 0.962439 0.435790 0.255204
C22   C     C_R   0.462399 0.035595 0.600603 0.247910
C23   C     C_R   0.456465 0.959267 0.592513 0.274949
C24   C     C_R   0.536061 0.039061 0.420881 0.297243
C25   C     C_R   0.498499 0.076211 0.508720 -0.294823
C26   C     C_R   0.501405 0.922134 0.515591 -0.294211
C27   C     C_R   0.503745 0.502908 0.259387 0.875348
C28   C     C_R   0.496679 0.497113 0.740595 0.888315
C29   C     C_R   0.461982 0.634359 0.086354 -0.228054
C30   C     C_R   0.548662 0.369472 0.909051 -0.263087
C31   C     C_R   0.407041 0.594930 0.858597 -0.215033
C32   C     C_R   0.598279 0.409143 0.140384 -0.193418
C33   C     C_R   0.419385 0.684241 0.011964 0.182268
C34   C     C_R   0.596857 0.323875 0.979411 0.173372
C35   C     C_R   0.386674 0.662042 0.900751 0.197291
C36   C     C_R   0.625789 0.346654 0.092878 0.256031
C37   C     C_R   0.456820 0.549455 0.927159 0.026142
C38   C     C_R   0.545848 0.451628 0.073004 0.026966
C39   C     C_R   0.476390 0.564269 0.049005 0.025727
C40   C     C_R   0.527563 0.437062 0.950168 0.051815
C41   C     C_R   0.488505 0.490423 0.874419 -0.170112
C42   C     C_R   0.513149 0.509832 0.125732 -0.170520
C43   C     C_R   0.747960 0.436062 0.489934 -0.288007
C44   C     C_R   0.253978 0.564335 0.449773 -0.238623
C45   C     C_R   0.254783 0.442142 0.545094 -0.199799
C46   C     C_R   0.740798 0.565846 0.448042 -0.259017
C47   C     C_R   0.819593 0.436665 0.479285 0.202402
C48   C     C_R   0.181814 0.566488 0.442339 0.222362
C49   C     C_R   0.182352 0.443112 0.540737 0.208635
C50   C     C_R   0.812152 0.567799 0.434400 0.183592
C51   C     C_R   0.851928 0.503130 0.453622 0.026150
C52   C     C_R   0.145980 0.505242 0.486975 -0.049368
H1    H     H_    0.488013 0.653145 0.168257 0.198211
H2    H     H_    0.525300 0.348536 0.826344 0.188719
H3    H     H_    0.384589 0.577307 0.771876 0.160811
H4    H     H_    0.619873 0.426700 0.227950 0.155420
H5    H     H_    0.723303 0.385498 0.509855 0.188184
H6    H     H_    0.281701 0.610367 0.413068 0.177696
H7    H     H_    0.283334 0.395015 0.586806 0.188280
H8    H     H_    0.710378 0.615551 0.432328 0.172260
H9    H     H_    0.931924 0.573063 0.615237 0.142549
H10   H     H_    0.066734 0.438558 0.318951 0.143074
H11   H     H_    0.059428 0.573186 0.631297 0.143204
H12   H     H_    0.938858 0.438328 0.302490 0.144401
H13   H     H_    0.564215 0.819297 0.680664 0.147380
H14   H     H_    0.395973 0.171120 0.424916 0.155177
H15   H     H_    0.436634 0.844106 0.344507 0.148461
H16   H     H_    0.602050 0.160548 0.580236 0.162023
N1    N     N_R   0.500000 0.689440 0.500000 -0.151213
N2    N     N_R   0.500000 0.310560 0.500000 -0.158331
O1    O     O_R   0.398180 0.560840 0.499970 -0.655367
O2    O     O_R   0.601820 0.439160 0.500030 -0.627564
O3    O     O_R   0.601820 0.560840 0.500030 -0.593793
O4    O     O_R   0.398180 0.439160 0.499970 -0.602989
O5    O     O_R   0.499990 0.560810 0.316770 -0.655276
O6    O     O_R   0.500010 0.439190 0.683230 -0.643866
O7    O     O_R   0.500010 0.560810 0.683230 -0.599420
O8    O     O_R   0.499990 0.439190 0.316770 -0.624912
Zn1   Zn    Zn3+2 0.500000 0.581210 0.500000 0.945827
Zn2   Zn    Zn3+2 0.500000 0.418790 0.500000 0.947057
N3    N     N_2   0.684251 0.309695 0.155985 -0.326368
H17   H     H_    0.710379 0.273192 0.105697 0.252720
C53   C     C_3   0.675667 0.285384 0.284738 -0.716421
H18   H     H_    0.722044 0.252710 0.321099 0.240862
H19   H     H_    0.628678 0.252146 0.292737 0.302537
H20   H     H_    0.670329 0.332043 0.342962 0.241049
N4    N     N_2   0.336150 0.708486 0.831759 -0.267352
H21   H     H_    0.297371 0.727609 0.884653 0.220627
C54   C     C_3   0.311720 0.691586 0.707595 -0.666455
H22   H     H_    0.277178 0.736274 0.666035 0.258464
H23   H     H_    0.281246 0.641294 0.711783 0.203357
H24   H     H_    0.356256 0.685984 0.646669 0.263861
N5    N     N_2   0.617095 0.256817 0.932299 -0.364020
H25   H     H_    0.602247 0.253196 0.839902 0.233532
C55   C     C_3   0.596824 0.192829 0.003907 -0.583062
H26   H     H_    0.615274 0.143993 0.959409 0.233031
H27   H     H_    0.539294 0.191563 0.007135 0.276473
H28   H     H_    0.620791 0.190873 0.099417 0.304394
N6    N     N_2   0.410287 0.756265 0.049750 -0.317238
H29   H     H_    0.370401 0.786815 0.004579 0.258372
C56   C     C_3   0.473249 0.796957 0.064502 -0.573000
H30   H     H_    0.459774 0.852965 0.087423 0.262646
H31   H     H_    0.501516 0.799293 0.976675 0.249741
H32   H     H_    0.507707 0.772461 0.142101 0.236607
N7    N     N_2   0.858869 0.370603 0.497113 -0.309234
H33   H     H_    0.832983 0.326849 0.464421 0.231420
C57   C     C_3   0.887989 0.355414 0.622853 -0.767308
H34   H     H_    0.919926 0.304716 0.627102 0.246002
H35   H     H_    0.845762 0.348578 0.689220 0.233447
H36   H     H_    0.922013 0.399720 0.651391 0.249731
N8    N     N_2   0.146351 0.629062 0.384317 -0.307941
H37   H     H_    0.097498 0.620893 0.345036 0.241741
C58   C     C_3   0.149349 0.692564 0.455764 -0.773114
H38   H     H_    0.122897 0.738883 0.401026 0.250104
H39   H     H_    0.204035 0.707173 0.476475 0.240044
H40   H     H_    0.122887 0.682736 0.544621 0.237879
N9    N     N_2   0.146897 0.383126 0.595880 -0.305529
H41   H     H_    0.097093 0.393707 0.621881 0.239102
C59   C     C_3   0.153143 0.316552 0.533757 -0.743367
H42   H     H_    0.122846 0.273949 0.582434 0.248140
H43   H     H_    0.208150 0.297716 0.536738 0.251943
H44   H     H_    0.132680 0.324484 0.435292 0.232866
N10   N     N_2   0.843894 0.635039 0.404241 -0.309555
H45   H     H_    0.817683 0.679274 0.434338 0.238216
C60   C     C_3   0.861514 0.645789 0.275178 -0.742112
H46   H     H_    0.888634 0.697772 0.261321 0.246396
H47   H     H_    0.813589 0.647649 0.213057 0.240623
H48   H     H_    0.896778 0.601711 0.249191 0.241430
N11   N     N_2   0.579808 0.676040 0.681184 -0.253254
H49   H     H_    0.562376 0.677293 0.770312 0.225237
C61   C     C_3   0.653773 0.687638 0.678567 -0.753992
H50   H     H_    0.682166 0.642620 0.733481 0.237412
H51   H     H_    0.667115 0.739288 0.720067 0.221329
H52   H     H_    0.670830 0.689297 0.581356 0.257934
N12   N     N_2   0.387612 0.318246 0.387875 -0.271522
H53   H     H_    0.403766 0.355916 0.321670 0.266710
C62   C     C_3   0.323023 0.284866 0.351898 -0.826148
H54   H     H_    0.283781 0.327588 0.319962 0.251460
H55   H     H_    0.302655 0.253216 0.432773 0.256919
H56   H     H_    0.331023 0.249411 0.274034 0.248908
N13   N     N_2   0.410886 0.702966 0.330623 -0.308763
H57   H     H_    0.409863 0.647776 0.335410 0.278449
C63   C     C_3   0.341826 0.735899 0.316161 -0.805018
H58   H     H_    0.308138 0.703558 0.255213 0.243095
H59   H     H_    0.343133 0.791029 0.270137 0.257600
H60   H     H_    0.318679 0.738153 0.408472 0.245735
N14   N     N_2   0.615372 0.305092 0.602841 -0.290961
H61   H     H_    0.602832 0.342203 0.665783 0.251146
C64   C     C_3   0.680818 0.265798 0.631806 -0.871563
H62   H     H_    0.719410 0.302118 0.673290 0.246895
H63   H     H_    0.701449 0.245445 0.545797 0.265918
H64   H     H_    0.674929 0.219763 0.701061 0.246167
S1    S     S_3+6 0.610784 0.916169 0.356791 0.079530
O9    O     O_2   0.579507 0.891892 0.236181 -0.254982
O10   O     O_2   0.670759 0.964224 0.329060 -0.198476
O11   O     O_3   0.642933 0.842951 0.442329 -0.568077
H65   H     H_    0.666811 0.862326 0.516373 0.345818
S2    S     S_3+6 0.427581 0.080667 0.727100 0.086025
O12   O     O_2   0.355317 0.108193 0.688804 -0.232975
O13   O     O_2   0.424971 0.030447 0.842108 -0.199358
O14   O     O_3   0.475785 0.151337 0.764979 -0.566197
H66   H     H_    0.522284 0.129975 0.789916 0.339282
S3    S     S_3+6 0.391593 0.909845 0.673383 0.071930
O15   O     O_2   0.423756 0.876504 0.794051 -0.260806
O16   O     O_2   0.330994 0.957542 0.700884 -0.207779
O17   O     O_3   0.360212 0.843460 0.589048 -0.579260
H67   H     H_    0.334096 0.868629 0.516775 0.344923
S4    S     S_3+6 0.568342 0.088817 0.289337 0.029463
O18   O     O_2   0.640658 0.112363 0.322847 -0.282257
O19   O     O_2   0.570308 0.043636 0.178235 -0.218460
O20   O     O_3   0.518178 0.162464 0.247868 -0.614533
H68   H     H_    0.473892 0.143401 0.214275 0.362061

loop_
_geom_bond_atom_site_label_1
_geom_bond_atom_site_label_2
_ccdc_geom_bond_type
C63   H60   S    
C44   C48   A    
C21   C26   A    
C56   H30   S    
C57   H35   S    
C14   C18   A    
C55   H26   S    
C34   N5    S    
N14   H61   S    
O20   H68   S    
C61   H52   S    
C6    C9    A    
O1    Zn1   S    
O14   H66   S    
C55   H28   S    
N12   H53   S    
C15   C19   A    
C30   H2    S    
C3    C43   A    
C1    O1    A    
C13   N1    A    
C1    O4    A    
C32   C36   A    
O11   H65   S    
N14   C64   S    
C38   C42   A    
N13   C63   S    
C27   O5    A    
N10   C60   S    
C20   C25   S    
C18   H16   S    
C63   H58   S    
C15   H13   S    
C29   C33   A    
C28   C41   S    
O2    Zn2   S    
N12   C62   S    
C23   C26   A    
C19   C26   S    
N5    C55   S    
S2    O14   S    
C17   C19   A    
C35   N4    S    
S4    O20   S    
C49   N9    S    
C12   C16   A    
C44   H6    S    
C47   N7    S    
C22   C25   A    
C60   H48   S    
C57   H34   S    
C32   C38   A    
C54   H23   S    
C43   C47   A    
C18   C20   A    
C58   H40   S    
C59   H43   S    
C27   O8    A    
S4    O19   D    
C60   H46   S    
C56   H31   S    
O4    Zn2   S    
S2    O13   D    
C14   N2    A    
C64   H63   S    
C9    C52   S    
C11   C15   A    
C2    O2    A    
C10   C51   S    
C11   N11   S    
N3    C53   S    
C48   N8    S    
N3    H17   S    
C39   C42   A    
C23   S3    S    
C4    C45   A    
O7    Zn1   S    
C62   H56   S    
C17   H15   S    
C30   C34   A    
N2    Zn2   S    
N10   H45   S    
S3    O17   S    
C24   C25   A    
C24   S4    S    
C64   H64   S    
C54   H22   S    
C5    C7    A    
C6    C8    A    
C22   S2    S    
C14   N14   S    
C12   N12   S    
C31   C37   A    
C58   H39   S    
C33   N6    S    
N7    C57   S    
C53   H18   S    
C45   C49   A    
C36   N3    S    
C16   C20   A    
C49   C52   A    
C29   C39   A    
C55   H27   S    
C50   C51   A    
O3    Zn1   S    
O8    Zn2   S    
C30   C40   A    
N8    C58   S    
N5    H25   S    
C54   H24   S    
C28   O7    A    
C62   H55   S    
C7    H11   S    
C2    O3    A    
C8    H12   S    
C40   C41   A    
C53   H19   S    
C56   H32   S    
C13   N13   S    
N4    C54   S    
O17   H67   S    
C57   H36   S    
C31   C35   A    
N1    Zn1   S    
S1    O10   D    
C61   H50   S    
C28   O6    A    
C58   H38   S    
C62   H54   S    
C59   H44   S    
C63   H59   S    
C12   N2    A    
S4    O18   D    
N8    H37   S    
C46   H8    S    
C50   N10   S    
O6    Zn2   S    
C61   H51   S    
C47   C51   A    
C59   H42   S    
C11   N1    A    
C4    C44   A    
N7    H33   S    
C46   C50   A    
C3    C46   A    
N9    H41   S    
N6    H29   S    
C13   C17   A    
C1    C4    S    
C6    H10   S    
N9    C59   S    
C2    C3    S    
N11   H49   S    
C5    C10   A    
C37   C39   A    
C64   H62   S    
C38   C40   A    
C27   C42   S    
S2    O12   D    
C29   H1    S    
S1    O11   S    
C33   C35   A    
C45   H7    S    
C32   H4    S    
C34   C36   A    
C37   C41   A    
S3    O15   D    
C43   H5    S    
C7    C9    A    
C48   C52   A    
C53   H20   S    
C16   H14   S    
N4    H21   S    
C8    C10   A    
C21   C24   A    
C60   H47   S    
C21   S1    S    
C22   C23   A    
S3    O16   D    
C31   H3    S    
S1    O9    D    
N13   H57   S    
O5    Zn1   S    
N6    C56   S    
C5    H9    S    
N11   C61   S    
