data_mof_unit_12865.cif
_audit_creation_date              2012-12-11T14:57:51-0500
_audit_creation_method            fapswitch 2.2
_symmetry_space_group_name_H-M    P1
_symmetry_Int_Tables_number       1
_space_group_crystal_system       triclinic
_cell_length_a                    6.942586
_cell_length_b                    16.677816
_cell_length_c                    17.058825
_cell_angle_alpha                 100.413934
_cell_angle_beta                  90.048834
_cell_angle_gamma                 90.930197
_cell_volume                      1942.38640028

loop_
_atom_site_label
_atom_site_type_symbol
_atom_type_description
_atom_site_fract_x
_atom_site_fract_y
_atom_site_fract_z
_atom_type_partial_charge
O1    O     O_R   0.506180 0.438940 0.579430 -0.540422
O2    O     O_R   0.170520 0.406230 0.413590 -0.541783
O3    O     O_R   0.005180 0.561060 0.420570 -0.547565
C1    C     C_R   0.338641 0.382993 0.385348 0.713383
O4    O     O_R   0.176140 0.429310 0.578370 -0.542510
O5    O     O_R   0.010830 0.584300 0.586530 -0.539399
C2    C     C_R   0.343040 0.413602 0.605190 0.687036
O6    O     O_R   0.500520 0.415700 0.413470 -0.512171
O7    O     O_3   0.340830 0.550820 0.502480 -0.373880
V1    V     V_3+5 0.064040 0.490570 0.499540 1.456285
O8    O     O_R   0.681400 0.593770 0.586410 -0.541767
C3    C     C_R   0.851239 0.616518 0.614716 0.680918
O9    O     O_R   0.675790 0.570690 0.421630 -0.528321
C4    C     C_R   0.844257 0.585082 0.393888 0.764510
V2    V     V_3+5 0.564650 0.509430 0.500460 1.478929
O10   O     O_3   0.837730 0.449180 0.497520 -0.361957
C5    C     C_R   0.917390 0.863821 0.169072 -0.147391
C6    C     C_R   0.849203 0.633213 0.328357 -0.083403
C7    C     C_R   0.722317 0.663206 0.203054 -0.245425
C8    C     C_R   0.736137 0.609935 0.258044 -0.007714
C9    C     C_R   0.953662 0.707460 0.339085 -0.253157
C10   C     C_R   0.941089 0.759860 0.283017 0.104217
C11   C     C_R   0.822792 0.738030 0.214982 0.163685
C12   C     C_R   0.810558 0.790283 0.158766 -0.306586
C13   C     C_R   0.031037 0.887180 0.238445 0.460190
C14   C     C_R   0.044271 0.834083 0.294247 -0.273707
H1    H     H_    0.723207 0.772486 0.105556 0.132429
H2    H     H_    0.635048 0.645506 0.149758 0.104217
H3    H     H_    0.137248 0.850092 0.345894 0.124168
H4    H     H_    0.040357 0.725558 0.392450 0.112918
H5    H     H_    0.765196 0.629178 0.978686 0.104797
C15   C     C_R   0.972284 0.909346 0.723801 -0.151042
C16   C     C_R   0.998143 0.924000 0.646573 -0.116738
C17   C     C_R   0.980864 0.860347 0.581807 -0.117027
C18   C     C_R   0.937366 0.781575 0.593782 -0.134139
C19   C     C_R   0.910424 0.764817 0.671488 0.072475
C20   C     C_R   0.928395 0.829963 0.737816 0.067151
C21   C     C_R   0.864723 0.684844 0.683695 -0.169522
C22   C     C_R   0.837096 0.669884 0.762222 0.024890
C23   C     C_R   0.854993 0.735036 0.828462 0.072655
C24   C     C_R   0.900783 0.815028 0.816279 -0.172914
C25   C     C_R   0.793358 0.590447 0.776221 -0.141700
C26   C     C_R   0.767216 0.575259 0.853799 0.056873
C27   C     C_R   0.784643 0.639716 0.918316 -0.216829
C28   C     C_R   0.828015 0.718372 0.906080 -0.129792
H6    H     H_    0.986709 0.960899 0.772208 0.093692
H7    H     H_    0.031474 0.985123 0.636962 0.118732
H8    H     H_    0.000797 0.872054 0.521914 0.108060
H9    H     H_    0.924261 0.734169 0.541524 0.083914
H10   H     H_    0.779650 0.539636 0.727020 0.134129
H11   H     H_    0.841077 0.765876 0.958257 0.094731
H12   H     H_    0.090268 0.465360 0.143606 0.142527
C29   C     C_R   0.476120 0.224606 0.404454 -0.123503
C30   C     C_R   0.549684 0.150224 0.415462 -0.117975
C31   C     C_R   0.581096 0.088799 0.350303 -0.144555
C32   C     C_R   0.539377 0.101196 0.273555 -0.108051
C33   C     C_R   0.463646 0.175970 0.260324 0.045034
C34   C     C_R   0.431387 0.238994 0.327271 0.065352
C35   C     C_R   0.418282 0.188062 0.182181 -0.190447
C36   C     C_R   0.343193 0.264418 0.171140 -0.020112
C37   C     C_R   0.298308 0.324918 0.238975 0.038651
C38   C     C_R   0.349774 0.313699 0.316664 -0.139532
C39   C     C_R   0.316530 0.284019 0.093883 0.450717
C40   C     C_R   0.219019 0.354698 0.084967 -0.202458
C41   C     C_R   0.162435 0.410190 0.151222 -0.204311
C42   C     C_R   0.206436 0.396972 0.227298 -0.099637
H13   H     H_    0.451086 0.269938 0.457241 0.099387
H14   H     H_    0.580283 0.139818 0.474966 0.167781
H15   H     H_    0.635062 0.030666 0.359345 0.117018
H16   H     H_    0.565354 0.051105 0.225087 0.122039
H17   H     H_    0.193589 0.367908 0.025986 0.134633
H18   H     H_    0.166667 0.443941 0.276682 0.132715
C43   C     C_R   0.427376 0.136641 0.831247 -0.064473
C44   C     C_R   0.339800 0.359862 0.665948 -0.088883
C45   C     C_R   0.158635 0.303637 0.766273 -0.166104
C46   C     C_R   0.175842 0.358616 0.714063 -0.107544
C47   C     C_R   0.488449 0.305108 0.671821 -0.141759
C48   C     C_R   0.470188 0.246190 0.722156 0.151462
C49   C     C_R   0.302760 0.246827 0.770536 0.105018
C50   C     C_R   0.281649 0.191666 0.823646 -0.212273
C51   C     C_R   0.591201 0.135051 0.782612 -0.272902
C52   C     C_R   0.613603 0.187331 0.727230 -0.001996
H19   H     H_    0.155483 0.193867 0.861368 0.129746
H20   H     H_    0.703255 0.091563 0.787363 0.117571
H21   H     H_    0.030524 0.304874 0.802736 0.135912
H22   H     H_    0.059261 0.400399 0.711129 0.149149
H23   H     H_    0.615011 0.308983 0.636051 0.173112
O11   O     O_R   0.265840 0.084300 0.086750 -0.523107
O12   O     O_R   0.589750 0.070740 0.921690 -0.547153
O13   O     O_R   0.755020 0.915730 0.913400 -0.540368
C53   C     C_R   0.422965 0.085264 0.894012 0.770950
O14   O     O_R   0.595830 0.093740 0.086480 -0.541565
O15   O     O_R   0.761150 0.938890 0.079360 -0.547118
C54   C     C_R   0.427766 0.117830 0.114149 0.810595
O16   O     O_R   0.259710 0.061140 0.920790 -0.539429
O17   O     O_3   0.425260 0.949200 0.997610 -0.373087
V3    V     V_3+5 0.702060 0.009430 0.000450 1.427178
O18   O     O_R   0.090530 0.929220 0.078150 -0.522022
C55   C     C_R   0.922019 0.913875 0.105198 0.751470
O19   O     O_R   0.084440 0.906220 0.913360 -0.543743
C56   C     C_R   0.914506 0.883444 0.885174 0.682357
V4    V     V_3+5 0.201450 0.990520 0.999290 1.475453
O20   O     O_3   0.928380 0.050800 0.002390 -0.372862
C57   C     C_2   0.722137 0.492244 0.868571 0.325647
H24   H     H_    0.702096 0.482022 0.929134 0.037340
O21   O     O_2   0.706967 0.434341 0.813642 -0.548890
O22   O     O_3   0.135868 0.960068 0.247481 -0.557057
C58   C     C_3   0.116257 0.005791 0.325203 -0.252987
H25   H     H_    0.226757 0.987712 0.365472 0.147242
H26   H     H_    0.969689 0.000352 0.350296 0.122469
H27   H     H_    0.141141 0.071155 0.322808 0.182521
O23   O     O_3   0.395114 0.237388 0.026757 -0.575055
C59   C     C_3   0.575874 0.272323 0.012864 -0.252002
H28   H     H_    0.674889 0.274653 0.064685 0.144548
H29   H     H_    0.559894 0.334274 0.998239 0.140100
H30   H     H_    0.644527 0.234050 0.960895 0.169019
C60   C     C_2   0.789649 0.176236 0.677138 0.320219
H31   H     H_    0.917155 0.150875 0.699586 0.056272
O24   O     O_2   0.792337 0.189910 0.609291 -0.553055
C61   C     C_2   0.634752 0.529735 0.237612 0.316775
H32   H     H_    0.522320 0.521007 0.192464 0.053565
O25   O     O_2   0.680073 0.471748 0.267829 -0.533651

loop_
_geom_bond_atom_site_label_1
_geom_bond_atom_site_label_2
_ccdc_geom_bond_type
C34   C38   A    
C31   C32   A    
O17   V4    S    
C6    C9    A    
C4    C6    S    
O2    C1    A    
C7    C8    A    
C12   H1    S    
C1    O6    A    
C57   O21   D    
C51   C52   A    
C47   C48   A    
C58   H25   S    
C44   C46   A    
C36   C39   A    
C19   C20   A    
C60   O24   D    
O5    C3    A    
C21   C22   A    
C33   C35   A    
C30   H14   S    
C28   H11   S    
V2    O10   S    
C1    C38   S    
C32   C33   A    
C17   C18   A    
C40   H17   S    
C39   O23   S    
C22   C25   A    
C57   H24   S    
C26   C57   S    
O8    V2    S    
C37   C42   A    
C45   H21   S    
C42   H18   S    
C18   C19   A    
C58   H26   S    
C44   C47   A    
C18   H9    S    
O22   C58   S    
O1    V2    S    
C35   C54   S    
O12   C53   A    
O7    V1    S    
O15   C55   A    
O13   V3    S    
O16   V4    S    
C59   H30   S    
C35   C36   A    
O9    C4    A    
C3    C21   S    
V4    O20   S    
C50   H19   S    
C43   C51   A    
O23   C59   S    
C61   O25   D    
O14   V3    S    
C2    C44   S    
C23   C28   A    
O11   C54   A    
C5    C12   A    
H5    C27   S    
O14   C54   A    
C43   C53   S    
C22   C23   A    
O4    C2    A    
C48   C49   A    
C13   C14   A    
O18   V4    S    
C49   C50   A    
O12   V3    S    
C36   C37   A    
C7    C11   A    
C45   C46   A    
O13   C56   A    
C48   C52   A    
C11   C12   A    
O17   V3    S    
O19   V4    S    
C16   C17   A    
C31   H15   S    
C15   C20   A    
C7    H2    S    
C5    C55   S    
V3    O20   S    
O3    C4    A    
C25   H10   S    
C23   C24   A    
C41   C42   A    
O6    V2    S    
C32   H16   S    
O9    V2    S    
C26   C27   A    
C16   H7    S    
C17   H8    S    
C25   C26   A    
O2    V1    S    
O15   V3    S    
C8    C61   S    
C51   H20   S    
C61   H32   S    
C13   O22   S    
C59   H28   S    
C30   C31   A    
O1    C2    A    
C15   H6    S    
C27   C28   A    
O5    V1    S    
O11   V4    S    
C29   C34   A    
C29   C30   A    
C9    H4    S    
C58   H27   S    
C5    C13   A    
C40   C41   A    
C19   C21   A    
O7    V2    S    
O4    V1    S    
O3    V1    S    
V1    O10   S    
C60   H31   S    
C15   C16   A    
C33   C34   A    
O19   C56   A    
C43   C50   A    
C24   C56   S    
C6    C8    A    
C20   C24   A    
C37   C38   A    
C29   H13   S    
C53   O16   A    
C39   C40   A    
C47   H23   S    
C14   H3    S    
O18   C55   A    
C10   C14   A    
C46   H22   S    
C10   C11   A    
C52   C60   S    
C9    C10   A    
C45   C49   A    
H12   C41   S    
O8    C3    A    
C59   H29   S    
