data_mof_unit_56007.cif
_audit_creation_date              2012-12-10T16:44:42-0500
_audit_creation_method            fapswitch 2.2
_symmetry_space_group_name_H-M    P1
_symmetry_Int_Tables_number       1
_space_group_crystal_system       triclinic
_cell_length_a                    15.037443
_cell_length_b                    8.696596
_cell_length_c                    7.445281
_cell_angle_alpha                 102.9551
_cell_angle_beta                  93.643578
_cell_angle_gamma                 92.73396
_cell_volume                      945.029402619

loop_
_atom_site_label
_atom_site_type_symbol
_atom_type_description
_atom_site_fract_x
_atom_site_fract_y
_atom_site_fract_z
_atom_type_partial_charge
C1    C     C_R   0.496386 0.199682 0.453344 0.863909
C2    C     C_R   0.503614 0.800318 0.546656 0.863861
C3    C     C_R   0.034238 0.212690 0.376529 0.184337
C4    C     C_R   0.965774 0.787382 0.623457 0.184408
C5    C     C_2   0.495146 0.031793 0.427111 -0.367375
C6    C     C_2   0.504855 0.968207 0.572889 -0.367336
C7    C     C_R   0.329395 0.498186 0.503093 0.832099
C8    C     C_R   0.670605 0.501819 0.496907 0.832048
C9    C     C_R   0.817304 0.644937 0.518169 0.076265
C10   C     C_R   0.182691 0.355119 0.481896 0.076171
C11   C     C_R   0.766636 0.500101 0.488961 -0.056689
C12   C     C_R   0.233365 0.499938 0.511038 -0.056719
C13   C     C_R   0.807104 0.354955 0.454638 0.092011
C14   C     C_R   0.192902 0.645089 0.545304 0.092029
C15   C     C_R   0.900424 0.356114 0.445781 0.069546
C16   C     C_R   0.099582 0.643941 0.554192 0.069546
C17   C     C_R   0.952897 0.500826 0.498038 -0.043110
C18   C     C_R   0.047105 0.499237 0.501966 -0.043080
C19   C     C_R   0.911376 0.646647 0.547107 0.094913
C20   C     C_R   0.088625 0.353419 0.452918 0.094995
C21   C     C_R   0.942029 0.215264 0.382515 -0.211990
C22   C     C_R   0.057983 0.784794 0.617447 -0.212028
Cu1   Cu    Cu3+1 0.510010 0.517380 0.684380 0.953917
Cu2   Cu    Cu3+1 0.489990 0.482620 0.315620 0.953897
H1    H     H_    0.902753 0.105074 0.329695 0.157605
H2    H     H_    0.097267 0.894980 0.670226 0.157571
H3    H     H_    0.486546 0.960167 0.286540 0.182931
H4    H     H_    0.513454 0.039833 0.713460 0.182933
H5    H     H_    0.430045 0.378131 0.948837 0.225439
H6    H     H_    0.569955 0.621869 0.051163 0.225462
N1    N     N_2   0.474890 0.456420 0.038520 -0.213609
N2    N     N_2   0.525110 0.543580 0.961480 -0.213604
O1    O     O_R   0.506510 0.286130 0.619770 -0.586739
O2    O     O_R   0.493490 0.713870 0.380230 -0.586762
O3    O     O_R   0.489600 0.256770 0.308360 -0.584205
O4    O     O_R   0.510400 0.743230 0.691640 -0.584183
O5    O     O_R   0.378710 0.514640 0.655720 -0.588589
O6    O     O_R   0.621290 0.485360 0.344280 -0.588587
O7    O     O_R   0.361800 0.485290 0.344300 -0.575365
O8    O     O_R   0.638200 0.514710 0.655700 -0.575340
C23   C     C_3   0.771086 0.790246 0.490546 -0.874623
H7    H     H_    0.710210 0.758815 0.394439 0.226734
H8    H     H_    0.751049 0.860390 0.623650 0.236249
H9    H     H_    0.814618 0.861776 0.421414 0.236723
C24   C     C_3   0.228900 0.209839 0.509641 -0.874690
H10   H     H_    0.289614 0.241352 0.606207 0.226797
H11   H     H_    0.185273 0.138090 0.578318 0.236801
H12   H     H_    0.249185 0.139894 0.376658 0.236189
C25   C     C_3   0.751571 0.199419 0.426389 -0.865444
H13   H     H_    0.777881 0.131903 0.525637 0.230448
H14   H     H_    0.680460 0.212826 0.451169 0.232625
H15   H     H_    0.753957 0.129721 0.282492 0.229336
C26   C     C_3   0.248436 0.800611 0.573457 -0.865467
H16   H     H_    0.222127 0.868075 0.474152 0.230500
H17   H     H_    0.246056 0.870370 0.717325 0.229333
H18   H     H_    0.319545 0.787179 0.548688 0.232632
C27   C     C_3   0.069223 0.063478 0.264619 -0.862765
H19   H     H_    0.016127 0.992489 0.165832 0.227247
H20   H     H_    0.122491 0.092814 0.179059 0.239072
H21   H     H_    0.092917 0.986614 0.355227 0.239129
C28   C     C_3   0.930804 0.936630 0.735317 -0.862717
H22   H     H_    0.983959 0.007872 0.833734 0.227210
H23   H     H_    0.906893 0.013280 0.644635 0.239131
H24   H     H_    0.877702 0.907306 0.821265 0.238966

loop_
_geom_bond_atom_site_label_1
_geom_bond_atom_site_label_2
_ccdc_geom_bond_type
C13   C25   S    
C28   H24   S    
Cu2   O6    S    
Cu1   Cu2   S    
C4    C28   S    
C10   C20   A    
C11   C13   A    
C4    C22   A    
C23   H7    S    
C23   H8    S    
C9    C23   S    
N1    N2    D    
C25   H15   S    
Cu1   N2    S    
C2    O2    A    
C10   C24   S    
C26   H17   S    
C17   C18   A    
C7    O5    A    
Cu2   N1    S    
C1    O1    A    
C3    C20   A    
H5    N1    S    
Cu1   O5    S    
C26   H16   S    
C26   H18   S    
H6    N2    S    
C9    C11   A    
C27   H19   S    
C2    C6    S    
C10   C12   A    
C8    O6    A    
C8    C11   S    
C1    C5    S    
C5    C6    D    
C3    C27   S    
C17   C19   A    
C12   C14   A    
C25   H13   S    
C18   C20   A    
C13   C15   A    
C28   H22   S    
C23   H9    S    
C14   C16   A    
C7    C12   S    
C27   H20   S    
Cu2   O3    S    
C3    C21   A    
Cu1   O8    S    
C24   H10   S    
C15   C21   A    
C14   C26   S    
C8    O8    A    
C1    O3    A    
C16   C18   A    
Cu1   O4    S    
C22   H2    S    
C24   H11   S    
C2    O4    A    
C15   C17   A    
C7    O7    A    
C27   H21   S    
C21   H1    S    
C24   H12   S    
C25   H14   S    
C5    H3    S    
C4    C19   A    
Cu2   O7    S    
C9    C19   A    
C28   H23   S    
C6    H4    S    
C16   C22   A    
Cu1   O1    S    
Cu2   O2    S    
