data_mof_unit_8820.cif
_audit_creation_date              2012-12-10T18:14:29-0500
_audit_creation_method            fapswitch 2.2
_symmetry_space_group_name_H-M    P1
_symmetry_Int_Tables_number       1
_space_group_crystal_system       triclinic
_cell_length_a                    12.622439
_cell_length_b                    13.093026
_cell_length_c                    19.145008
_cell_angle_alpha                 90.632729
_cell_angle_beta                  102.931598
_cell_angle_gamma                 82.333389
_cell_volume                      3055.62618927

loop_
_atom_site_label
_atom_site_type_symbol
_atom_type_description
_atom_site_fract_x
_atom_site_fract_y
_atom_site_fract_z
_atom_type_partial_charge
C1    C     C_R   0.438598 0.691254 0.489202 0.863484
C2    C     C_R   0.507809 0.450877 0.146953 0.089220
C3    C     C_R   0.693446 0.065377 0.440662 -0.198971
C4    C     C_R   0.501321 0.499151 0.634301 0.865645
C5    C     C_R   0.595340 0.199727 0.498400 -0.047105
C6    C     C_R   0.301128 0.838072 0.502339 -0.196903
C7    C     C_R   0.272029 0.943272 0.508250 -0.141807
C8    C     C_R   0.343146 0.011214 0.497858 -0.180307
C9    C     C_R   0.442765 0.974403 0.477801 0.076476
C10   C     C_R   0.462093 0.870135 0.459976 0.081152
C11   C     C_R   0.524765 0.037102 0.475952 0.072933
C12   C     C_R   0.505198 0.490535 0.710329 -0.017376
C13   C     C_R   0.613632 0.001486 0.443893 0.171627
C14   C     C_R   0.620822 0.903067 0.415307 -0.267779
C15   C     C_R   0.546433 0.837481 0.423820 -0.217953
C16   C     C_R   0.560933 0.308566 0.506655 0.862307
C17   C     C_R   0.522353 0.133297 0.507396 -0.265560
C18   C     C_R   0.683222 0.165281 0.466777 -0.202687
C19   C     C_R   0.398048 0.800883 0.480668 -0.107224
C20   C     C_R   0.095730 0.329617 0.412102 -0.089040
C21   C     C_R   0.804262 0.631633 0.584195 0.129065
C22   C     C_R   0.908350 0.661414 0.597440 -0.290687
C23   C     C_R   0.509139 0.441567 0.071091 0.286932
C24   C     C_R   0.986279 0.612389 0.564053 -0.221582
C25   C     C_R   0.961749 0.531402 0.516762 0.036735
C26   C     C_R   0.853942 0.503779 0.503355 0.218802
C27   C     C_R   0.041252 0.475867 0.483778 -0.018965
C28   C     C_R   0.499625 0.497739 0.365660 0.837609
C29   C     C_R   0.014198 0.389788 0.440607 0.135755
C30   C     C_R   0.906328 0.366927 0.426172 -0.301793
C31   C     C_R   0.827979 0.423331 0.456685 -0.223707
C32   C     C_R   0.148039 0.501811 0.493120 -0.062353
C33   C     C_R   0.199533 0.360674 0.423786 -0.052251
C34   C     C_R   0.509113 0.446480 0.930211 0.285635
C35   C     C_R   0.407788 0.510269 0.734451 -0.195164
C36   C     C_R   0.409047 0.494564 0.806068 -0.165208
C37   C     C_R   0.507902 0.459183 0.854442 0.088693
C38   C     C_R   0.605568 0.439878 0.830242 -0.175319
C39   C     C_R   0.604028 0.454895 0.758315 -0.215725
C40   C     C_R   0.078648 0.231212 0.374856 0.112877
C41   C     C_R   0.048695 0.149416 0.409901 -0.173622
C42   C     C_R   0.036705 0.055326 0.375819 -0.136799
C43   C     C_R   0.055655 0.041768 0.306943 -0.090956
C44   C     C_R   0.086603 0.122307 0.272027 -0.125488
C45   C     C_R   0.409080 0.451365 0.169146 -0.166660
C46   C     C_R   0.098471 0.216641 0.305861 -0.157513
C47   C     C_R   0.728882 0.684648 0.625741 0.177276
C48   C     C_R   0.675600 0.784332 0.605148 -0.139064
C49   C     C_R   0.611690 0.839016 0.647702 -0.145740
C50   C     C_R   0.605021 0.796531 0.712941 -0.125069
C51   C     C_R   0.664383 0.700549 0.736360 -0.145678
C52   C     C_R   0.727824 0.645641 0.693529 -0.126940
C53   C     C_R   0.405941 0.468265 0.240348 -0.193498
C54   C     C_R   0.501447 0.485078 0.290211 -0.027586
C55   C     C_R   0.600387 0.483702 0.268187 -0.204371
C56   C     C_R   0.603619 0.466368 0.197072 -0.163065
H1    H     H_    0.330595 0.537459 0.697851 0.146387
H2    H     H_    0.065426 0.638578 0.578163 0.137763
H3    H     H_    0.929797 0.722127 0.634859 0.155798
H4    H     H_    0.747775 0.401127 0.443371 0.210632
H5    H     H_    0.682737 0.412144 0.866589 0.149598
H6    H     H_    0.679320 0.436315 0.739962 0.146330
H7    H     H_    0.675573 0.495304 0.305838 0.162934
H8    H     H_    0.680765 0.466844 0.181301 0.150086
H9    H     H_    0.740191 0.216616 0.458998 0.145832
H10   H     H_    0.686256 0.875420 0.388801 0.153364
H11   H     H_    0.317270 0.092066 0.504268 0.137381
H12   H     H_    0.761155 0.039453 0.415743 0.135288
H13   H     H_    0.196574 0.971957 0.524121 0.136985
H14   H     H_    0.035458 0.158336 0.463742 0.131185
H15   H     H_    0.013455 0.992697 0.403014 0.123784
H16   H     H_    0.046734 0.968751 0.280729 0.124378
H17   H     H_    0.101694 0.111550 0.218793 0.130864
H18   H     H_    0.122971 0.278285 0.278352 0.124037
H19   H     H_    0.684499 0.819688 0.556484 0.147908
H20   H     H_    0.568768 0.914886 0.630636 0.144211
H21   H     H_    0.555968 0.838986 0.746085 0.134339
H22   H     H_    0.661994 0.669117 0.787945 0.148201
H23   H     H_    0.461070 0.160455 0.537056 0.147420
H24   H     H_    0.776003 0.572704 0.712956 0.118280
H25   H     H_    0.333983 0.439544 0.131504 0.147882
H26   H     H_    0.328801 0.468105 0.256217 0.155487
H27   H     H_    0.249622 0.785698 0.516839 0.146591
H28   H     H_    0.555871 0.760890 0.402267 0.172736
H29   H     H_    0.264207 0.315882 0.403405 0.147330
H30   H     H_    0.881015 0.305505 0.390620 0.168605
H31   H     H_    0.332733 0.511034 0.823504 0.148764
H32   H     H_    0.175967 0.566094 0.523870 0.124273
N1    N     N_R   0.604914 0.438035 0.980100 -0.182021
N2    N     N_R   0.604893 0.435792 0.049392 -0.182203
N3    N     N_R   0.413650 0.447297 0.021112 -0.181804
N4    N     N_R   0.413642 0.449748 0.951891 -0.181907
N5    N     N_R   0.222200 0.444680 0.463280 -0.107132
N6    N     N_R   0.776960 0.554780 0.536340 -0.145512
O1    O     O_R   0.366740 0.627160 0.482470 -0.616095
O2    O     O_R   0.544830 0.662520 0.505920 -0.607322
O3    O     O_R   0.410920 0.482320 0.590130 -0.616282
O4    O     O_R   0.589010 0.517690 0.613590 -0.610050
O5    O     O_R   0.455170 0.337480 0.494080 -0.612676
O6    O     O_R   0.633260 0.372840 0.517530 -0.635894
O7    O     O_R   0.410990 0.482310 0.386410 -0.613479
O8    O     O_R   0.589080 0.517680 0.409870 -0.644754
Zn1   Zn    Zn3+2 0.381090 0.476390 0.484340 0.937632
Zn2   Zn    Zn3+2 0.618910 0.523610 0.515660 0.930141

loop_
_geom_bond_atom_site_label_1
_geom_bond_atom_site_label_2
_ccdc_geom_bond_type
C26   N6    A    
O5    Zn1   S    
C55   C56   A    
C43   H16   S    
C4    O4    A    
C27   C29   A    
C34   C37   S    
C41   C42   A    
C3    H12   S    
C17   H23   S    
N5    Zn1   S    
C7    C8    A    
C53   C54   A    
C18   H9    S    
C40   C46   A    
C6    C19   A    
C29   C30   A    
C21   C22   A    
C36   C37   A    
C10   C15   A    
C30   C31   A    
C20   C40   S    
C5    C17   A    
C21   N6    A    
C32   H32   S    
O6    Zn2   S    
C3    C18   A    
C33   H29   S    
C5    C16   S    
C28   O7    A    
C11   C17   A    
C35   C36   A    
C44   C46   A    
C8    C9    A    
C55   H7    S    
C56   H8    S    
C30   H30   S    
C9    C10   A    
N3    N4    A    
C38   H5    S    
C32   N5    A    
C45   C53   A    
C26   C31   A    
O7    Zn1   S    
C4    O3    A    
C48   H19   S    
O1    Zn1   S    
C6    C7    A    
C20   C29   A    
C36   H31   S    
C1    C19   S    
C51   C52   A    
C24   C25   A    
C22   H3    S    
C28   C54   S    
C16   O6    A    
C5    C18   A    
C25   C26   A    
C53   H26   S    
C31   H4    S    
C47   C52   A    
C43   C44   A    
C37   C38   A    
C47   C48   A    
C10   C19   A    
C1    O1    A    
C50   C51   A    
C14   H10   S    
C49   H20   S    
C12   C35   A    
O8    Zn2   S    
C9    C11   A    
O3    Zn1   S    
C20   C33   A    
C40   C41   A    
O2    Zn2   S    
C23   N3    A    
C4    C12   S    
C42   C43   A    
C50   H21   S    
C46   H18   S    
C39   H6    S    
C54   C55   A    
C48   C49   A    
C6    H27   S    
C27   C32   A    
C52   H24   S    
C45   H25   S    
C33   N5    A    
C7    H13   S    
C16   O5    A    
C15   H28   S    
C25   C27   A    
C35   H1    S    
C12   C39   A    
C34   N1    A    
C2    C56   A    
C23   N2    A    
C11   C13   A    
C38   C39   A    
C1    O2    A    
O4    Zn2   S    
C42   H15   S    
C22   C24   A    
C44   H17   S    
C34   N4    A    
C51   H22   S    
C2    C45   A    
N6    Zn2   S    
C28   O8    A    
C3    C13   A    
C8    H11   S    
C24   H2    S    
C49   C50   A    
C2    C23   S    
C14   C15   A    
N1    N2    A    
C13   C14   A    
C41   H14   S    
C21   C47   S    
