data_mof_unit_5490.cif
_audit_creation_date              2013-03-05T16:48:16-0500
_audit_creation_method            fapswitch 2.2
_symmetry_space_group_name_H-M    P1
_symmetry_Int_Tables_number       1
_space_group_crystal_system       triclinic
_cell_length_a                    23.434228
_cell_length_b                    8.920821
_cell_length_c                    8.104032
_cell_angle_alpha                 89.926226
_cell_angle_beta                  90.000055
_cell_angle_gamma                 89.999832
_cell_volume                      1694.16717691

loop_
_atom_site_label
_atom_site_type_symbol
_atom_site_description
_atom_site_fract_x
_atom_site_fract_y
_atom_site_fract_z
_atom_type_partial_charge
O1    O     O_R   0.500000 0.285350 0.636850 -0.615932
O2    O     O_R   0.500000 0.714650 0.363150 -0.615931
O3    O     O_R   0.500000 0.714650 0.636850 -0.611891
O4    O     O_R   0.500000 0.285350 0.363150 -0.611892
H1    H     H_    0.948171 0.133376 0.391649 0.199518
H2    H     H_    0.051829 0.866579 0.608360 0.199518
H3    H     H_    0.948171 0.866578 0.608362 0.199519
H4    H     H_    0.051830 0.133376 0.391647 0.199518
C1    C     C_R   0.500000 0.218007 0.500066 0.941782
C2    C     C_R   0.500000 0.781993 0.499934 0.941784
O5    O     O_R   0.416160 0.500000 0.636910 -0.619573
O6    O     O_R   0.583840 0.500000 0.363090 -0.619573
O7    O     O_R   0.583840 0.500000 0.636910 -0.619572
O8    O     O_R   0.416160 0.500000 0.363090 -0.619575
C3    C     C_R   0.208264 0.499980 0.499998 0.107631
C4    C     C_R   0.791736 0.499979 0.500001 0.107628
C5    C     C_R   0.389047 0.499999 0.500000 0.926765
C6    C     C_R   0.610953 0.499999 0.500000 0.926764
Zn1   Zn    Zn3+2 0.500000 0.500000 0.682780 1.013926
Zn2   Zn    Zn3+2 0.500000 0.500000 0.317220 1.013925
C7    C     C_R   0.297166 0.547086 0.359245 -0.236247
C8    C     C_R   0.702832 0.452889 0.640754 -0.236261
C9    C     C_R   0.297168 0.452894 0.640754 -0.236262
C10   C     C_R   0.702834 0.547089 0.359248 -0.236248
H5    H     H_    0.319836 0.584630 0.250231 0.203828
H6    H     H_    0.680164 0.415347 0.749764 0.203830
H7    H     H_    0.319836 0.415355 0.749766 0.203831
H8    H     H_    0.680165 0.584636 0.250235 0.203828
C11   C     C_R   0.326961 0.499994 0.500001 -0.176535
C12   C     C_R   0.673039 0.499993 0.500001 -0.176536
C13   C     C_R   0.880574 0.629264 0.539261 0.620775
C14   C     C_R   0.119425 0.370691 0.460746 0.620775
C15   C     C_R   0.880575 0.370690 0.460749 0.620779
C16   C     C_R   0.119425 0.629265 0.539257 0.620769
N1    N     N_R   0.852439 0.499978 0.500004 -0.336118
N2    N     N_R   0.147561 0.499978 0.500000 -0.336116
C17   C     C_R   0.940135 0.367693 0.460487 -0.028175
C18   C     C_R   0.059865 0.632262 0.539521 -0.028173
C19   C     C_R   0.940135 0.632262 0.539523 -0.028172
C20   C     C_R   0.059865 0.367693 0.460485 -0.028176
C21   C     C_R   0.970032 0.499977 0.500005 -0.008361
C22   C     C_R   0.029967 0.499977 0.500004 -0.008359
C23   C     C_R   0.970302 0.236370 0.421894 -0.130911
C24   C     C_R   0.029698 0.763585 0.578115 -0.130911
C25   C     C_R   0.970301 0.763585 0.578116 -0.130911
C26   C     C_R   0.029698 0.236370 0.421893 -0.130910
C27   C     C_1   0.500000 0.065216 0.500096 -0.166417
C28   C     C_1   0.500000 0.934784 0.499904 -0.166417
C29   C     C_R   0.237897 0.548378 0.359380 0.426969
C30   C     C_R   0.762101 0.451584 0.640618 0.426961
C31   C     C_R   0.237899 0.451588 0.640617 0.426958
C32   C     C_R   0.762103 0.548381 0.359384 0.426968
N3    N     N_1   0.500000 0.500000 0.073640 -0.025181
N4    N     N_1   0.500000 0.500000 0.926360 -0.025181
O9    O     O_2   0.850824 0.753986 0.577796 -0.488265
O10   O     O_2   0.149177 0.245969 0.422208 -0.488261
O11   O     O_2   0.850824 0.245969 0.422213 -0.488264
O12   O     O_2   0.149176 0.753988 0.577793 -0.488263
Cl1   Cl    Cl    0.201377 0.611598 0.182923 -0.472749
Cl2   Cl    Cl    0.798622 0.388353 0.817076 -0.472743
Cl3   Cl    Cl    0.201378 0.388357 0.817075 -0.472741
Cl4   Cl    Cl    0.798623 0.611604 0.182929 -0.472750

loop_
_geom_bond_atom_site_label_1
_geom_bond_atom_site_label_2
_geom_bond_distance
_ccdc_geom_bond_type
C10   C32   1.388962 A    
C9    C11   1.401394 A    
C18   C24   1.403902 A    
C6    C12   1.454935 S    
C3    C31   1.402159 A    
C5    C11   1.454935 S    
C21   C22   1.404526 A    
C9    C31   1.388956 A    
C27   C28   1.163568 T    
C31   Cl3   1.758846 S    
C8    C30   1.388956 A    
C19   C25   1.403902 A    
C30   Cl2   1.758840 S    
O3    Zn1   1.950224 S    
O6    Zn2   1.999583 S    
C7    C29   1.388962 A    
H1    C23   1.083420 S    
C19   C21   1.409612 A    
O3    C2    1.261086 A    
C32   Cl4   1.758797 S    
N3    N4    1.193561 T    
C20   C26   1.403903 A    
O8    C5    1.278569 A    
O5    Zn1   1.999585 S    
O7    C6    1.278565 A    
C17   C21   1.409611 A    
C14   N2    1.366416 A    
Zn1   N4    1.973980 S    
C20   C22   1.409613 A    
C15   N1    1.366414 A    
C16   N2    1.366413 A    
C13   C19   1.396017 A    
C1    C27   1.363021 S    
C9    H7    1.083523 S    
C3    C29   1.402143 A    
C4    N1    1.422516 S    
C2    C28   1.363021 S    
C4    C30   1.402154 A    
C23   C26   1.391916 A    
C13   N1    1.366414 A    
C17   C23   1.403901 A    
O1    Zn1   1.951166 S    
C10   C12   1.401409 A    
O7    Zn1   1.999583 S    
O2    Zn2   1.951165 S    
O4    Zn2   1.950225 S    
C18   C22   1.409612 A    
H3    C25   1.083419 S    
C3    N2    1.422514 S    
C14   C20   1.396012 A    
O1    C1    1.261505 A    
C24   C25   1.391913 A    
H2    C24   1.083423 S    
O8    Zn2   1.999586 S    
C8    H6    1.083530 S    
O6    C6    1.278570 A    
C16   O12   1.349983 S    
C7    H5    1.083573 S    
O5    C5    1.278564 A    
C15   O11   1.349968 S    
C8    C12   1.401396 A    
H4    C26   1.083424 S    
C13   O9    1.349969 S    
O4    C1    1.261086 A    
C16   C18   1.396012 A    
C7    C11   1.401413 A    
C14   O10   1.349981 S    
O2    C2    1.261505 A    
C15   C17   1.396019 A    
C4    C32   1.402143 A    
C10   H8    1.083568 S    
Zn2   N3    1.973980 S    
C29   Cl1   1.758791 S    
