data_mof_unit_31810.cif
_audit_creation_date              2012-12-11T15:23:49-0500
_audit_creation_method            fapswitch 2.2
_symmetry_space_group_name_H-M    P1
_symmetry_Int_Tables_number       1
_space_group_crystal_system       triclinic
_cell_length_a                    17.386177
_cell_length_b                    24.547552
_cell_length_c                    15.007263
_cell_angle_alpha                 90.505101
_cell_angle_beta                  125.675864
_cell_angle_gamma                 88.542579
_cell_volume                      5201.07890627

loop_
_atom_site_label
_atom_site_type_symbol
_atom_type_description
_atom_site_fract_x
_atom_site_fract_y
_atom_site_fract_z
_atom_type_partial_charge
C1    C     C_R   0.348908 0.349573 0.911931 0.439156
C2    C     C_R   0.542706 0.500362 0.716972 -0.029294
C3    C     C_R   0.058346 0.002431 0.363821 -0.041889
C4    C     C_R   0.043107 0.000325 0.717383 -0.029139
C5    C     C_R   0.176574 0.506073 0.732123 -0.152758
C6    C     C_R   0.815828 0.497492 0.348822 -0.165034
C7    C     C_R   0.676380 0.006678 0.731010 -0.151518
C8    C     C_R   0.316272 0.997306 0.347840 -0.167253
C9    C     C_2   0.916354 0.484455 0.549061 -0.025631
C10   C     C_2   0.012480 0.477375 0.650698 -0.051660
C11   C     C_2   0.416229 0.986385 0.547292 -0.053081
C12   C     C_R   0.667283 0.354690 0.089126 0.451183
C13   C     C_2   0.511584 0.979523 0.649586 -0.028463
C14   C     C_2   0.906805 0.494386 0.453746 0.537166
C15   C     C_2   0.074481 0.516672 0.677480 0.515029
C16   C     C_2   0.407478 0.993507 0.451975 0.540632
C17   C     C_2   0.574298 0.017981 0.674324 0.503699
C18   C     C_R   0.286168 0.763482 0.897688 -0.166387
C19   C     C_R   0.807888 0.685011 0.019169 -0.163364
C20   C     C_R   0.786913 0.263695 0.897050 -0.167170
C21   C     C_R   0.307790 0.184379 0.017893 -0.162861
C22   C     C_R   0.723767 0.297960 0.898242 -0.143246
C23   C     C_R   0.847998 0.849902 0.911856 0.443063
C24   C     C_R   0.357262 0.227065 0.017722 0.035197
C25   C     C_R   0.222149 0.796964 0.898780 -0.143123
C26   C     C_R   0.856858 0.727955 0.018979 0.036540
C27   C     C_R   0.739163 0.311590 0.998321 0.095421
C28   C     C_R   0.320116 0.279678 0.003768 0.078367
C29   C     C_R   0.236813 0.810036 0.998737 0.091399
C30   C     C_R   0.818516 0.780342 0.003585 0.081157
C31   C     C_R   0.832173 0.305102 0.095550 -0.098050
C32   C     C_R   0.234416 0.291150 0.990643 -0.053255
C33   C     C_R   0.329569 0.803407 0.096415 -0.101718
C34   C     C_R   0.164622 0.853311 0.088741 0.455670
C35   C     C_R   0.732175 0.791375 0.989096 -0.050700
C36   C     C_R   0.395354 0.770404 0.094152 0.418602
C37   C     C_R   0.683481 0.748287 0.989966 0.512491
C38   C     C_R   0.897038 0.271114 0.093357 0.421036
C39   C     C_R   0.185201 0.248309 0.991393 0.512854
C40   C     C_R   0.443476 0.651573 0.089846 -0.020894
C41   C     C_R   0.589008 0.634132 0.910272 -0.028321
C42   C     C_R   0.943566 0.151663 0.089704 -0.018192
C43   C     C_R   0.088966 0.134231 0.910314 -0.029264
C44   C     C_R   0.364731 0.742697 0.996791 0.060260
C45   C     C_R   0.389466 0.685107 0.999072 0.080927
C46   C     C_R   0.722069 0.695617 0.004255 -0.065601
C47   C     C_R   0.865421 0.242869 0.996210 0.057977
C48   C     C_R   0.222636 0.195435 0.004357 -0.065410
C49   C     C_R   0.605725 0.549873 0.630786 0.421193
C50   C     C_R   0.580523 0.552464 0.524873 0.474957
C51   C     C_R   0.106493 0.049799 0.631466 0.419851
C52   C     C_R   0.081629 0.052490 0.525678 0.471118
C53   C     C_R   0.585193 0.503742 0.476312 -0.084271
C54   C     C_R   0.592745 0.500545 0.665258 -0.070203
C55   C     C_R   0.086217 0.003798 0.476946 -0.092656
C56   C     C_R   0.672275 0.651354 0.003152 0.063844
C57   C     C_R   0.093101 0.000478 0.665574 -0.068903
C58   C     C_R   0.608647 0.454350 0.534944 -0.183661
C59   C     C_R   0.605896 0.452154 0.625307 -0.156525
C60   C     C_R   0.109163 0.954344 0.535296 -0.176669
C61   C     C_R   0.106026 0.952101 0.625397 -0.154661
C62   C     C_R   0.543335 0.455923 0.301845 -0.124049
C63   C     C_R   0.519228 0.454571 0.749357 -0.121856
C64   C     C_R   0.044295 0.955990 0.302366 -0.127100
C65   C     C_R   0.019703 0.954550 0.749922 -0.120657
C66   C     C_R   0.236012 0.548303 0.759826 -0.056988
C67   C     C_R   0.889700 0.185169 0.998831 0.080593
C68   C     C_R   0.763650 0.543970 0.293133 -0.100805
C69   C     C_R   0.736190 0.048605 0.759279 -0.058675
C70   C     C_R   0.263696 0.043888 0.293272 -0.114491
C71   C     C_R   0.551736 0.546140 0.302597 0.488470
C72   C     C_R   0.503028 0.545321 0.734632 0.464725
C73   C     C_R   0.052020 0.046197 0.302690 0.489741
C74   C     C_R   0.003243 0.045290 0.734805 0.465572
C75   C     C_R   0.228974 0.457778 0.746622 0.449911
C76   C     C_R   0.761352 0.453177 0.295241 0.445184
C77   C     C_R   0.728659 0.958139 0.746353 0.450238
C78   C     C_R   0.172284 0.151421 0.003206 0.063341
C79   C     C_R   0.262318 0.953047 0.293531 0.445412
C80   C     C_R   0.357512 0.652790 0.908499 -0.105864
C81   C     C_R   0.681365 0.632653 0.094663 -0.033850
C82   C     C_R   0.857665 0.152790 0.908388 -0.107995
C83   C     C_R   0.181367 0.132674 0.094695 -0.030914
C84   C     C_R   0.435331 0.352064 0.093898 0.449988
C85   C     C_R   0.577424 0.356697 0.907070 0.340416
C86   C     C_R   0.933929 0.852634 0.093862 0.456875
C87   C     C_R   0.076005 0.855926 0.906980 0.337770
C88   C     C_R   0.370796 0.323383 0.003819 -0.230945
C89   C     C_R   0.557374 0.502363 0.363287 -0.043441
C90   C     C_R   0.660310 0.335064 0.997988 -0.116772
C91   C     C_R   0.868694 0.824281 0.003687 -0.239503
C92   C     C_R   0.157440 0.833149 0.997836 -0.108818
Cl1   Cl    Cl    0.317934 0.312646 0.795309 -0.392755
Cl2   Cl    Cl    0.575496 0.760754 0.974585 -0.593086
Cl3   Cl    Cl    0.016541 0.266613 0.208731 -0.511675
Cl4   Cl    Cl    0.077905 0.261315 0.977325 -0.593305
Cl5   Cl    Cl    0.649688 0.607870 0.715914 -0.521987
Cl6   Cl    Cl    0.512633 0.611164 0.449961 -0.405695
Cl7   Cl    Cl    0.150421 0.107716 0.716828 -0.526630
Cl8   Cl    Cl    0.013890 0.111259 0.450993 -0.403938
Cl9   Cl    Cl    0.627420 0.602170 0.358429 -0.570815
Cl10  Cl    Cl    0.440128 0.599431 0.640498 -0.509433
Cl11  Cl    Cl    0.127175 0.102468 0.357774 -0.585876
Cl12  Cl    Cl    0.683469 0.306273 0.184445 -0.453565
Cl13  Cl    Cl    0.940558 0.099405 0.640614 -0.509557
Cl14  Cl    Cl    0.176646 0.402753 0.657040 -0.467288
Cl15  Cl    Cl    0.778816 0.391183 0.361993 -0.569908
Cl16  Cl    Cl    0.675905 0.902232 0.659569 -0.466896
Cl17  Cl    Cl    0.285182 0.889077 0.355838 -0.562769
Cl18  Cl    Cl    0.506444 0.324857 0.227154 -0.548141
Cl19  Cl    Cl    0.498665 0.320630 0.785341 -0.511925
Cl20  Cl    Cl    0.002950 0.825731 0.227438 -0.552292
Cl21  Cl    Cl    0.996466 0.820857 0.784153 -0.509098
Cl22  Cl    Cl    0.817715 0.812286 0.796169 -0.389842
Cl23  Cl    Cl    0.174636 0.804811 0.180561 -0.456338
Cl24  Cl    Cl    0.002947 0.491547 0.442916 -0.505323
Cl25  Cl    Cl    0.030031 0.584640 0.631889 -0.556649
Cl26  Cl    Cl    0.503389 0.986129 0.441342 -0.496594
Cl27  Cl    Cl    0.530956 0.085611 0.623738 -0.567870
Cl28  Cl    Cl    0.514754 0.766384 0.209894 -0.510489
H1    H     H_    0.266423 0.748419 0.819241 0.164895
H2    H     H_    0.607022 0.412693 0.657518 0.159558
H3    H     H_    0.117882 0.916305 0.505164 0.178903
H4    H     H_    0.106711 0.912619 0.657227 0.159619
H5    H     H_    0.484546 0.662947 0.174779 0.213992
H6    H     H_    0.556723 0.648294 0.827766 0.208196
H7    H     H_    0.984656 0.163147 0.174580 0.214679
H8    H     H_    0.056728 0.148372 0.827810 0.208065
H9    H     H_    0.560324 0.414963 0.332584 0.209673
H10   H     H_    0.534356 0.413326 0.739997 0.166270
H11   H     H_    0.062435 0.915135 0.333591 0.208394
H12   H     H_    0.836119 0.643780 0.030309 0.174374
H13   H     H_    0.035424 0.913295 0.741337 0.165205
H14   H     H_    0.219243 0.591219 0.755373 0.177684
H15   H     H_    0.781020 0.585324 0.322352 0.192899
H16   H     H_    0.719783 0.091587 0.754540 0.178361
H17   H     H_    0.281088 0.085179 0.322906 0.192629
H18   H     H_    0.323469 0.666512 0.824974 0.135644
H19   H     H_    0.732912 0.643982 0.179026 0.141618
H20   H     H_    0.823931 0.166475 0.824902 0.135551
H21   H     H_    0.233043 0.143873 0.179110 0.141711
H22   H     H_    0.915890 0.359234 0.214699 0.195798
H23   H     H_    0.766491 0.248214 0.818606 0.164800
H24   H     H_    0.886591 0.304883 0.257234 0.245897
H25   H     H_    0.247475 0.368697 0.045038 0.137592
H26   H     H_    0.186041 0.362850 0.906775 0.128578
H27   H     H_    0.412049 0.856652 0.218320 0.200132
H28   H     H_    0.382246 0.801116 0.257522 0.247552
H29   H     H_    0.743366 0.869114 0.041862 0.138163
H30   H     H_    0.683066 0.862665 0.903855 0.130501
H31   H     H_    0.829324 0.441832 0.569240 0.160733
H32   H     H_    0.774005 0.495723 0.484004 0.147195
H33   H     H_    0.001798 0.427077 0.747909 0.135740
H34   H     H_    0.335128 0.142993 0.027955 0.174321
H35   H     H_    0.016996 0.395201 0.659695 0.216839
H36   H     H_    0.290140 0.957918 0.505582 0.155846
H37   H     H_    0.300770 0.026335 0.520397 0.177513
H38   H     H_    0.498371 0.930938 0.746841 0.143803
H39   H     H_    0.515589 0.897513 0.661671 0.219162
H40   H     H_    0.660794 0.310216 0.820099 0.187568
H41   H     H_    0.423690 0.219399 0.027978 0.179976
H42   H     H_    0.159125 0.809044 0.820544 0.188241
H43   H     H_    0.923816 0.720669 0.030308 0.181253
H44   H     H_    0.617583 0.416332 0.504922 0.179254
N1    N     N_R   0.395440 0.396300 0.944370 -0.140734
N2    N     N_R   0.474910 0.470990 0.794360 -0.054779
N3    N     N_R   0.025090 0.970990 0.205640 -0.075890
N4    N     N_R   0.974910 0.970990 0.794360 -0.054381
N5    N     N_R   0.320240 0.527820 0.794510 -0.074595
N6    N     N_R   0.679760 0.527820 0.205490 -0.079460
N7    N     N_R   0.820240 0.027820 0.794510 -0.075020
N8    N     N_R   0.179760 0.027820 0.205490 -0.076287
N9    N     N_R   0.524580 0.527810 0.205160 -0.106601
N10   N     N_R   0.475420 0.527810 0.794840 -0.100968
N11   N     N_R   0.024580 0.027810 0.205160 -0.105385
N12   N     N_R   0.604560 0.396300 0.055630 -0.123844
N13   N     N_R   0.975420 0.027810 0.794840 -0.101032
N14   N     N_R   0.320750 0.470990 0.794990 -0.076529
N15   N     N_R   0.679250 0.470990 0.205010 -0.098235
N16   N     N_R   0.820750 0.970990 0.794990 -0.076756
N17   N     N_R   0.179250 0.970990 0.205010 -0.098207
N18   N     N_R   0.393580 0.602500 0.942610 -0.068637
N19   N     N_R   0.606420 0.602500 0.057390 -0.053225
N20   N     N_R   0.893580 0.102500 0.942610 -0.068566
N21   N     N_R   0.106420 0.102500 0.057390 -0.052895
N22   N     N_R   0.451750 0.396300 0.057540 -0.122723
N23   N     N_R   0.895440 0.896300 0.944370 -0.140328
N24   N     N_R   0.548250 0.396300 0.942460 -0.113380
N25   N     N_R   0.951750 0.896300 0.057540 -0.122525
N26   N     N_R   0.048250 0.896300 0.942460 -0.114471
N27   N     N_3   0.860860 0.333462 0.194004 -0.166982
N28   N     N_3   0.197349 0.345777 0.977187 -0.156149
N29   N     N_3   0.357023 0.830444 0.195659 -0.162325
N30   N     N_3   0.693996 0.845809 0.974229 -0.155898
N31   N     N_3   0.837296 0.482416 0.556239 -0.181195
N32   N     N_3   0.039657 0.428004 0.713719 -0.210835
N33   N     N_3   0.336494 0.988931 0.553015 -0.197771
N34   N     N_R   0.104560 0.896300 0.055630 -0.125677
N35   N     N_3   0.537619 0.930866 0.714325 -0.210363
N36   N     N_R   0.449890 0.602500 0.055780 -0.065369
N37   N     N_R   0.550110 0.602500 0.944220 -0.072536
N38   N     N_R   0.949890 0.102500 0.055780 -0.065036
N39   N     N_R   0.050110 0.102500 0.944220 -0.072780
N40   N     N_R   0.525090 0.470990 0.205640 -0.075457
Ni1   Ni    Ni4+2 0.435420 0.434250 0.870220 0.335213
Ni2   Ni    Ni4+2 0.564580 0.434250 0.129780 0.293941
Ni3   Ni    Ni4+2 0.935420 0.934250 0.870220 0.335521
Ni4   Ni    Ni4+2 0.064580 0.934250 0.129780 0.291261
Ni5   Ni    Ni4+2 0.563400 0.564580 0.128670 0.269848
Ni6   Ni    Ni4+2 0.436600 0.564580 0.871330 0.270280
Ni7   Ni    Ni4+2 0.063400 0.064580 0.128670 0.269826
Ni8   Ni    Ni4+2 0.936600 0.064580 0.871330 0.269821

loop_
_geom_bond_atom_site_label_1
_geom_bond_atom_site_label_2
_ccdc_geom_bond_type
C23   N23   A    
C62   C89   A    
C73   N11   A    
C31   N27   S    
N5    N14   A    
C66   N5    A    
C84   N22   A    
H36   N33   S    
C20   H23   S    
N38   Ni7   S    
C76   N15   A    
C58   H44   S    
C19   C46   A    
C56   C81   A    
C3    C64   A    
C2    C63   A    
C43   C78   A    
H33   N32   S    
C65   N4    A    
C7    C77   A    
C30   C35   A    
C61   H4    S    
C70   H17   S    
N13   Ni8   S    
C12   C90   A    
C35   C37   A    
C12   Cl12  S    
C64   N3    A    
C10   N32   S    
C10   C15   D    
C4    C65   A    
C80   H18   S    
C32   C39   A    
N5    Ni6   S    
N25   Ni4   S    
H31   N31   S    
N4    N13   A    
N14   Ni1   S    
C82   N20   A    
C26   H43   S    
N18   Ni6   S    
C33   C36   A    
C32   N28   S    
C27   C90   S    
C69   N7    A    
C63   H10   S    
C48   C78   S    
C19   C26   A    
C75   N14   A    
C70   N8    A    
H30   N30   S    
C82   H20   S    
H35   N32   S    
C35   N30   S    
C66   H14   S    
C3    C55   S    
C78   C83   A    
C63   N2    A    
C24   H41   S    
C29   C33   A    
C7    C17   S    
C38   Cl3   S    
C28   C88   S    
C8    C79   A    
C21   H34   S    
N21   Ni7   S    
N12   N24   A    
C51   C57   A    
N2    Ni1   S    
C80   N18   A    
N16   Ni3   S    
C74   N13   A    
C9    C10   S    
C4    C74   A    
C52   C55   A    
C12   N12   A    
C21   C48   A    
N8    Ni7   S    
C59   H2    S    
C6    C68   A    
C71   Cl9   S    
N15   Ni2   S    
C33   N29   S    
N11   Ni7   S    
C8    C16   S    
N7    N16   A    
C87   C92   A    
C4    C57   S    
C25   C29   A    
C62   H9    S    
H26   N28   S    
C18   C25   A    
C68   N6    A    
C2    C72   A    
N8    N17   A    
C47   C67   S    
N20   Ni8   S    
C54   C59   A    
C68   H15   S    
C51   Cl7   S    
C40   C45   A    
N24   Ni1   S    
C50   Cl6   S    
C50   C53   A    
N20   N38   A    
N22   Ni2   S    
C27   C31   A    
C51   C52   A    
C77   N16   A    
C24   C28   A    
C28   C32   A    
N17   Ni4   S    
N18   N36   A    
C72   Cl10  S    
C2    C54   S    
C83   H21   S    
C79   Cl17  S    
C5    C66   A    
C40   N36   A    
C34   Cl23  S    
N34   Ni4   S    
C52   Cl8   S    
C84   Cl18  S    
C79   N17   A    
C60   C61   A    
N19   N37   A    
C5    C75   A    
C60   H3    S    
C86   Cl20  S    
C9    C14   D    
C11   N33   S    
C41   C56   A    
C18   C44   A    
H29   N30   S    
C6    C14   S    
C85   N24   A    
C11   C16   D    
C34   N34   A    
C71   C89   A    
C64   H11   S    
C1    N1    A    
C25   H42   S    
C53   C58   A    
C5    C15   S    
H38   N35   S    
N4    Ni3   S    
C40   H5    S    
C6    C76   A    
C62   N40   A    
C38   C47   A    
C42   H7    S    
C67   C82   A    
C87   N26   A    
N40   Ni2   S    
C16   Cl26  S    
C26   C30   A    
C76   Cl15  S    
C72   N10   A    
C22   C27   A    
N9    N40   A    
H25   N28   S    
C53   C89   S    
C42   C67   A    
C23   C91   A    
N39   Ni8   S    
C42   N38   A    
N19   Ni5   S    
C81   N19   A    
C41   N37   A    
N37   Ni6   S    
C44   C45   S    
N26   N34   A    
N3    N11   A    
N12   Ni2   S    
C19   H12   S    
C81   H19   S    
C86   N25   A    
C13   N35   S    
H32   N31   S    
N10   Ni6   S    
C41   H6    S    
C77   Cl16  S    
N9    Ni5   S    
C84   C88   A    
C20   C22   A    
C30   C91   S    
C85   Cl19  S    
C46   C56   S    
C43   H8    S    
C7    C69   A    
C85   C90   A    
C9    N31   S    
C57   C61   A    
H24   N27   S    
C69   H16   S    
N2    N10   A    
C8    C70   A    
N36   Ni5   S    
C31   C38   A    
C13   C17   D    
N6    N15   A    
C86   C91   A    
C87   Cl21  S    
C15   Cl25  S    
N3    Ni4   S    
N21   N39   A    
C58   C59   A    
H28   N29   S    
C23   Cl22  S    
C43   N39   A    
N7    Ni8   S    
C11   C13   S    
N6    Ni5   S    
C22   H40   S    
C1    C88   A    
C14   Cl24  S    
H22   N27   S    
H39   N35   S    
C37   Cl2   S    
H27   N29   S    
C45   C80   A    
H37   N33   S    
C29   C92   S    
C3    C73   A    
C34   C92   A    
C39   Cl4   S    
N23   N25   A    
C20   C47   A    
C36   C44   A    
C17   Cl27  S    
C18   H1    S    
C49   Cl5   S    
C71   N9    A    
N26   Ni3   S    
C73   Cl11  S    
C75   Cl14  S    
C1    Cl1   S    
C49   C50   A    
C21   C24   A    
N23   Ni3   S    
C83   N21   A    
C37   C46   A    
C55   C60   A    
N1    Ni1   S    
C36   Cl28  S    
C65   H13   S    
C49   C54   A    
N1    N22   A    
C39   C48   A    
C74   Cl13  S    
