data_mof_unit_16098.cif
_audit_creation_date              2012-12-11T17:02:20-0500
_audit_creation_method            fapswitch 2.2
_symmetry_space_group_name_H-M    P1
_symmetry_Int_Tables_number       1
_space_group_crystal_system       triclinic
_cell_length_a                    21.709169
_cell_length_b                    7.057707
_cell_length_c                    15.009459
_cell_angle_alpha                 89.999746
_cell_angle_beta                  107.25792
_cell_angle_gamma                 89.999909
_cell_volume                      2196.16850613

loop_
_atom_site_label
_atom_site_type_symbol
_atom_type_description
_atom_site_fract_x
_atom_site_fract_y
_atom_site_fract_z
_atom_type_partial_charge
O1    O     O_R   0.585850 0.505770 0.002130 -0.537127
O2    O     O_R   0.414150 0.005770 0.997870 -0.537128
O3    O     O_R   0.467530 0.173560 0.861970 -0.542624
O4    O     O_R   0.532470 0.673560 0.138030 -0.542622
C1    C     C_R   0.457765 0.345349 0.824975 0.712175
C2    C     C_R   0.542235 0.845348 0.175025 0.712176
O5    O     O_R   0.588690 0.175900 0.993250 -0.531337
O6    O     O_R   0.411310 0.675900 0.006750 -0.531339
O7    O     O_R   0.536170 0.007950 0.130090 -0.528111
O8    O     O_R   0.463830 0.507950 0.869910 -0.528113
C3    C     C_R   0.615093 0.345354 0.997301 0.710353
C4    C     C_R   0.384906 0.845354 0.002698 0.710350
O9    O     O_3   0.482630 0.339970 0.044740 -0.372107
O10   O     O_3   0.517370 0.839970 0.955260 -0.372107
V1    V     V_3+5 0.503220 0.064200 0.991700 1.475416
V2    V     V_3+5 0.496780 0.564200 0.008300 1.475419
C5    C     C_R   0.276008 0.009117 0.959669 0.046168
C6    C     C_R   0.723991 0.509119 0.040327 0.046172
C7    C     C_R   0.315912 0.855830 0.000814 -0.118238
C8    C     C_R   0.684087 0.355831 0.999183 -0.118235
C9    C     C_R   0.286803 0.706263 0.035991 -0.138323
C10   C     C_R   0.713197 0.206266 0.964006 -0.138323
H1    H     H_    0.315153 0.584833 0.068002 0.124737
H2    H     H_    0.684847 0.084837 0.931995 0.124738
C11   C     C_R   0.221574 0.715614 0.034510 -0.104605
C12   C     C_R   0.778426 0.215616 0.965488 -0.104601
H3    H     H_    0.201838 0.600884 0.065309 0.128396
H4    H     H_    0.798162 0.100887 0.934689 0.128396
C13   C     C_R   0.183416 0.875799 0.998590 -0.134598
C14   C     C_R   0.816583 0.375800 0.001409 -0.134595
C15   C     C_R   0.211810 0.018483 0.959819 0.082177
C16   C     C_R   0.788189 0.518484 0.040177 0.082174
C17   C     C_3   0.214311 0.224840 0.979236 0.222331
C18   C     C_3   0.785688 0.724840 0.020759 0.222334
C19   C     C_3   0.284574 0.217465 0.978525 -0.028855
C20   C     C_3   0.715424 0.717466 0.021467 -0.028860
H5    H     H_    0.209057 0.257116 0.049123 0.030010
H6    H     H_    0.790943 0.757116 0.950872 0.030010
H7    H     H_    0.319426 0.246090 0.048152 0.065251
H8    H     H_    0.680574 0.746089 0.951839 0.065250
C21   C     C_R   0.926145 0.876235 0.724252 -0.036195
C22   C     C_R   0.073853 0.376226 0.275748 -0.036204
C23   C     C_R   0.567204 0.860742 0.276939 -0.042426
C24   C     C_R   0.432796 0.360752 0.723061 -0.042440
C25   C     C_R   0.930663 0.743623 0.578165 -0.158274
C26   C     C_R   0.069344 0.243533 0.421823 -0.158273
C27   C     C_R   0.961327 0.793693 0.670255 -0.146484
C28   C     C_R   0.038677 0.293630 0.329738 -0.146488
C29   C     C_R   0.860145 0.911524 0.685579 -0.220271
C30   C     C_R   0.139851 0.411549 0.314427 -0.220274
C31   C     C_R   0.827431 0.859824 0.592261 0.085622
C32   C     C_R   0.172568 0.359822 0.407741 0.085617
C33   C     C_R   0.864072 0.772033 0.539499 0.119720
C34   C     C_R   0.135932 0.271970 0.460493 0.119721
C35   C     C_R   0.759660 0.888196 0.550400 0.060753
C36   C     C_R   0.240337 0.388222 0.449604 0.060748
C37   C     C_R   0.729370 0.820364 0.457807 0.045696
C38   C     C_R   0.270632 0.320353 0.542190 0.045699
C39   C     C_R   0.768067 0.730306 0.409450 -0.151675
C40   C     C_R   0.231940 0.230230 0.590537 -0.151666
C41   C     C_R   0.834003 0.709178 0.449187 -0.167737
C42   C     C_R   0.166005 0.209077 0.550798 -0.167733
C43   C     C_R   0.721502 0.985990 0.597117 -0.190674
C44   C     C_R   0.278489 0.486078 0.402897 -0.190673
C45   C     C_R   0.656637 0.022024 0.554081 -0.206042
C46   C     C_R   0.343352 0.522126 0.445934 -0.206039
C47   C     C_R   0.626944 0.961539 0.463169 0.142025
C48   C     C_R   0.373050 0.461602 0.536839 0.142022
C49   C     C_R   0.662018 0.853614 0.414857 0.081879
C50   C     C_R   0.337981 0.353628 0.585142 0.081877
C51   C     C_R   0.562861 0.014699 0.418769 -0.165398
C52   C     C_R   0.437131 0.514777 0.581241 -0.165396
C53   C     C_R   0.534137 0.970769 0.325207 -0.179286
C54   C     C_R   0.465858 0.470817 0.674799 -0.179277
C55   C     C_R   0.628827 0.792290 0.323335 -0.184496
C56   C     C_R   0.371176 0.292284 0.676661 -0.184496
H9    H     H_    0.861727 0.641119 0.408827 0.148284
H10   H     H_    0.138286 0.140967 0.591149 0.148272
H11   H     H_    0.650574 0.699812 0.284391 0.132799
H12   H     H_    0.349433 0.199786 0.715602 0.132799
H13   H     H_    0.486446 0.025073 0.289899 0.104565
H14   H     H_    0.513547 0.525135 0.710110 0.104570
H15   H     H_    0.629839 0.102836 0.591637 0.120394
H16   H     H_    0.370144 0.602982 0.408386 0.120395
H17   H     H_    0.958706 0.676837 0.537946 0.127621
H18   H     H_    0.041305 0.176700 0.462035 0.127622
H19   H     H_    0.012116 0.762155 0.700500 0.138453
H20   H     H_    0.987890 0.262067 0.299490 0.138460
H21   H     H_    0.835329 0.968463 0.732036 0.087284
H22   H     H_    0.164663 0.468529 0.267976 0.087292
H23   H     H_    0.749310 0.677567 0.339383 0.159329
H24   H     H_    0.250701 0.177451 0.660596 0.159310
H25   H     H_    0.740721 0.043312 0.666274 0.117833
H26   H     H_    0.259265 0.543436 0.333747 0.117835
H27   H     H_    0.536156 0.099249 0.455010 0.117235
H28   H     H_    0.463830 0.599363 0.545006 0.117235
O11   O     O_R   0.036080 0.231270 0.130120 -0.542475
O12   O     O_R   0.963920 0.731270 0.869880 -0.542473
O13   O     O_R   0.911300 0.558970 0.006750 -0.530089
O14   O     O_R   0.088700 0.058970 0.993250 -0.530089
C57   C     C_R   0.884617 0.389678 0.000418 0.707489
C58   C     C_R   0.115383 0.889678 0.999582 0.707487
O15   O     O_R   0.032450 0.561140 0.138040 -0.539232
O16   O     O_R   0.967550 0.061140 0.861960 -0.539232
O17   O     O_R   0.085870 0.728910 0.002130 -0.532517
O18   O     O_R   0.914130 0.228910 0.997870 -0.532517
C59   C     C_R   0.044908 0.391780 0.174931 0.691149
C60   C     C_R   0.955092 0.891782 0.825069 0.691153
O19   O     O_3   0.017320 0.394650 0.955270 -0.355613
O20   O     O_3   0.982680 0.894650 0.044730 -0.355615
V3    V     V_3+5 0.996780 0.670490 0.008300 1.527249
V4    V     V_3+5 0.003220 0.170490 0.991700 1.527251
Cl1   Cl    Cl    0.157842 0.348536 0.885867 -0.589581
Cl2   Cl    Cl    0.842156 0.848535 0.114129 -0.589595
I1    I     I_    0.305931 0.365340 0.866809 -0.337987
I2    I     I_    0.694065 0.865347 0.133179 -0.338002

loop_
_geom_bond_atom_site_label_1
_geom_bond_atom_site_label_2
_ccdc_geom_bond_type
C23   C53   A    
C46   C48   A    
C43   C45   A    
C21   C60   S    
C25   H17   S    
O1    C3    A    
O2    C4    A    
C2    O7    A    
O18   V4    S    
O5    C3    A    
C40   C42   A    
C7    C9    A    
O19   V3    S    
C52   H28   S    
C37   C39   A    
C51   H27   S    
C38   C40   A    
O12   C60   A    
C14   C57   S    
C58   O17   A    
O15   V3    S    
C53   H13   S    
C24   C56   A    
O20   V3    S    
C17   C19   S    
C33   C41   A    
C30   H22   S    
C41   H9    S    
C45   C47   A    
C35   C43   A    
C30   C32   A    
C28   H20   S    
C19   I1    S    
C22   C59   S    
C47   C51   A    
C48   C52   A    
O5    V1    S    
O17   V3    S    
C25   C33   A    
O6    V2    S    
C23   C55   A    
C54   H14   S    
C21   C29   A    
C32   C34   A    
C25   C27   A    
C11   C13   A    
C18   Cl2   S    
C26   C28   A    
C3    C8    S    
C39   C41   A    
C15   C17   S    
C20   H8    S    
C52   C54   A    
O19   V4    S    
C51   C53   A    
O11   V4    S    
C38   C50   A    
C22   C28   A    
C34   C42   A    
C31   C35   A    
C29   C31   A    
C17   H5    S    
C31   C33   A    
C16   C18   S    
O4    V2    S    
C19   H7    S    
O6    C4    A    
O13   V3    S    
C26   C34   A    
C36   C44   A    
C21   C27   A    
O1    V2    S    
C39   H23   S    
C24   C54   A    
O2    V1    S    
C22   C30   A    
O4    C2    A    
O13   C57   A    
C1    C24   S    
C8    C10   A    
O14   V4    S    
C2    C23   S    
C35   C37   A    
C50   C56   A    
C5    C15   A    
C10   H2    S    
C6    C16   A    
C20   I2    S    
O16   C60   A    
O3    V1    S    
O16   V4    S    
O14   C58   A    
C57   O18   A    
C9    C11   A    
O12   V3    S    
C18   H6    S    
C17   Cl1   S    
C42   H10   S    
C56   H12   S    
C29   H21   S    
O3    C1    A    
C12   C14   A    
C11   H3    S    
C43   H25   S    
C12   H4    S    
C37   C49   A    
C9    H1    S    
O7    V1    S    
C44   H26   S    
C1    O8    A    
C13   C15   A    
O8    V2    S    
C14   C16   A    
C6    C20   S    
C4    C7    S    
C5    C7    A    
C18   C20   S    
C36   C38   A    
C13   C58   S    
C49   C55   A    
C6    C8    A    
O20   V4    S    
C45   H15   S    
C46   H16   S    
O11   C59   A    
C48   C50   A    
C10   C12   A    
O9    V2    S    
O10   V1    S    
O15   C59   A    
C5    C19   S    
C47   C49   A    
C40   H24   S    
C55   H11   S    
C32   C36   A    
C44   C46   A    
C26   H18   S    
C27   H19   S    
