data_mof_unit_64986.cif
_audit_creation_date              2012-12-10T18:33:15-0500
_audit_creation_method            fapswitch 2.2
_symmetry_space_group_name_H-M    P1
_symmetry_Int_Tables_number       1
_space_group_crystal_system       triclinic
_cell_length_a                    18.205038
_cell_length_b                    18.205086
_cell_length_c                    59.915139
_cell_angle_alpha                 89.999829
_cell_angle_beta                  89.999845
_cell_angle_gamma                 89.99893
_cell_volume                      19857.3319457

loop_
_atom_site_label
_atom_site_type_symbol
_atom_type_description
_atom_site_fract_x
_atom_site_fract_y
_atom_site_fract_z
_atom_type_partial_charge
C1    C     C_R   0.500000 0.000000 0.689378 0.795587
C2    C     C_R   1.000000 0.500001 0.117876 0.314497
C3    C     C_R   0.125079 0.547432 0.975563 -0.213250
C4    C     C_R   0.556785 0.878881 0.975597 -0.213189
C5    C     C_R   0.120743 0.557578 0.024403 -0.213182
C6    C     C_R   0.443214 0.121119 0.975597 -0.213189
C7    C     C_R   0.879257 0.442423 0.024403 -0.213182
C8    C     C_R   0.641362 0.141299 0.750018 0.746320
C9    C     C_R   0.141397 0.358737 0.250027 0.746008
C10   C     C_R   0.358638 0.858701 0.750018 0.746319
C11   C     C_R   0.858603 0.641263 0.250027 0.746010
C12   C     C_R   0.358737 0.141397 0.250027 0.746143
C13   C     C_R   0.500001 0.000000 0.117887 0.316897
C14   C     C_R   0.858701 0.358638 0.750018 0.746476
C15   C     C_R   0.641263 0.858603 0.250027 0.746146
C16   C     C_R   0.141299 0.641362 0.750018 0.746476
C17   C     C_R   0.141361 0.641300 0.250018 0.746478
C18   C     C_R   0.641396 0.858737 0.750027 0.746089
C19   C     C_R   0.858638 0.358700 0.250018 0.746478
C20   C     C_R   0.358603 0.141263 0.750027 0.746092
C21   C     C_R   0.858736 0.641397 0.750027 0.745966
C22   C     C_R   0.358700 0.858639 0.250018 0.746378
C23   C     C_R   0.141263 0.358603 0.750027 0.745968
C24   C     C_R   0.000000 0.499999 0.882113 0.316973
C25   C     C_R   0.641300 0.141361 0.250018 0.746378
C26   C     C_3   0.665786 0.725801 0.756536 -0.397992
C27   C     C_3   0.739498 0.320072 0.267218 -0.383648
C28   C     C_3   0.334213 0.274198 0.756537 -0.397994
C29   C     C_3   0.260502 0.679927 0.267218 -0.383646
C30   C     C_3   0.320072 0.739498 0.267218 -0.383624
C31   C     C_3   0.274198 0.334213 0.756537 -0.398037
C32   C     C_3   0.679927 0.260502 0.267218 -0.383621
C33   C     C_3   0.725801 0.665786 0.756536 -0.398037
C34   C     C_3   0.165787 0.225802 0.256537 -0.398060
C35   C     C_R   0.999999 0.500000 0.382112 0.316425
C36   C     C_3   0.239496 0.820074 0.767217 -0.383977
C37   C     C_3   0.834213 0.774198 0.256537 -0.398059
C38   C     C_3   0.760512 0.179918 0.767213 -0.383975
C39   C     C_3   0.820082 0.239488 0.767213 -0.383822
C40   C     C_3   0.774198 0.834213 0.256537 -0.398118
C41   C     C_3   0.179926 0.760503 0.767217 -0.383819
C42   C     C_3   0.225802 0.165787 0.256537 -0.398119
C43   C     C_3   0.734846 0.794860 0.726664 -0.395278
C44   C     C_3   0.834312 0.225708 0.256497 -0.397979
C45   C     C_3   0.265157 0.205143 0.726664 -0.395276
C46   C     C_R   0.500000 0.000001 0.617878 0.313946
C47   C     C_3   0.165687 0.774292 0.256497 -0.397982
C48   C     C_3   0.225708 0.834312 0.256497 -0.397941
C49   C     C_3   0.205143 0.265157 0.726664 -0.395231
C50   C     C_3   0.774292 0.165688 0.256497 -0.397942
C51   C     C_3   0.794860 0.734846 0.726664 -0.395227
C52   C     C_3   0.234844 0.294858 0.226664 -0.394832
C53   C     C_3   0.334312 0.725709 0.756498 -0.398080
C54   C     C_3   0.765156 0.705142 0.226664 -0.394835
C55   C     C_3   0.665691 0.274288 0.756502 -0.398082
C56   C     C_3   0.725712 0.334308 0.756502 -0.398007
C57   C     C_R   0.000001 0.500000 0.617878 0.313955
C58   C     C_3   0.705141 0.765156 0.226664 -0.394206
C59   C     C_3   0.274292 0.665688 0.756498 -0.398005
C60   C     C_3   0.294858 0.234844 0.226664 -0.394209
C61   C     C_3   0.760598 0.820185 0.767239 -0.383782
C62   C     C_3   0.765225 0.294794 0.226638 -0.393961
C63   C     C_3   0.239400 0.179812 0.767238 -0.383782
C64   C     C_3   0.234775 0.705207 0.226638 -0.393964
C65   C     C_3   0.294794 0.765225 0.226638 -0.394524
C66   C     C_3   0.179812 0.239400 0.767238 -0.383964
C67   C     C_3   0.705207 0.234776 0.226638 -0.394526
C68   C     C_R   0.500001 0.999999 0.382112 0.316429
C69   C     C_3   0.820186 0.760598 0.767239 -0.383965
C70   C     C_3   0.260599 0.320187 0.267238 -0.384147
C71   C     C_3   0.265226 0.794793 0.726638 -0.393525
C72   C     C_3   0.739400 0.679813 0.267238 -0.384146
C73   C     C_3   0.734765 0.205218 0.726636 -0.393527
C74   C     C_3   0.794783 0.265236 0.726636 -0.393588
C75   C     C_3   0.679812 0.739401 0.267238 -0.384170
C76   C     C_3   0.205208 0.734774 0.726638 -0.393593
C77   C     C_3   0.320187 0.260599 0.267238 -0.384168
C78   C     C_3   0.699349 0.801192 0.750115 0.200121
C79   C     C_R   0.499999 1.000000 0.952669 -0.050067
C80   C     C_3   0.800736 0.301105 0.250087 0.198914
C81   C     C_3   0.300650 0.198808 0.750115 0.200121
C82   C     C_3   0.199264 0.698895 0.250087 0.198914
C83   C     C_3   0.301105 0.800736 0.250087 0.199165
C84   C     C_3   0.198808 0.300650 0.750115 0.200243
C85   C     C_3   0.698895 0.199264 0.250087 0.199164
C86   C     C_3   0.801192 0.699349 0.750115 0.200243
C87   C     C_3   0.199350 0.301192 0.250115 0.200032
C88   C     C_3   0.300735 0.801105 0.750087 0.198869
C89   C     C_3   0.800650 0.698808 0.250115 0.200032
C90   C     C_R   1.000000 0.500001 0.047332 -0.050062
C91   C     C_3   0.699265 0.198894 0.750086 0.198869
C92   C     C_3   0.801106 0.300735 0.750087 0.198740
C93   C     C_3   0.698808 0.800650 0.250115 0.199751
C94   C     C_3   0.198895 0.699264 0.750087 0.198739
C95   C     C_3   0.301192 0.199350 0.250115 0.199752
C96   C     C_R   0.527801 0.940730 0.917314 0.503448
C97   C     C_R   0.940912 0.471816 0.082686 0.503548
C98   C     C_R   0.472197 0.059269 0.917314 0.503448
C99   C     C_R   0.059088 0.528187 0.082686 0.503549
C100  C     C_R   0.522580 0.938551 0.082721 0.503737
C101  C     C_R   0.500001 0.000000 0.047367 -0.049949
C102  C     C_R   0.061319 0.522929 0.917280 0.503610
C103  C     C_R   0.477422 0.061450 0.082721 0.503736
C104  C     C_R   0.938681 0.477068 0.917280 0.503610
C105  C     C_R   0.976312 0.438970 0.417282 0.503380
C106  C     C_R   0.441247 0.971122 0.582686 0.503275
C107  C     C_R   0.023685 0.561031 0.417281 0.503380
C108  C     C_R   0.558752 0.028881 0.582685 0.503274
C109  C     C_R   0.971128 0.441245 0.582686 0.503275
C110  C     C_R   0.561030 0.023691 0.417281 0.503380
C111  C     C_R   0.028875 0.558755 0.582686 0.503276
C112  C     C_R   1.000000 0.500000 0.310622 0.795980
C113  C     C_R   1.000000 0.499999 0.952634 -0.049977
C114  C     C_R   0.438972 0.976306 0.417282 0.503380
C115  C     C_R   0.433468 0.998479 0.870384 -0.108676
C116  C     C_R   0.001831 0.433477 0.129617 -0.108440
C117  C     C_R   0.566530 0.001521 0.870384 -0.108676
C118  C     C_R   0.998169 0.566524 0.129617 -0.108439
C119  C     C_R   0.433480 0.001995 0.129616 -0.109225
C120  C     C_R   0.001796 0.566525 0.870384 -0.109358
C121  C     C_R   0.566521 0.998005 0.129616 -0.109225
C122  C     C_R   0.998204 0.433473 0.870384 -0.109358
C123  C     C_R   0.933461 0.498720 0.370382 -0.109302
C124  C     C_R   0.999999 0.500000 0.452635 -0.049934
C125  C     C_R   0.502327 0.933493 0.629620 -0.108394
C126  C     C_R   0.066537 0.501281 0.370382 -0.109302
C127  C     C_R   0.497673 0.066509 0.629620 -0.108394
C128  C     C_R   0.933492 0.502328 0.629620 -0.108397
C129  C     C_R   0.501271 0.066537 0.370382 -0.109304
C130  C     C_R   0.066509 0.497671 0.629620 -0.108396
C131  C     C_R   0.498730 0.933461 0.370382 -0.109304
C132  C     C_R   0.433393 0.998520 0.847102 -0.219520
C133  C     C_R   0.001783 0.433402 0.152899 -0.219104
C134  C     C_R   0.566606 0.001480 0.847102 -0.219521
C135  C     C_R   0.500000 0.000001 0.547331 -0.050031
C136  C     C_R   0.998217 0.566599 0.152899 -0.219104
C137  C     C_R   0.433401 0.001943 0.152898 -0.218498
C138  C     C_R   0.001750 0.566604 0.847101 -0.219000
C139  C     C_R   0.566600 0.998057 0.152898 -0.218498
C140  C     C_R   0.998250 0.433394 0.847101 -0.218999
C141  C     C_R   0.933383 0.498753 0.347100 -0.219049
C142  C     C_R   0.502266 0.933417 0.652901 -0.219146
C143  C     C_R   0.066615 0.501247 0.347100 -0.219050
C144  C     C_R   0.497734 0.066585 0.652902 -0.219146
C145  C     C_R   0.933417 0.502268 0.652901 -0.219144
C146  C     C_R   0.000001 0.500000 0.547332 -0.050030
C147  C     C_R   0.501237 0.066615 0.347100 -0.219050
C148  C     C_R   0.066585 0.497732 0.652902 -0.219144
C149  C     C_R   0.498763 0.933383 0.347100 -0.219048
C150  C     C_R   0.500000 0.999999 0.452635 -0.049936
C151  C     C_R   0.528432 0.939703 0.940756 -0.022529
C152  C     C_R   0.939890 0.471174 0.059244 -0.022544
C153  C     C_R   0.471566 0.060297 0.940756 -0.022529
C154  C     C_R   0.060109 0.528827 0.059244 -0.022544
C155  C     C_R   0.523155 0.937478 0.059279 -0.022830
C156  C     C_R   0.500000 1.000000 0.310622 0.795973
C157  C     C_R   0.062385 0.523519 0.940722 -0.022773
C158  C     C_R   0.476847 0.062522 0.059279 -0.022830
C159  C     C_R   0.937615 0.476479 0.940722 -0.022774
C160  C     C_R   0.975696 0.437917 0.440723 -0.022629
C161  C     C_R   0.440242 0.970452 0.559244 -0.022350
C162  C     C_R   0.024301 0.562084 0.440723 -0.022628
C163  C     C_R   0.559757 0.029550 0.559244 -0.022351
C164  C     C_R   0.970459 0.440239 0.559244 -0.022352
C165  C     C_R   0.562082 0.024306 0.440723 -0.022628
C166  C     C_R   0.029543 0.559760 0.559244 -0.022352
C167  C     C_R   0.000000 0.500000 0.689378 0.795584
C168  C     C_R   0.437919 0.975692 0.440723 -0.022629
C169  C     C_R   0.557018 0.879837 0.952421 -0.137765
C170  C     C_R   0.880216 0.442193 0.047579 -0.137659
C171  C     C_R   0.442980 0.120162 0.952421 -0.137766
C172  C     C_R   0.119783 0.557809 0.047578 -0.137659
C173  C     C_R   0.545821 0.875132 0.047615 -0.137757
C174  C     C_R   0.124595 0.546555 0.952387 -0.137846
C175  C     C_R   0.454180 0.124868 0.047615 -0.137757
C176  C     C_R   0.875405 0.453443 0.952387 -0.137846
C177  C     C_R   0.951865 0.376007 0.452388 -0.137701
C178  C     C_R   1.000000 0.500000 0.189377 0.795630
C179  C     C_R   0.380929 0.940737 0.547579 -0.137619
C180  C     C_R   0.048133 0.623994 0.452387 -0.137702
C181  C     C_R   0.619071 0.059265 0.547579 -0.137618
C182  C     C_R   0.940753 0.380921 0.547579 -0.137619
C183  C     C_R   0.623991 0.048141 0.452387 -0.137701
C184  C     C_R   0.059249 0.619078 0.547579 -0.137620
C185  C     C_R   0.376009 0.951857 0.452388 -0.137701
C186  C     C_R   0.500000 0.000000 0.835233 -0.011482
C187  C     C_R   1.000000 0.500000 0.164768 -0.011638
C188  C     C_R   0.500000 0.000000 0.164768 -0.011573
C189  C     C_R   0.500000 0.000000 0.810623 0.795949
C190  C     C_R   0.000000 0.499999 0.835232 -0.011414
C191  C     C_R   0.999999 0.500000 0.335231 -0.011427
C192  C     C_R   0.500000 0.000001 0.664770 -0.011625
C193  C     C_R   0.000000 0.500000 0.664770 -0.011624
C194  C     C_R   0.500000 0.999999 0.335231 -0.011425
C195  C     C_R   0.971403 0.438433 0.511850 0.044606
C196  C     C_R   0.437414 0.973706 0.488116 0.044504
C197  C     C_R   0.028597 0.561567 0.511850 0.044607
C198  C     C_R   0.562587 0.026293 0.488116 0.044504
C199  C     C_R   0.973711 0.437412 0.488116 0.044504
C200  C     C_R   0.000000 0.500000 0.810622 0.795958
C201  C     C_R   0.561564 0.028605 0.511850 0.044606
C202  C     C_R   0.026288 0.562589 0.488116 0.044505
C203  C     C_R   0.438436 0.971396 0.511850 0.044607
C204  C     C_R   0.525111 0.936930 0.011885 0.044048
C205  C     C_R   0.937086 0.474503 0.988116 0.044060
C206  C     C_R   0.474890 0.063070 0.011885 0.044047
C207  C     C_R   0.062914 0.525497 0.988116 0.044060
C208  C     C_R   0.527437 0.937907 0.988151 0.044045
C209  C     C_R   0.061914 0.527834 0.011849 0.044039
C210  C     C_R   0.472562 0.062093 0.988151 0.044045
C211  C     C_R   0.500000 0.000000 0.189377 0.795633
C212  C     C_R   0.938085 0.472166 0.011850 0.044039
C213  C     C_R   0.000000 0.500000 0.523575 0.071651
C214  C     C_R   0.500000 0.999999 0.476391 0.071717
C215  C     C_R   0.999999 0.500000 0.476391 0.071716
C216  C     C_R   0.500000 0.000001 0.523575 0.071651
C217  C     C_R   0.500000 0.000000 0.023610 0.071844
C218  C     C_R   1.000000 0.499999 0.976391 0.071830
C219  C     C_R   0.500000 1.000000 0.976425 0.071758
C220  C     C_R   1.000000 0.500000 0.023575 0.071776
C221  C     C_R   0.940954 0.379967 0.524404 -0.213106
C222  C     C_R   0.499999 1.000000 0.882124 0.314883
C223  C     C_R   0.375537 0.950969 0.475563 -0.213145
C224  C     C_R   0.059046 0.620033 0.524403 -0.213108
C225  C     C_R   0.624463 0.049029 0.475563 -0.213146
C226  C     C_R   0.950977 0.375534 0.475563 -0.213144
C227  C     C_R   0.620025 0.059063 0.524403 -0.213108
C228  C     C_R   0.049021 0.624466 0.475563 -0.213145
C229  C     C_R   0.379975 0.940938 0.524403 -0.213109
C230  C     C_R   0.546685 0.874638 0.024439 -0.213228
C231  C     C_R   0.874921 0.452566 0.975563 -0.213249
C232  C     C_R   0.453316 0.125362 0.024439 -0.213228
H1    H     H_    0.621813 0.710429 0.744504 0.178669
H2    H     H_    0.263271 0.824750 0.784282 0.179423
H3    H     H_    0.166343 0.581113 0.056340 0.190198
H4    H     H_    0.563047 0.825998 0.056377 0.190183
H5    H     H_    0.173627 0.564066 0.943625 0.190151
H6    H     H_    0.436954 0.174002 0.056377 0.190183
H7    H     H_    0.826372 0.435932 0.943625 0.190151
H8    H     H_    0.933728 0.327202 0.443626 0.190087
H9    H     H_    0.334655 0.916870 0.556341 0.190039
H10   H     H_    0.066269 0.672799 0.443625 0.190087
H11   H     H_    0.665344 0.083132 0.556340 0.190039
H12   H     H_    0.916892 0.334644 0.556341 0.190039
H13   H     H_    0.878187 0.789571 0.244505 0.178750
H14   H     H_    0.672795 0.066280 0.443625 0.190087
H15   H     H_    0.083109 0.665355 0.556340 0.190039
H16   H     H_    0.327206 0.933717 0.443626 0.190087
H17   H     H_    0.736831 0.824880 0.784304 0.180011
H18   H     H_    0.740610 0.348393 0.221746 0.154612
H19   H     H_    0.263165 0.175116 0.784304 0.180012
H20   H     H_    0.259391 0.651608 0.221746 0.154613
H21   H     H_    0.348393 0.740610 0.221746 0.154512
H22   H     H_    0.175115 0.263165 0.784304 0.179610
H23   H     H_    0.651608 0.259391 0.221746 0.154512
H24   H     H_    0.736744 0.175233 0.784279 0.179428
H25   H     H_    0.824881 0.736831 0.784304 0.179609
H26   H     H_    0.236834 0.324883 0.284304 0.179065
H27   H     H_    0.240611 0.848391 0.721745 0.154713
H28   H     H_    0.763166 0.675117 0.284304 0.179065
H29   H     H_    0.759378 0.151621 0.721740 0.154716
H30   H     H_    0.848380 0.240623 0.721740 0.154718
H31   H     H_    0.675116 0.763166 0.284304 0.179079
H32   H     H_    0.151609 0.759389 0.721745 0.154718
H33   H     H_    0.324884 0.236834 0.284304 0.179079
H34   H     H_    0.618764 0.002722 0.838421 0.165340
H35   H     H_    0.824766 0.263255 0.784279 0.179820
H36   H     H_    0.996731 0.618750 0.161581 0.165718
H37   H     H_    0.381235 0.997278 0.838421 0.165339
H38   H     H_    0.003268 0.381251 0.161581 0.165718
H39   H     H_    0.618750 0.996539 0.161579 0.165593
H40   H     H_    0.996887 0.381240 0.838420 0.165233
H41   H     H_    0.381250 0.003461 0.161579 0.165594
H42   H     H_    0.003113 0.618759 0.838420 0.165233
H43   H     H_    0.118779 0.502205 0.338419 0.165263
H44   H     H_    0.495860 0.118722 0.661583 0.165724
H45   H     H_    0.881219 0.497795 0.338419 0.165262
H46   H     H_    0.789571 0.878186 0.244505 0.178764
H47   H     H_    0.504139 0.881279 0.661583 0.165725
H48   H     H_    0.118722 0.495857 0.661583 0.165724
H49   H     H_    0.497814 0.881219 0.338419 0.165262
H50   H     H_    0.881279 0.504143 0.661583 0.165723
H51   H     H_    0.502187 0.118779 0.338419 0.165262
H52   H     H_    0.618189 0.002960 0.879333 0.144959
H53   H     H_    0.996485 0.618177 0.120669 0.145219
H54   H     H_    0.381809 0.997040 0.879333 0.144959
H55   H     H_    0.003514 0.381825 0.120669 0.145219
H56   H     H_    0.618164 0.996653 0.120657 0.143683
H57   H     H_    0.175249 0.736727 0.784282 0.179815
H58   H     H_    0.997010 0.381826 0.879342 0.143625
H59   H     H_    0.381838 0.003347 0.120657 0.143683
H60   H     H_    0.002990 0.618172 0.879342 0.143625
H61   H     H_    0.118194 0.502067 0.379339 0.143822
H62   H     H_    0.495595 0.118150 0.620673 0.145411
H63   H     H_    0.881803 0.497934 0.379339 0.143822
H64   H     H_    0.504404 0.881853 0.620673 0.145411
H65   H     H_    0.118150 0.495593 0.620673 0.145406
H66   H     H_    0.497952 0.881803 0.379339 0.143820
H67   H     H_    0.881852 0.504407 0.620673 0.145406
H68   H     H_    0.210428 0.121814 0.244505 0.178764
H69   H     H_    0.502049 0.118194 0.379339 0.143820
H70   H     H_    0.915585 0.332652 0.516901 0.141841
H71   H     H_    0.324931 0.933048 0.483067 0.142164
H72   H     H_    0.084415 0.667348 0.516900 0.141841
H73   H     H_    0.763274 0.324747 0.284283 0.180347
H74   H     H_    0.675070 0.066950 0.483066 0.142164
H75   H     H_    0.933057 0.324928 0.483067 0.142163
H76   H     H_    0.667335 0.084441 0.516900 0.141842
H77   H     H_    0.066941 0.675073 0.483066 0.142163
H78   H     H_    0.332665 0.915560 0.516901 0.141842
H79   H     H_    0.563649 0.823703 0.016935 0.143137
H80   H     H_    0.824087 0.435306 0.983068 0.143143
H81   H     H_    0.436352 0.176297 0.016935 0.143137
H82   H     H_    0.175913 0.564693 0.983067 0.143143
H83   H     H_    0.581256 0.831095 0.983100 0.143211
H84   H     H_    0.378187 0.289571 0.744506 0.178668
H85   H     H_    0.168360 0.582371 0.016898 0.143223
H86   H     H_    0.418743 0.168905 0.983100 0.143211
H87   H     H_    0.831640 0.417630 0.016899 0.143223
H88   H     H_    0.640153 0.729154 0.773371 0.156239
H89   H     H_    0.714066 0.373955 0.263013 0.173811
H90   H     H_    0.359845 0.270843 0.773372 0.156240
H91   H     H_    0.285934 0.626044 0.263013 0.173811
H92   H     H_    0.373956 0.714066 0.263013 0.173811
H93   H     H_    0.270843 0.359844 0.773372 0.156070
H94   H     H_    0.626044 0.285933 0.263013 0.173811
H95   H     H_    0.236725 0.675251 0.284283 0.180348
H96   H     H_    0.729154 0.640153 0.773371 0.156069
H97   H     H_    0.140154 0.229156 0.273371 0.155788
H98   H     H_    0.214065 0.873956 0.763012 0.173891
H99   H     H_    0.859845 0.770844 0.273371 0.155787
H100  H     H_    0.785941 0.126037 0.763006 0.173884
H101  H     H_    0.873964 0.214059 0.763006 0.173842
H102  H     H_    0.770844 0.859845 0.273371 0.155803
H103  H     H_    0.126043 0.785934 0.763012 0.173849
H104  H     H_    0.229156 0.140155 0.273371 0.155803
H105  H     H_    0.692349 0.780960 0.713994 0.182190
H106  H     H_    0.324748 0.763274 0.284283 0.180333
H107  H     H_    0.859963 0.229043 0.273330 0.156524
H108  H     H_    0.307655 0.219044 0.713995 0.182190
H109  H     H_    0.140036 0.770957 0.273330 0.156525
H110  H     H_    0.229042 0.859962 0.273330 0.156512
H111  H     H_    0.219044 0.307655 0.713995 0.182181
H112  H     H_    0.770957 0.140037 0.273330 0.156512
H113  H     H_    0.780960 0.692349 0.713994 0.182179
H114  H     H_    0.192347 0.280958 0.213994 0.182621
H115  H     H_    0.359961 0.729044 0.773330 0.155971
H116  H     H_    0.807653 0.719042 0.213994 0.182621
H117  H     H_    0.289572 0.378186 0.744506 0.178689
H118  H     H_    0.640049 0.270944 0.773335 0.155973
H119  H     H_    0.729055 0.359950 0.773335 0.156193
H120  H     H_    0.719043 0.807653 0.213994 0.182988
H121  H     H_    0.270955 0.640038 0.773330 0.156191
H122  H     H_    0.280957 0.192347 0.213994 0.182989
H123  H     H_    0.786015 0.874067 0.763027 0.173716
H124  H     H_    0.807718 0.280907 0.213966 0.183302
H125  H     H_    0.213984 0.125932 0.763025 0.173714
H126  H     H_    0.192283 0.719095 0.213966 0.183303
H127  H     H_    0.280907 0.807718 0.213966 0.182914
H128  H     H_    0.675251 0.236725 0.284283 0.180333
H129  H     H_    0.125931 0.213984 0.763025 0.173747
H130  H     H_    0.719094 0.192284 0.213966 0.182913
H131  H     H_    0.874067 0.786014 0.763027 0.173749
H132  H     H_    0.286016 0.374068 0.263025 0.173802
H133  H     H_    0.307720 0.780905 0.713966 0.183796
H134  H     H_    0.713984 0.625932 0.263026 0.173802
H135  H     H_    0.692266 0.219112 0.713967 0.183800
H136  H     H_    0.780890 0.307735 0.713967 0.183809
H137  H     H_    0.625931 0.713984 0.263025 0.173807
H138  H     H_    0.219097 0.692281 0.713966 0.183805
H139  H     H_    0.710429 0.621814 0.744504 0.178690
H140  H     H_    0.374069 0.286016 0.263025 0.173807
H141  H     H_    0.759456 0.848455 0.721766 0.154138
H142  H     H_    0.878273 0.210357 0.244459 0.178648
H143  H     H_    0.240547 0.151548 0.721765 0.154138
H144  H     H_    0.121727 0.789644 0.244459 0.178649
H145  H     H_    0.210356 0.878273 0.244459 0.178624
H146  H     H_    0.151548 0.240548 0.721765 0.154136
H147  H     H_    0.789644 0.121728 0.244459 0.178624
H148  H     H_    0.848455 0.759455 0.721766 0.154135
H149  H     H_    0.259454 0.348453 0.221765 0.154368
H150  H     H_    0.121813 0.210429 0.244505 0.178750
H151  H     H_    0.378273 0.710357 0.744460 0.178788
H152  H     H_    0.740546 0.651547 0.221765 0.154368
H153  H     H_    0.621725 0.289645 0.744466 0.178783
H154  H     H_    0.710355 0.378275 0.744466 0.178759
H155  H     H_    0.651547 0.740547 0.221765 0.154528
H156  H     H_    0.289644 0.621727 0.744460 0.178764
H157  H     H_    0.348453 0.259453 0.221765 0.154529
H158  H     H_    0.580011 0.833123 0.943659 0.190157
H159  H     H_    0.833656 0.418888 0.056340 0.190198
H160  H     H_    0.419987 0.166877 0.943659 0.190157
N1    N     N_R   0.499999 1.000000 0.906096 -0.353792
N2    N     N_R   1.000000 0.500001 0.093904 -0.353780
N3    N     N_R   0.500001 0.000000 0.093929 -0.354210
N4    N     N_R   1.000000 0.499999 0.906072 -0.354170
N5    N     N_R   0.999998 0.500000 0.406073 -0.354293
N6    N     N_R   0.500000 0.000002 0.593905 -0.353910
N7    N     N_R   0.000001 0.500000 0.593905 -0.353912
N8    N     N_R   0.500001 0.999998 0.406073 -0.354294
O1    O     O_3   0.500000 0.000000 0.750000 -0.464574
O2    O     O_R   0.061290 0.500080 0.700060 -0.646024
O3    O     O_R   0.499920 0.061290 0.299940 -0.646149
O4    O     O_R   0.938710 0.499920 0.700060 -0.646023
O5    O     O_R   0.999920 0.438710 0.200060 -0.646042
O6    O     O_R   0.438710 0.000080 0.799940 -0.646101
O7    O     O_R   0.000080 0.561290 0.200060 -0.646042
O8    O     O_R   0.561290 0.999920 0.799940 -0.646100
O9    O     O_R   0.000080 0.438710 0.799940 -0.646133
O10   O     O_R   0.561290 0.000080 0.200060 -0.646076
O11   O     O_R   0.999920 0.561290 0.799940 -0.646132
O12   O     O_3   0.000000 0.500000 0.250000 -0.464559
O13   O     O_R   0.438710 0.999920 0.200060 -0.646075
O14   O     O_R   0.586160 0.147460 0.736910 -0.647443
O15   O     O_R   0.147460 0.413840 0.263090 -0.650748
O16   O     O_R   0.413840 0.852540 0.736910 -0.647443
O17   O     O_R   0.852540 0.586160 0.263090 -0.650748
O18   O     O_R   0.413840 0.147460 0.263090 -0.650768
O19   O     O_R   0.852540 0.413840 0.736910 -0.647474
O20   O     O_R   0.586160 0.852540 0.263090 -0.650768
O21   O     O_R   0.147460 0.586160 0.736910 -0.647474
O22   O     O_R   0.086160 0.647460 0.236910 -0.647592
O23   O     O_3   0.500000 0.000000 0.250000 -0.464550
O24   O     O_R   0.647460 0.913840 0.763090 -0.650442
O25   O     O_R   0.913840 0.352540 0.236910 -0.647592
O26   O     O_R   0.352540 0.086160 0.763090 -0.650442
O27   O     O_R   0.913840 0.647460 0.763090 -0.650653
O28   O     O_R   0.352540 0.913840 0.236910 -0.647809
O29   O     O_R   0.086160 0.352540 0.763090 -0.650653
O30   O     O_R   0.647460 0.086160 0.236910 -0.647810
O31   O     O_R   0.352450 0.913760 0.763090 -0.651090
O32   O     O_R   0.913760 0.647550 0.236910 -0.648192
O33   O     O_R   0.647550 0.086240 0.763090 -0.651089
O34   O     O_3   1.000000 0.500000 0.750000 -0.464568
O35   O     O_R   0.086240 0.352450 0.236910 -0.648192
O36   O     O_R   0.647550 0.913760 0.236910 -0.647994
O37   O     O_R   0.086240 0.647550 0.763090 -0.650891
O38   O     O_R   0.352450 0.086240 0.236910 -0.647994
O39   O     O_R   0.913760 0.352450 0.763090 -0.650891
O40   O     O_R   0.852450 0.413760 0.263090 -0.650792
O41   O     O_R   0.413760 0.147550 0.736910 -0.648315
O42   O     O_R   0.147550 0.586240 0.263090 -0.650791
O43   O     O_R   0.586240 0.852450 0.736910 -0.648315
O44   O     O_R   0.147550 0.413760 0.736910 -0.648282
O45   O     O_R   0.499920 0.938710 0.700060 -0.646020
O46   O     O_R   0.586240 0.147550 0.263090 -0.650765
O47   O     O_R   0.852450 0.586240 0.736910 -0.648282
O48   O     O_R   0.413760 0.852450 0.263090 -0.650766
O49   O     O_2   0.554158 0.882680 0.905814 -0.563050
O50   O     O_2   0.883030 0.445090 0.094185 -0.562867
O51   O     O_2   0.445839 0.117320 0.905814 -0.563050
O52   O     O_2   0.116969 0.554913 0.094185 -0.562867
O53   O     O_2   0.543893 0.878492 0.094234 -0.562222
O54   O     O_2   0.121259 0.544576 0.905769 -0.562485
O55   O     O_2   0.456109 0.121508 0.094234 -0.562221
O56   O     O_R   0.938710 0.500080 0.299940 -0.646147
O57   O     O_2   0.878741 0.455421 0.905769 -0.562484
O58   O     O_2   0.953944 0.379292 0.405771 -0.561661
O59   O     O_2   0.383671 0.943735 0.594183 -0.562001
O60   O     O_2   0.046053 0.620709 0.405771 -0.561661
O61   O     O_2   0.616328 0.056268 0.594183 -0.562001
O62   O     O_2   0.943746 0.383667 0.594183 -0.561998
O63   O     O_2   0.620705 0.046065 0.405771 -0.561660
O64   O     O_2   0.056257 0.616332 0.594183 -0.561999
O65   O     O_2   0.379296 0.953932 0.405771 -0.561659
O66   O     O_R   0.500080 0.061290 0.700060 -0.646022
O67   O     O_R   0.061290 0.499920 0.299940 -0.646146
O68   O     O_R   0.500080 0.938710 0.299940 -0.646150
Zn1   Zn    Zn3+2 0.587490 0.999960 0.768710 0.954089
Zn2   Zn    Zn3+2 0.499960 0.912510 0.731290 0.956210
Zn3   Zn    Zn3+2 0.912510 0.500040 0.268710 0.954102
Zn4   Zn    Zn3+2 0.500040 0.087490 0.731290 0.956211
Zn5   Zn    Zn3+2 0.912510 0.499960 0.731290 0.956223
Zn6   Zn    Zn3+2 0.500040 0.912510 0.268710 0.954117
Zn7   Zn    Zn3+2 0.087490 0.500040 0.731290 0.956223
Zn8   Zn    Zn3+2 0.499960 0.087490 0.268710 0.954117
Zn9   Zn    Zn3+2 0.999960 0.412510 0.231290 0.956210
Zn10  Zn    Zn3+2 0.412510 0.000040 0.768710 0.954090
Zn11  Zn    Zn3+2 0.000040 0.587490 0.231290 0.956210
Zn12  Zn    Zn3+2 0.412510 0.999960 0.231290 0.956216
Zn13  Zn    Zn3+2 0.000040 0.412510 0.768710 0.954095
Zn14  Zn    Zn3+2 0.587490 0.000040 0.231290 0.956216
Zn15  Zn    Zn3+2 0.999960 0.587490 0.768710 0.954095
Zn16  Zn    Zn3+2 0.087490 0.499960 0.268710 0.954102

loop_
_geom_bond_atom_site_label_1
_geom_bond_atom_site_label_2
_ccdc_geom_bond_type
C38   H24   S    
C27   H89   S    
C167  C193  S    
C39   C92   S    
C63   H19   S    
C34   C42   S    
O48   Zn6   S    
C40   C93   S    
C34   H150  S    
C197  C224  A    
C57   C128  A    
C7    C212  A    
C5    H85   S    
C109  N7    A    
C200  O11   A    
C102  N4    A    
C110  N8    A    
C7    H87   S    
C36   H98   S    
C43   H141  S    
C47   H144  S    
C39   H35   S    
C128  C145  A    
O44   Zn7   S    
C65   H127  S    
C66   H129  S    
C44   C50   S    
C221  H70   S    
C37   H13   S    
C74   C92   S    
C26   H88   S    
O3    Zn8   S    
C46   C125  A    
C76   C94   S    
C177  C226  A    
C2    C116  A    
O25   Zn9   S    
C204  C208  A    
C170  H159  S    
C65   H21   S    
C67   H130  S    
C17   O42   A    
C104  O57   S    
C227  H76   S    
C51   H113  S    
C4    C208  A    
C75   H31   S    
C67   C85   S    
C23   C84   S    
C12   O18   A    
C42   C95   S    
C165  C183  A    
C3    H82   S    
C31   H93   S    
C166  C184  A    
C90   C152  A    
C195  C221  A    
C116  C133  A    
C212  C220  A    
C60   H157  S    
C56   H154  S    
O24   Zn1   S    
C68   C131  A    
C42   H104  S    
O28   Zn12  S    
C156  O68   A    
C152  C170  A    
C46   C127  A    
C79   C219  A    
C41   C94   S    
C107  C162  A    
C18   C78   S    
C150  C168  A    
C123  C141  A    
O12   Zn3   S    
C14   O39   A    
C46   N6    S    
C230  H79   S    
C47   H109  S    
C100  C155  A    
C138  H42   S    
C101  C158  A    
C67   H23   S    
C102  O54   S    
C21   O47   A    
C120  C138  A    
C9    O15   A    
C104  C159  A    
C198  C214  A    
O23   Zn8   S    
C118  C136  A    
C75   C93   S    
O20   Zn6   S    
C201  C227  A    
C58   H120  S    
C21   C86   S    
C182  C221  A    
C33   H96   S    
C29   H91   S    
C135  C163  A    
C25   O30   A    
C12   O38   A    
C76   H138  S    
C200  O9    A    
C37   C89   S    
C175  H6    S    
C16   C94   S    
C50   H112  S    
C159  C176  A    
C144  H44   S    
C3    C207  A    
C100  O53   S    
O30   Zn14  S    
C29   C82   S    
C112  C191  S    
C96   C151  A    
C225  H74   S    
C61   H123  S    
O68   Zn6   S    
C55   H118  S    
C124  C160  A    
O31   Zn10  S    
C77   C95   S    
C48   H110  S    
C34   C87   S    
C19   C80   S    
C30   H92   S    
C129  C147  A    
C31   C84   S    
C98   N1    A    
C71   C88   S    
C1    C192  S    
C140  H40   S    
C15   O20   A    
C62   H18   S    
C176  H7    S    
C185  C223  A    
C7    C170  A    
C18   O24   A    
C113  C157  A    
C21   O27   A    
C99   O52   S    
C121  H56   S    
C229  H78   S    
C114  N8    A    
C167  O4    A    
O32   Zn11  S    
C103  N3    A    
C163  C181  A    
C189  O6    A    
C134  C186  A    
C115  C222  A    
C122  H58   S    
C123  H63   S    
C183  C225  A    
C103  O55   S    
C36   C88   S    
C10   C88   S    
C26   C78   S    
C35   N5    S    
C62   H124  S    
C49   C84   S    
C62   C80   S    
C37   C40   S    
C38   C39   S    
C59   H121  S    
C40   H102  S    
C105  C160  A    
C119  H59   S    
C99   C154  A    
C196  C214  A    
C17   C82   S    
C106  C161  A    
C11   C89   S    
C118  H53   S    
C52   C60   S    
C1    O66   A    
C64   H20   S    
C97   C152  A    
C50   H147  S    
C19   O25   A    
O7    Zn11  S    
C108  O61   S    
C52   H149  S    
C12   C95   S    
C23   O29   A    
C179  C229  A    
C125  C142  A    
O23   Zn6   S    
C162  C180  A    
C173  H4    S    
C157  C174  A    
C137  C188  A    
C6    H86   S    
C208  C219  A    
O17   Zn3   S    
C70   C77   S    
C135  C161  A    
C117  C222  A    
O5    Zn9   S    
C72   C75   S    
C70   C87   S    
C73   H29   S    
C195  C199  A    
C115  C132  A    
C206  C217  A    
C109  O62   S    
C146  C213  A    
O33   Zn1   S    
C57   C130  A    
C27   C80   S    
C174  H5    S    
O40   Zn3   S    
C202  C228  A    
C146  C164  A    
C111  O64   S    
C113  C159  A    
C210  C219  A    
C231  H80   S    
O12   Zn9   S    
C183  H14   S    
C156  C194  S    
C60   C95   S    
C201  C216  A    
C29   C30   S    
C79   C153  A    
C13   C121  A    
C206  C210  A    
C26   C33   S    
C135  C216  A    
C63   H125  S    
C142  C192  A    
C25   C85   S    
C197  C202  A    
C99   N2    A    
C24   N4    S    
C228  H77   S    
C179  H9    S    
C39   H101  S    
C167  O2    A    
C14   C92   S    
C60   H122  S    
C25   O46   A    
C177  H8    S    
C105  N5    A    
C189  O8    A    
C205  C231  A    
C36   H2    S    
C139  C188  A    
C113  C218  A    
C26   H1    S    
C69   H25   S    
C149  H49   S    
C175  C232  A    
C20   O41   A    
C55   H153  S    
O22   Zn11  S    
C5    C209  A    
C151  C169  A    
C48   C83   S    
C136  H36   S    
C22   C83   S    
C121  C139  A    
C117  H52   S    
C35   C123  A    
C122  C140  A    
C15   O36   A    
C9    C87   S    
C133  H38   S    
C42   H68   S    
C5    C172  A    
C73   H135  S    
C199  C226  A    
C72   H134  S    
O23   Zn12  S    
O45   Zn2   S    
C57   N7    S    
O1    Zn2   S    
C2    N2    S    
C126  C143  A    
C61   H17   S    
C96   N1    A    
C207  C209  A    
C31   H117  S    
C181  H11   S    
C124  C215  A    
C97   O50   S    
C28   H90   S    
C55   C56   S    
C30   H106  S    
C73   C74   S    
O34   Zn5   S    
C58   H155  S    
O47   Zn5   S    
C2    C118  A    
C190  C200  S    
C43   C78   S    
C129  H69   S    
O12   Zn11  S    
C169  H158  S    
C58   C93   S    
C71   C76   S    
C110  C165  A    
C117  C134  A    
C22   O48   A    
C10   O16   A    
C97   N2    A    
O56   Zn3   S    
C51   C86   S    
C116  H55   S    
C30   C83   S    
C55   C91   S    
C50   C85   S    
O26   Zn10  S    
C66   H22   S    
C41   H103  S    
O13   Zn12  S    
C59   C94   S    
C202  C215  A    
C90   C154  A    
O4    Zn5   S    
C145  C193  A    
O12   Zn16  S    
C28   C81   S    
C63   C66   S    
C40   H46   S    
C107  O60   S    
C143  H43   S    
C105  O58   S    
C49   H146  S    
C71   H133  S    
C4    H83   S    
C98   O51   S    
C124  C162  A    
C108  C163  A    
O18   Zn8   S    
C24   C120  A    
C34   H97   S    
C206  C232  A    
C203  C216  A    
C44   C80   S    
C132  H37   S    
C156  O3    A    
C147  C194  A    
C144  C192  A    
C205  C212  A    
C226  H75   S    
C176  C231  A    
C38   C91   S    
C180  C228  A    
C181  C227  A    
C148  H48   S    
C20   O26   A    
O1    Zn4   S    
C147  H51   S    
C49   H111  S    
C45   C49   S    
C44   H107  S    
O16   Zn2   S    
C108  N6    A    
C69   H131  S    
C8    C91   S    
O15   Zn16  S    
C196  C203  A    
C11   O32   A    
C185  H16   S    
C178  C187  S    
C74   H30   S    
O35   Zn9   S    
C17   O22   A    
C74   H136  S    
C23   O44   A    
C184  H15   S    
C199  C215  A    
C120  H60   S    
C18   O43   A    
C125  H64   S    
C197  C213  A    
C128  H67   S    
C172  H3    S    
O9    Zn13  S    
C14   O19   A    
C222  N1    S    
C223  H71   S    
C207  C218  A    
C224  H72   S    
C27   C32   S    
C28   C31   S    
O23   Zn14  S    
C109  C164  A    
C182  H12   S    
C53   H115  S    
C32   H128  S    
C103  C158  A    
C114  C168  A    
C110  O63   S    
C75   H137  S    
C180  H10   S    
C9    O35   A    
C111  N7    A    
C64   C65   S    
C186  C189  S    
C37   H99   S    
C211  O10   A    
O29   Zn13  S    
O34   Zn7   S    
C43   C51   S    
C32   C85   S    
C77   H33   S    
C106  N6    A    
C45   C81   S    
C127  C144  A    
C28   H84   S    
C22   O28   A    
C160  C177  A    
C195  C213  A    
C196  C223  A    
C164  C182  A    
C45   H108  S    
C70   H26   S    
C71   H27   S    
C178  O7    A    
C104  N4    A    
C134  H34   S    
C101  C155  A    
C54   H116  S    
C51   H148  S    
C100  N3    A    
C140  C190  A    
C141  C191  A    
C3    C174  A    
C44   H142  S    
C16   O21   A    
O39   Zn13  S    
C53   C59   S    
O37   Zn15  S    
C232  H81   S    
O11   Zn15  S    
C62   C67   S    
C63   C81   S    
C96   O49   S    
C43   H105  S    
C188  C211  S    
C65   C83   S    
C115  H54   S    
O14   Zn4   S    
C47   C82   S    
O36   Zn14  S    
C10   O31   A    
C143  C191  A    
O34   Zn13  S    
O10   Zn14  S    
C19   O40   A    
C211  O13   A    
C198  C225  A    
C126  H61   S    
C155  C173  A    
C146  C166  A    
C98   C153  A    
C70   H132  S    
C20   C81   S    
C204  C230  A    
O6    Zn10  S    
C138  C190  A    
O41   Zn4   S    
C145  H50   S    
C102  C157  A    
C24   C122  A    
C13   C119  A    
C68   N8    S    
C6    C171  A    
C205  C218  A    
C33   H139  S    
C4    C169  A    
C130  H65   S    
C130  C148  A    
C119  C137  A    
C73   C91   S    
C54   C89   S    
C173  C230  A    
C132  C186  A    
C203  C229  A    
C133  C187  A    
O1    Zn10  S    
C150  C165  A    
C139  H39   S    
C112  O56   A    
C27   H73   S    
C29   H95   S    
C1    O45   A    
C35   C126  A    
C33   C86   S    
C148  C193  A    
C149  C194  A    
C158  C175  A    
C52   H114  S    
C47   C48   S    
C61   C78   S    
C8    O14   A    
C153  C171  A    
C198  C201  A    
O34   Zn15  S    
C154  C172  A    
C131  H66   S    
C111  C166  A    
C38   H100  S    
C64   H126  S    
C178  O5    A    
C64   C82   S    
C127  H62   S    
O1    Zn1   S    
O2    Zn7   S    
O19   Zn5   S    
C56   H119  S    
O27   Zn15  S    
C72   H28   S    
C136  C187  A    
C171  H160  S    
C161  C179  A    
C15   C93   S    
C13   N3    S    
C11   O17   A    
C114  O65   S    
C79   C151  A    
C54   C58   S    
C61   C69   S    
C184  C224  A    
C168  C185  A    
C53   H151  S    
C106  O59   S    
C209  C220  A    
C90   C220  A    
C8    O33   A    
C52   C87   S    
O46   Zn8   S    
C142  H47   S    
C6    C210  A    
C41   H57   S    
C107  N5    A    
O8    Zn1   S    
O38   Zn12  S    
C204  C217  A    
O67   Zn16  S    
C45   H143  S    
C141  H45   S    
C72   C89   S    
O66   Zn4   S    
C137  H41   S    
C53   C88   S    
C150  C214  A    
C76   H32   S    
C68   C129  A    
C59   H156  S    
O43   Zn2   S    
C131  C149  A    
O21   Zn7   S    
C66   C84   S    
C112  O67   A    
C101  C217  A    
C56   C92   S    
O42   Zn16  S    
C36   C41   S    
C48   H145  S    
C16   O37   A    
C32   H94   S    
C54   H152  S    
C77   H140  S    
C69   C86   S    
