data_mof_unit_55369.cif
_audit_creation_date              2012-12-11T20:19:39-0500
_audit_creation_method            fapswitch 2.2
_symmetry_space_group_name_H-M    P1
_symmetry_Int_Tables_number       1
_space_group_crystal_system       triclinic
_cell_length_a                    8.216423
_cell_length_b                    17.294222
_cell_length_c                    22.846908
_cell_angle_alpha                 99.079179
_cell_angle_beta                  89.726832
_cell_angle_gamma                 98.438479
_cell_volume                      3170.52670406

loop_
_atom_site_label
_atom_site_type_symbol
_atom_type_description
_atom_site_fract_x
_atom_site_fract_y
_atom_site_fract_z
_atom_type_partial_charge
Ba1   Ba    Ba6+2 0.857050 0.537370 0.474190 1.646514
Ba2   Ba    Ba6+2 0.332790 0.462700 0.525820 1.665934
C1    C     C_3   0.649653 0.819604 0.365057 -0.359419
C2    C     C_R   0.101853 0.563376 0.942152 -0.018375
C3    C     C_R   0.050886 0.562210 0.882762 0.575147
C4    C     C_3   0.122517 0.797595 0.337999 0.507503
C5    C     C_R   0.968634 0.421636 0.870939 0.583309
C6    C     C_R   0.024796 0.420468 0.929353 -0.044711
C7    C     C_R   0.089276 0.491844 0.965489 -0.054251
C8    C     C_R   0.164712 0.634558 0.978823 -0.089840
C9    C     C_R   0.212018 0.635017 0.037532 -0.078892
C10   C     C_R   0.200257 0.564188 0.061488 -0.007394
C11   C     C_R   0.140612 0.491917 0.025175 -0.089864
C12   C     C_3   0.577696 0.736133 0.336744 0.309861
C13   C     C_R   0.018009 0.349316 0.952268 -0.114551
C14   C     C_R   0.071327 0.348090 0.010502 0.193523
C15   C     C_R   0.132710 0.420105 0.048234 -0.054638
C16   C     C_3   0.226884 0.861867 0.306531 0.193181
C17   C     C_R   0.185894 0.422967 0.108109 0.606475
C18   C     C_R   0.244870 0.564731 0.121230 0.552212
C19   C     C_2   0.770847 0.472305 0.769949 -0.135641
C20   C     C_3   0.718996 0.474173 0.706303 -0.112806
C21   C     C_1   0.007900 0.511391 0.684910 0.066808
C22   C     C_2   0.055617 0.513434 0.740926 -0.087043
C23   C     C_3   0.497710 0.321716 0.342159 0.273775
C24   C     C_2   0.932036 0.491628 0.786753 0.234810
C25   C     C_R   0.424978 0.536438 0.231589 -0.156692
C26   C     C_R   0.462287 0.544873 0.292259 -0.061074
C27   C     C_R   0.191116 0.476445 0.309890 0.014696
C28   C     C_3   0.244257 0.710298 0.619620 0.316798
C29   C     C_R   0.150490 0.466468 0.247805 0.159621
C30   C     C_R   0.269581 0.498197 0.208115 0.228688
C31   C     C_2   0.863829 0.471708 0.665217 -0.270627
C32   C     C_2   0.429624 0.725063 0.492954 -0.260692
C33   C     C_3   0.294508 0.776264 0.502849 -0.047195
C34   C     C_3   0.514995 0.287317 0.277063 -0.089455
C35   C     C_2   0.361640 0.863889 0.508954 0.153262
C36   C     C_2   0.528008 0.888109 0.516482 0.006161
C37   C     C_2   0.638179 0.826721 0.519691 -0.185354
C38   C     C_1   0.574314 0.751615 0.518323 0.080980
C39   C     C_R   0.783355 0.143920 0.555456 -0.142435
C40   C     C_3   0.315871 0.792078 0.651845 -0.370996
C41   C     C_R   0.853194 0.221912 0.553340 -0.009275
C42   C     C_R   0.610965 0.242889 0.500704 0.057176
C43   C     C_R   0.537821 0.165468 0.504903 -0.093783
C44   C     C_R   0.622664 0.116441 0.533634 0.013664
C45   C     C_3   0.043158 0.217760 0.678948 0.516471
C46   C     C_2   0.609945 0.971504 0.517979 -0.076978
C47   C     C_2   0.543289 0.036296 0.540173 -0.088348
C48   C     C_R   0.764048 0.271690 0.527825 -0.238498
C49   C     C_3   0.952617 0.297256 0.398139 0.319156
C50   C     C_3   0.940557 0.206480 0.386547 0.251816
C51   C     C_3   0.728376 0.644995 0.656709 0.322817
C52   C     C_3   0.733436 0.668522 0.724174 -0.053766
C53   C     C_3   0.912841 0.173012 0.274780 -0.198172
C54   C     C_3   0.107452 0.101435 0.390890 -0.207021
C55   C     C_3   0.558225 0.688080 0.810130 -0.224431
C56   C     C_3   0.088127 0.257225 0.742297 -0.241384
C57   C     C_3   0.511726 0.316647 0.176672 -0.180444
C58   C     C_3   0.168788 0.095735 0.641809 -0.183051
C59   C     C_3   0.905673 0.245504 0.053667 -0.176900
C60   C     C_3   0.890777 0.454703 0.188670 -0.153235
C61   C     C_3   0.121994 0.664202 0.278056 -0.076916
C62   C     C_3   0.230300 0.959435 0.464410 -0.239812
C63   C     C_3   0.435737 0.878677 0.229755 -0.243335
C64   C     C_3   0.007038 0.912131 0.253290 -0.282705
C65   C     C_3   0.610883 0.294397 0.731248 0.298014
C66   C     C_3   0.596976 0.207076 0.736459 -0.366350
C67   C     C_R   0.345250 0.515913 0.330549 -0.305401
H1    H     H_    0.504797 0.708105 0.371040 0.007124
H2    H     H_    0.792617 0.731246 0.735625 0.116074
H3    H     H_    0.810039 0.631718 0.744466 0.049615
H4    H     H_    0.493907 0.740172 0.300030 0.067944
H5    H     H_    0.550868 0.851328 0.385725 0.083116
H6    H     H_    0.369421 0.333764 0.349849 0.029306
H7    H     H_    0.584995 0.377757 0.352725 0.044694
H8    H     H_    0.423985 0.232649 0.265624 0.096097
H9    H     H_    0.710213 0.852907 0.331383 0.094600
H10   H     H_    0.329498 0.888929 0.338143 0.067666
H11   H     H_    0.916939 0.229734 0.670158 -0.091934
H12   H     H_    0.395232 0.786272 0.689678 0.157849
H13   H     H_    0.998535 0.232387 0.773482 0.093768
H14   H     H_    0.213288 0.247412 0.754470 0.108048
H15   H     H_    0.565905 0.325945 0.773004 0.038657
H16   H     H_    0.742494 0.316603 0.724621 0.020396
H17   H     H_    0.633049 0.172857 0.694316 0.107939
H18   H     H_    0.468534 0.183640 0.746450 0.110262
H19   H     H_    0.027820 0.827354 0.363347 0.047406
H20   H     H_    0.679255 0.199401 0.772849 0.098015
H21   H     H_    0.970683 0.293560 0.924854 0.113101
H22   H     H_    0.257933 0.691453 0.064254 0.112916
H23   H     H_    0.392072 0.826000 0.621775 0.055849
H24   H     H_    0.517147 0.559837 0.202405 0.101519
H25   H     H_    0.176202 0.690500 0.962387 0.114374
H26   H     H_    0.376200 0.522956 0.377260 0.086017
H27   H     H_    0.426582 0.031840 0.562329 0.110636
H28   H     H_    0.852978 0.104763 0.573754 0.054399
H29   H     H_    0.731620 0.979548 0.498934 0.068600
H30   H     H_    0.418966 0.142529 0.484075 0.083367
H31   H     H_    0.403404 0.664634 0.469744 0.072385
H32   H     H_    0.819763 0.331226 0.523920 0.046467
H33   H     H_    0.346155 0.680711 0.599328 0.025118
H34   H     H_    0.215062 0.825333 0.668819 0.105023
H35   H     H_    0.153146 0.715819 0.585599 0.016523
H36   H     H_    0.720760 0.172677 0.335386 0.205418
H37   H     H_    0.830277 0.132663 0.241208 0.079597
H38   H     H_    0.035072 0.152950 0.271279 0.108618
H39   H     H_    0.921274 0.233550 0.263734 0.136792
H40   H     H_    0.182825 0.204747 0.355036 0.209542
H41   H     H_    0.237079 0.090357 0.391453 0.086751
H42   H     H_    0.040479 0.062081 0.352885 0.125892
H43   H     H_    0.048256 0.087903 0.432607 0.108414
H44   H     H_    0.647032 0.587575 0.643753 0.020745
H45   H     H_    0.829585 0.314141 0.404868 -0.028723
H46   H     H_    0.504806 0.602597 0.735956 0.207222
H47   H     H_    0.427189 0.681465 0.823249 0.138629
H48   H     H_    0.610433 0.751838 0.819929 0.118554
H49   H     H_    0.625845 0.653735 0.836454 0.113660
H50   H     H_    0.552294 0.399302 0.253080 0.178278
H51   H     H_    0.498571 0.364747 0.150911 0.132584
H52   H     H_    0.418162 0.264584 0.160416 0.149544
H53   H     H_    0.636991 0.300373 0.169298 0.066804
H54   H     H_    0.641007 0.271592 0.270605 0.088937
H55   H     H_    0.927510 0.098915 0.672874 0.160965
H56   H     H_    0.027393 0.319417 0.439379 0.050675
H57   H     H_    0.292657 0.128615 0.655376 0.146731
H58   H     H_    0.148599 0.093706 0.593547 0.106093
H59   H     H_    0.163902 0.034193 0.650772 0.084034
H60   H     H_    0.086449 0.321958 0.746329 0.122787
H61   H     H_    0.103054 0.230724 0.998937 0.181814
H62   H     H_    0.912313 0.189140 0.070403 0.100814
H63   H     H_    0.808212 0.234828 0.018531 0.074034
H64   H     H_    0.872854 0.289200 0.091103 0.124690
H65   H     H_    0.183898 0.531678 0.754173 0.098295
H66   H     H_    0.677982 0.460611 0.802620 0.068465
H67   H     H_    0.874263 0.185248 0.424831 -0.012491
H68   H     H_    0.937041 0.381440 0.250167 0.199216
H69   H     H_    0.770567 0.458541 0.209738 0.100736
H70   H     H_    0.867115 0.415523 0.145446 0.081342
H71   H     H_    0.943629 0.514634 0.180736 0.092992
H72   H     H_    0.973655 0.746994 0.262059 0.180414
H73   H     H_    0.246880 0.682080 0.262306 0.114939
H74   H     H_    0.051830 0.624191 0.241359 0.107650
H75   H     H_    0.129731 0.631756 0.315752 0.123293
H76   H     H_    0.848143 0.441090 0.619886 0.075898
H77   H     H_    0.770068 0.844617 0.525502 0.098737
H78   H     H_    0.854232 0.639300 0.641610 -0.006593
H79   H     H_    0.134916 0.899105 0.532014 0.188359
H80   H     H_    0.117637 0.932631 0.437979 0.105527
H81   H     H_    0.339264 0.958799 0.435497 0.104524
H82   H     H_    0.218598 0.021752 0.481891 0.102080
H83   H     H_    0.216794 0.800482 0.218341 0.216236
H84   H     H_    0.494636 0.843372 0.193019 0.125576
H85   H     H_    0.529741 0.902042 0.265351 0.101223
H86   H     H_    0.391541 0.928812 0.212804 0.105280
H87   H     H_    0.214359 0.978676 0.296456 0.191824
H88   H     H_    0.949341 0.966573 0.254732 0.113410
H89   H     H_    0.740803 0.817467 0.399964 0.147685
H90   H     H_    0.909480 0.864556 0.262030 0.111936
H91   H     H_    0.056602 0.897653 0.208270 0.118788
N1    N     N_R   0.984417 0.491825 0.847830 -0.421882
N2    N     N_2   0.038876 0.732006 0.295830 -0.395906
N3    N     N_2   0.246077 0.918446 0.514089 -0.441007
N4    N     N_2   0.299207 0.828773 0.251480 -0.418563
N5    N     N_2   0.137276 0.926265 0.297888 -0.461536
N6    N     N_R   0.233566 0.494856 0.144742 -0.427368
N7    N     N_2   0.844619 0.169322 0.333134 -0.431060
N8    N     N_2   0.103477 0.183245 0.385739 -0.387428
N9    N     N_2   0.568547 0.658927 0.747571 -0.407839
N10   N     N_2   0.488702 0.343737 0.238917 -0.434929
N11   N     N_2   0.042316 0.132725 0.675027 -0.450590
N12   N     N_2   0.063288 0.273517 0.030130 -0.381046
N13   N     N_2   0.997065 0.421291 0.225395 -0.394168
O1    O     O_2   0.889310 0.456460 0.358460 -0.470391
O2    O     O_2   0.180050 0.220548 0.525783 -0.485692
O3    O     O_3   0.160497 0.251104 0.641284 -0.543133
O4    O     O_3   0.129890 0.457280 0.429550 -0.481831
O5    O     O_3   0.576930 0.595420 0.534060 -0.484731
O6    O     O_2   0.340570 0.306450 0.462190 -0.435990
O7    O     O_3   0.535489 0.265737 0.376169 -0.682542
O8    O     O_2   0.368511 0.428724 0.699962 -0.487725
O9    O     O_3   0.514768 0.302667 0.682743 -0.561237
O10   O     O_2   0.063780 0.624046 0.862427 -0.608359
O11   O     O_2   0.905780 0.360018 0.840644 -0.640180
O12   O     O_3   0.671030 0.704679 0.631733 -0.638929
O13   O     O_2   0.187676 0.361593 0.127936 -0.568980
O14   O     O_2   0.292151 0.627980 0.152604 -0.627486
O15   O     O_3   0.674650 0.600620 0.400940 -0.452398
O16   O     O_2   0.810377 0.558465 0.298645 -0.487133
O17   O     O_3   0.023439 0.329501 0.350065 -0.660357
O18   O     O_3   0.704973 0.695042 0.313088 -0.583827
O19   O     O_2   0.849130 0.693580 0.537840 -0.485859
O20   O     O_3   0.093680 0.641380 0.431770 -0.455850
O21   O     O_2   0.975774 0.777527 0.452364 -0.522576
O22   O     O_3   0.229291 0.769428 0.375597 -0.666800
O23   O     O_2   0.300380 0.543560 0.641570 -0.475682
O24   O     O_3   0.059830 0.542790 0.570460 -0.492315
O25   O     O_3   0.515070 0.399440 0.599070 -0.433860
O26   O     O_3   0.162265 0.668449 0.660652 -0.634703
O27   O     O_3   0.612780 0.404640 0.465950 -0.482068
O28   O     O_3   0.096040 0.358680 0.568240 -0.462267
P1    P     P_3+3 0.055640 0.433080 0.366120 0.983840
P2    P     P_3+3 0.671420 0.681950 0.554390 0.982997
P3    P     P_3+3 0.140098 0.743982 0.441750 0.966063
P4    P     P_3+3 0.134070 0.566990 0.633890 0.989289
P5    P     P_3+3 0.069982 0.258625 0.573542 0.983286
P6    P     P_3+3 0.662008 0.596611 0.324482 0.975933
P7    P     P_3+3 0.527669 0.303487 0.451440 0.948751
P8    P     P_3+3 0.531736 0.402997 0.675508 0.991262

loop_
_geom_bond_atom_site_label_1
_geom_bond_atom_site_label_2
_ccdc_geom_bond_type
C57   H52   S    
C61   N2    S    
C19   C24   D    
O15   P6    S    
C57   H51   S    
C30   N6    S    
Ba2   O24   S    
C66   H17   S    
O24   P4    S    
C26   C67   A    
C42   P7    S    
H46   N9    S    
C40   H34   S    
C64   H91   S    
C23   O7    S    
C59   H64   S    
C5    C6    A    
C51   H78   S    
C43   C44   A    
C3    O10   D    
Ba2   O28   S    
C44   C47   S    
C35   C36   D    
O20   P3    S    
C5    O11   D    
C32   C38   D    
H40   N8    S    
C22   C24   S    
C32   C33   S    
C34   H8    S    
C56   H13   S    
C50   N7    S    
C36   C37   S    
C33   P3    S    
C8    H25   S    
C56   H60   S    
C42   C48   A    
C13   C14   A    
C18   O14   D    
C20   P8    S    
O1    P1    D    
C4    H19   S    
C37   H77   S    
O8    P8    D    
Ba1   Ba2   S    
O3    P5    S    
O23   P4    D    
O25   P8    S    
C1    H5    S    
C7    C11   A    
C4    O22   S    
C39   H28   S    
C51   O12   S    
C59   H63   S    
Ba1   O4    S    
O19   P2    D    
C52   H2    S    
C4    N2    S    
H61   N12   S    
C14   C15   A    
C21   C31   D    
C1    H89   S    
C32   H31   S    
C39   C44   A    
C16   H10   S    
Ba2   O4    S    
C53   N7    S    
C60   H70   S    
C57   N10   S    
C54   H42   S    
C27   C67   A    
C45   O3    S    
C9    H22   S    
C35   N3    S    
C47   H27   S    
C57   H53   S    
C28   O26   S    
H72   N2    S    
O27   P7    S    
O5    P2    S    
C21   P4    S    
C41   P5    S    
C27   C29   A    
C39   C41   A    
C52   N9    S    
C10   C18   A    
C12   H1    S    
C40   H12   S    
C16   N4    S    
C45   H11   S    
C62   N3    S    
Ba1   P1    S    
C54   H41   S    
C64   H90   S    
C16   N5    S    
C51   H44   S    
C55   H47   S    
C55   N9    S    
C4    C16   S    
Ba1   O1    S    
C65   H16   S    
C49   H45   S    
C53   H37   S    
C65   C66   S    
C49   H56   S    
C12   H4    S    
C58   H59   S    
C34   H54   S    
H50   N10   S    
C43   H30   S    
C37   C38   D    
Ba2   P4    S    
C6    C7    A    
O22   P3    S    
C62   H82   S    
C51   C52   S    
C60   N13   S    
O9    P8    S    
C49   C50   S    
C62   H81   S    
C23   H6    S    
C3    N1    Am   
O17   P1    S    
Ba1   O20   S    
H68   N13   S    
C63   H85   S    
C65   O9    S    
C40   H23   S    
C5    N1    Am   
Ba1   O5    S    
C14   N12   S    
C29   C30   A    
C38   P2    S    
C61   H75   S    
O21   P3    D    
C54   N8    S    
C58   N11   S    
C66   H20   S    
C59   N12   S    
O18   P6    S    
C60   H69   S    
C49   O17   S    
H83   N4    S    
C1    C12   S    
C31   H76   S    
C28   H33   S    
C28   H35   S    
C12   O18   S    
C46   C47   D    
C17   N6    Am   
C6    C13   A    
C50   H67   S    
Ba2   O27   S    
C25   H24   S    
Ba1   O27   S    
Ba2   O6    S    
C2    C8    A    
Ba1   P2    S    
C46   H29   S    
C42   C43   A    
C55   H48   S    
C29   N13   S    
Ba1   O15   S    
C22   H65   S    
C66   H18   S    
C20   C31   S    
O6    P7    D    
C27   P1    S    
C21   C22   D    
C64   N5    S    
C33   C35   S    
C25   C30   A    
Ba2   O25   S    
H79   N3    S    
C36   C46   S    
C58   H58   S    
Ba1   O24   S    
C2    C3    A    
C67   H26   S    
C45   N11   S    
C9    C10   A    
C41   C48   A    
C18   N6    Am   
C62   H80   S    
C24   N1    S    
C34   N10   S    
C11   C15   A    
C53   H39   S    
C23   H7    S    
O12   P2    S    
C58   H57   S    
C17   O13   D    
O7    P7    S    
C56   H14   S    
C50   N8    S    
C45   C56   S    
H55   N11   S    
H87   N5    S    
O16   P6    D    
C63   N4    S    
C15   C17   A    
C61   H73   S    
C19   H66   S    
O28   P5    S    
Ba2   O23   S    
C64   H88   S    
C63   H84   S    
C8    C9    A    
C59   H62   S    
C23   C34   S    
Ba1   O19   S    
H36   N7    S    
C65   H15   S    
C52   H3    S    
C10   C11   A    
C48   H32   S    
C63   H86   S    
C53   H38   S    
C25   C26   A    
C26   P6    S    
C61   H74   S    
O4    P1    S    
C28   C40   S    
Ba2   O5    S    
O2    P5    D    
C60   H71   S    
C2    C7    A    
C19   C20   S    
C1    H9    S    
C54   H43   S    
O26   P4    S    
C55   H49   S    
C13   H21   S    
