data_mof_unit_28202.cif
_audit_creation_date              2012-12-11T20:22:10-0500
_audit_creation_method            fapswitch 2.2
_symmetry_space_group_name_H-M    P1
_symmetry_Int_Tables_number       1
_space_group_crystal_system       triclinic
_cell_length_a                    8.256817
_cell_length_b                    17.341806
_cell_length_c                    26.922227
_cell_angle_alpha                 99.411873
_cell_angle_beta                  93.092044
_cell_angle_gamma                 81.510029
_cell_volume                      3759.6197323

loop_
_atom_site_label
_atom_site_type_symbol
_atom_type_description
_atom_site_fract_x
_atom_site_fract_y
_atom_site_fract_z
_atom_type_partial_charge
Ba1   Ba    Ba6+2 0.860160 0.462360 0.521850 1.671177
Ba2   Ba    Ba6+2 0.329680 0.537570 0.478140 1.663679
Br1   Br    Br    0.796683 0.720856 0.022206 -0.577150
Br2   Br    Br    0.388910 0.215322 0.370379 -0.605880
C1    C     C_3   0.751965 0.172542 0.652624 -0.353883
C2    C     C_R   0.903108 0.580062 0.180366 0.589185
C3    C     C_2   0.755739 0.556438 0.275114 -0.081329
C4    C     C_3   0.207047 0.237275 0.646909 0.316162
C5    C     C_3   0.734034 0.581498 0.330920 -0.054786
C6    C     C_1   0.987307 0.492307 0.343854 0.045367
C7    C     C_2   0.027257 0.489129 0.295944 -0.099797
C8    C     C_2   0.903198 0.519903 0.257910 0.185019
C9    C     C_R   0.012674 0.505011 0.101701 -0.082784
C10   C     C_R   0.049659 0.438139 0.126018 -0.028028
C11   C     C_R   0.120467 0.366831 0.098058 -0.051322
C12   C     C_3   0.685893 0.251810 0.636866 0.391032
C13   C     C_R   0.937573 0.576014 0.129057 -0.070059
C14   C     C_2   0.851345 0.534292 0.363063 -0.294675
C15   C     C_2   0.351176 0.479786 0.639923 -0.258765
C16   C     C_3   0.150425 0.215882 0.695064 -0.306617
C17   C     C_R   0.138906 0.421983 0.968821 0.023280
C18   C     C_R   0.074396 0.566335 0.976926 0.033838
C19   C     C_R   0.125427 0.492181 0.947261 0.050502
C20   C     C_R   0.178267 0.349083 0.936786 -0.098424
C21   C     C_R   0.209202 0.345775 0.885960 -0.057255
C22   C     C_R   0.205779 0.414980 0.864988 -0.026038
C23   C     C_3   0.498050 0.652300 0.633469 0.288430
C24   C     C_R   0.165773 0.488422 0.895795 -0.080983
C25   C     C_R   0.167466 0.558166 0.875381 -0.040058
C26   C     C_R   0.206794 0.553539 0.824264 0.601155
C27   C     C_R   0.241429 0.412123 0.813829 0.592062
C28   C     C_3   0.186922 0.279230 0.393077 0.538803
C29   C     C_2   0.424506 0.433822 0.722931 -0.088140
C30   C     C_3   0.451310 0.418734 0.666787 -0.078998
C31   C     C_1   0.209151 0.515808 0.657905 0.033602
C32   C     C_2   0.168075 0.517858 0.705362 -0.078748
C33   C     C_2   0.283268 0.476731 0.741168 0.220253
C34   C     C_3   0.501466 0.671507 0.690636 -0.346873
C35   C     C_R   0.113470 0.427129 0.021460 0.031620
C36   C     C_R   0.048616 0.500681 0.049804 0.024617
C37   C     C_R   0.016313 0.569570 0.026403 -0.012100
C38   C     C_R   0.150874 0.361231 0.046976 -0.094603
C39   C     C_R   0.890530 0.641022 0.104055 -0.040663
C40   C     C_3   0.065309 0.219997 0.385827 -0.287975
C41   C     C_R   0.093432 0.634754 0.957034 -0.038822
C42   C     C_R   0.135664 0.630983 0.907109 -0.038427
C43   C     C_R   0.922688 0.637718 0.053318 0.235956
C44   C     C_2   0.442348 0.279505 0.512051 -0.216119
C45   C     C_3   0.035932 0.707127 0.347379 0.329105
C46   C     C_3   0.380642 0.230943 0.546659 -0.092757
C47   C     C_2   0.429072 0.143919 0.530649 -0.099964
C48   C     C_2   0.555612 0.116931 0.499647 0.021769
C49   C     C_2   0.634151 0.174710 0.477209 -0.083161
C50   C     C_1   0.571726 0.250306 0.484449 0.091814
C51   C     C_R   0.792511 0.863912 0.475851 -0.125242
C52   C     C_3   0.976618 0.703365 0.588784 0.310126
C53   C     C_R   0.848513 0.783005 0.468439 0.013733
C54   C     C_R   0.620469 0.760293 0.514382 0.038254
C55   C     C_R   0.564827 0.841026 0.522493 -0.115288
C56   C     C_3   0.050302 0.728990 0.295503 -0.297948
C57   C     C_R   0.648749 0.893265 0.502636 0.013619
C58   C     C_2   0.616199 0.031560 0.486316 -0.066881
C59   C     C_2   0.592076 0.978434 0.515381 -0.079981
C60   C     C_R   0.758267 0.731125 0.485653 -0.285211
C61   C     C_3   0.952623 0.792495 0.604753 -0.380334
C62   C     C_3   0.687962 0.371976 0.370657 0.322521
C63   C     C_3   0.696805 0.354534 0.313566 -0.324932
C64   C     C_3   0.489124 0.749151 0.371170 0.351008
C65   C     C_3   0.437394 0.828647 0.353926 -0.348532
C66   C     C_R   0.013544 0.443678 0.177608 0.603183
H1    H     H_    0.698597 0.246538 0.595488 0.030915
H2    H     H_    0.586388 0.420461 0.380783 0.089981
H3    H     H_    0.874434 0.150400 0.636981 0.141976
H4    H     H_    0.709335 0.408865 0.298400 0.057078
H5    H     H_    0.583046 0.332389 0.297010 0.164115
H6    H     H_    0.554247 0.264280 0.646166 -0.099750
H7    H     H_    0.668729 0.128816 0.637615 0.058816
H8    H     H_    0.372651 0.641137 0.620466 0.016945
H9    H     H_    0.586980 0.598234 0.622525 0.065575
H10   H     H_    0.411252 0.724438 0.703021 0.136426
H11   H     H_    0.469794 0.620920 0.706829 0.080981
H12   H     H_    0.085392 0.181288 0.415178 0.114124
H13   H     H_    0.625857 0.683081 0.704779 0.134077
H14   H     H_    0.759787 0.178091 0.694340 0.120333
H15   H     H_    0.251632 0.217303 0.723888 0.124470
H16   H     H_    0.118815 0.651084 0.349766 0.087095
H17   H     H_    0.907252 0.698879 0.351760 -0.048153
H18   H     H_    0.163167 0.755715 0.293394 0.149389
H19   H     H_    0.057190 0.674990 0.266948 0.119881
H20   H     H_    0.942659 0.771752 0.286864 0.127060
H21   H     H_    0.625333 0.738144 0.371708 -0.064305
H22   H     H_    0.497201 0.874646 0.378789 0.078382
H23   H     H_    0.940221 0.250641 0.386560 0.130062
H24   H     H_    0.302735 0.845438 0.355880 0.151916
H25   H     H_    0.237112 0.298648 0.655168 0.013108
H26   H     H_    0.475012 0.825888 0.314614 0.130942
H27   H     H_    0.150055 0.464303 0.284051 0.138786
H28   H     H_    0.152091 0.314424 0.115588 0.131156
H29   H     H_    0.510714 0.403212 0.747507 0.101023
H30   H     H_    0.237811 0.288254 0.863137 0.119617
H31   H     H_    0.181819 0.293180 0.949694 0.075522
H32   H     H_    0.659711 0.577337 0.249388 0.122236
H33   H     H_    0.820887 0.694285 0.123452 0.164121
H34   H     H_    0.857589 0.683727 0.576875 0.002448
H35   H     H_    0.083847 0.691859 0.980444 0.140088
H36   H     H_    0.318532 0.195032 0.635575 -0.035749
H37   H     H_    0.145133 0.685623 0.893609 0.135738
H38   H     H_    0.051675 0.550114 0.718722 0.110041
H39   H     H_    0.390475 0.487764 0.603487 0.064187
H40   H     H_    0.526552 0.997046 0.550093 0.067427
H41   H     H_    0.738491 0.153807 0.453238 0.081778
H42   H     H_    0.866095 0.903523 0.463516 0.077804
H43   H     H_    0.684020 0.012634 0.451982 0.084000
H44   H     H_    0.043691 0.258532 0.709812 0.169192
H45   H     H_    0.060818 0.688147 0.556853 0.074853
H46   H     H_    0.459099 0.863294 0.545477 0.075045
H47   H     H_    0.392135 0.341518 0.515540 0.070455
H48   H     H_    0.196783 0.307087 0.433149 -0.015496
H49   H     H_    0.076702 0.182425 0.348199 0.140775
H50   H     H_    0.803906 0.309334 0.302420 0.135680
H51   H     H_    0.445946 0.752916 0.410008 0.076223
H52   H     H_    0.208060 0.304571 0.028617 0.076501
H53   H     H_    0.837705 0.548452 0.403516 0.085166
H54   H     H_    0.363216 0.104420 0.546363 0.063076
H55   H     H_    0.803200 0.668597 0.480556 0.064281
H56   H     H_    0.861453 0.809624 0.634874 0.131687
H57   H     H_    0.117167 0.155252 0.687940 0.088397
H58   H     H_    0.908393 0.822632 0.572401 0.063003
H59   H     H_    0.070843 0.812256 0.619084 0.127391
H60   H     H_    0.804441 0.390613 0.386777 -0.033615
N1    N     N_R   0.941495 0.514382 0.204625 -0.422612
N2    N     N_R   0.242588 0.480961 0.793862 -0.424367
O1    O     O_2   0.906370 0.542040 0.619810 -0.455643
O2    O     O_2   0.184202 0.781574 0.477950 -0.481486
O3    O     O_3   0.080829 0.767765 0.384262 -0.600740
O4    O     O_3   0.138370 0.541980 0.559630 -0.495074
O5    O     O_3   0.572820 0.404940 0.471170 -0.492880
O6    O     O_2   0.345130 0.693150 0.532000 -0.460027
O7    O     O_3   0.540119 0.716275 0.613449 -0.639270
O8    O     O_2   0.412997 0.536821 0.323643 -0.498920
O9    O     O_3   0.419971 0.689759 0.338356 -0.592128
O10   O     O_2   0.043633 0.385053 0.198074 -0.582484
O11   O     O_2   0.270438 0.348113 0.786933 -0.622948
O12   O     O_3   0.661244 0.303255 0.388066 -0.588143
O13   O     O_2   0.839074 0.642730 0.203472 -0.613295
O14   O     O_2   0.210939 0.614170 0.807041 -0.589739
O15   O     O_3   0.686580 0.398330 0.583860 -0.476565
O16   O     O_2   0.770872 0.465414 0.676247 -0.478213
O17   O     O_3   0.041040 0.668299 0.630049 -0.629529
O18   O     O_3   0.772778 0.311322 0.662448 -0.570642
O19   O     O_2   0.844570 0.306830 0.467970 -0.478965
O20   O     O_3   0.101900 0.357890 0.557750 -0.461561
O21   O     O_2   0.056722 0.215966 0.510297 -0.484873
O22   O     O_3   0.083309 0.231044 0.609005 -0.571545
O23   O     O_2   0.283330 0.457940 0.380160 -0.455485
O24   O     O_3   0.051340 0.457960 0.440360 -0.499951
O25   O     O_3   0.503130 0.601610 0.416130 -0.478723
O26   O     O_3   0.141734 0.333494 0.359710 -0.612548
O27   O     O_3   0.616890 0.595000 0.528820 -0.482593
O28   O     O_3   0.087820 0.642040 0.442240 -0.497555
P1    P     P_3+3 0.071770 0.565500 0.613330 0.994427
P2    P     P_3+3 0.664870 0.318630 0.453960 1.014307
P3    P     P_3+3 0.155465 0.256702 0.554847 0.978147
P4    P     P_3+3 0.117940 0.434440 0.386660 1.011777
P5    P     P_3+3 0.051199 0.744218 0.443503 0.946873
P6    P     P_3+3 0.670886 0.401525 0.648626 0.974821
P7    P     P_3+3 0.531253 0.693516 0.547648 0.950606
P8    P     P_3+3 0.517670 0.598525 0.351495 0.941935

loop_
_geom_bond_atom_site_label_1
_geom_bond_atom_site_label_2
_ccdc_geom_bond_type
C65   H26   S    
O8    P8    D    
Ba2   O23   S    
C8    N1    S    
C34   H13   S    
C32   H38   S    
O16   P6    D    
C45   H17   S    
C31   C32   D    
C23   H8    S    
C56   H18   S    
C49   C50   D    
C44   C50   D    
C4    H25   S    
C27   N2    Am   
C45   C56   S    
O21   P3    D    
C32   C33   S    
C20   H31   S    
C23   H9    S    
O5    P2    S    
C51   H42   S    
C18   C37   A    
C62   O12   S    
C23   C34   S    
C52   C61   S    
O18   P6    S    
C64   H21   S    
Ba1   O20   S    
Ba1   Ba2   S    
C57   C59   S    
C9    C36   A    
C40   H23   S    
C12   O18   S    
C62   H2    S    
O27   P7    S    
Ba2   O27   S    
C1    C12   S    
C3    H32   S    
C40   H12   S    
C6    P4    S    
C65   H22   S    
C4    O22   S    
C63   H50   S    
O26   P4    S    
C14   H53   S    
C49   H41   S    
C44   C46   S    
C62   C63   S    
C45   O3    S    
Ba1   P1    S    
C22   C27   A    
C9    C10   A    
C42   H37   S    
C1    H3    S    
C47   H54   S    
C10   C66   A    
C39   H33   S    
C12   H1    S    
Ba1   O1    S    
O25   P8    S    
C18   C19   A    
C41   H35   S    
C26   O14   D    
C35   C38   A    
C28   O26   S    
O4    P1    S    
C15   H39   S    
C54   C60   A    
C3    C8    D    
C66   O10   D    
C55   C57   A    
C47   C48   D    
Ba2   O6    S    
C61   H58   S    
O22   P3    S    
Ba1   O27   S    
C20   C21   A    
C52   H34   S    
C16   H57   S    
C65   H24   S    
Ba2   P4    S    
C35   C36   A    
C2    O13   D    
C64   C65   S    
C40   H49   S    
C54   C55   A    
C55   H46   S    
C23   O7    S    
O1    P1    D    
O6    P7    D    
C29   H29   S    
Ba1   O24   S    
C13   C39   A    
C25   C26   A    
O15   P6    S    
C21   H30   S    
C17   C35   A    
O19   P2    D    
C16   H15   S    
C58   C59   D    
C46   C47   S    
C37   C43   A    
O2    P5    D    
C64   O9    S    
C63   H4    S    
C31   P1    S    
O28   P5    S    
C50   P2    S    
O7    P7    S    
C54   P7    S    
O24   P4    S    
Br2   C28   S    
C58   H43   S    
C36   C37   A    
C4    C16   S    
Ba1   P2    S    
C17   C19   A    
C34   H11   S    
Ba1   O15   S    
O17   P1    S    
C19   C24   A    
C11   H28   S    
C1    H7    S    
Ba1   O4    S    
Ba1   O5    S    
C48   C49   S    
C38   H52   S    
C53   C60   A    
C29   C33   D    
C3    C5    S    
C2    C13   A    
C56   H19   S    
C24   C25   A    
O9    P8    S    
Ba2   O24   S    
O12   P2    S    
C46   P3    S    
C12   H6    S    
Ba2   O5    S    
C45   H16   S    
C5    P8    S    
C11   C38   A    
C28   H48   S    
C2    N1    Am   
C15   C30   S    
C4    H36   S    
C64   H51   S    
C61   H59   S    
C7    C8    S    
C44   H47   S    
C56   H20   S    
O23   P4    D    
C22   C24   A    
C33   N2    S    
C9    C13   A    
C25   C42   A    
C7    H27   S    
C61   H56   S    
C59   H40   S    
C51   C53   A    
C21   C22   A    
C48   C58   S    
C16   H44   S    
C34   H10   S    
C6    C14   D    
Ba2   O25   S    
C26   N2    Am   
C51   C57   A    
Br1   C43   S    
C66   N1    Am   
C52   H45   S    
C29   C30   S    
Ba1   O19   S    
C27   O11   D    
Ba2   O4    S    
O3    P5    S    
O20   P3    S    
C6    C7    D    
C41   C42   A    
C5    C14   S    
C18   C41   A    
C63   H5    S    
C28   C40   S    
C1    H14   S    
Ba2   O28   S    
C60   H55   S    
C17   C20   A    
C10   C11   A    
C53   P5    S    
C15   C31   D    
C52   O17   S    
C30   P6    S    
C39   C43   A    
C62   H60   S    
