data_mof_unit_34140.cif
_audit_creation_date              2012-12-10T17:47:12-0500
_audit_creation_method            fapswitch 2.2
_symmetry_space_group_name_H-M    P1
_symmetry_Int_Tables_number       1
_space_group_crystal_system       triclinic
_cell_length_a                    11.657343
_cell_length_b                    14.666358
_cell_length_c                    14.922517
_cell_angle_alpha                 63.110345
_cell_angle_beta                  104.64413
_cell_angle_gamma                 102.385949
_cell_volume                      2186.66576029

loop_
_atom_site_label
_atom_site_type_symbol
_atom_type_description
_atom_site_fract_x
_atom_site_fract_y
_atom_site_fract_z
_atom_type_partial_charge
C1    C     C_R   0.475485 0.121271 0.312335 0.874225
C2    C     C_R   0.518980 0.878593 0.687993 0.829077
C3    C     C_R   0.301790 0.360581 0.066298 -0.112621
C4    C     C_R   0.614345 0.672511 0.002988 -0.132610
C5    C     C_R   0.478733 0.480489 0.085822 -0.133943
C6    C     C_R   0.425051 0.561185 0.999540 -0.159261
C7    C     C_R   0.299276 0.546867 0.969791 0.349370
C8    C     C_R   0.582655 0.507352 0.147055 0.394552
C9    C     C_R   0.238582 0.446523 0.999911 0.416756
C10   C     C_R   0.648835 0.603381 0.105915 0.417123
C11   C     C_R   0.747553 0.316885 0.594406 0.250406
C12   C     C_R   0.305031 0.735253 0.313574 0.230306
C13   C     C_R   0.690992 0.217432 0.608246 0.458823
C14   C     C_R   0.329915 0.804736 0.359583 0.447563
C15   C     C_R   0.505687 0.283090 0.518166 0.588329
C16   C     C_R   0.493240 0.714959 0.479389 0.545009
C17   C     C_R   0.557707 0.385815 0.500704 -0.144108
C18   C     C_R   0.470906 0.645000 0.432192 -0.112945
C19   C     C_R   0.680164 0.400354 0.541856 -0.052280
C20   C     C_R   0.369065 0.650553 0.356399 -0.068851
C21   C     C_R   0.493387 0.474536 0.446954 0.013263
C22   C     C_R   0.543304 0.565456 0.461681 0.027698
C23   C     C_R   0.284460 0.999855 0.500561 0.826335
C24   C     C_R   0.715695 0.999648 0.500318 0.796938
C25   C     C_R   0.668339 0.582379 0.485020 0.374941
C26   C     C_R   0.391167 0.482157 0.369459 0.412003
C27   C     C_R   0.735397 0.499428 0.527242 -0.207993
C28   C     C_R   0.333015 0.571499 0.323104 -0.231121
C29   C     C_1   0.163044 0.999462 0.501915 -0.183278
C30   C     C_1   0.837499 0.998923 0.501069 -0.165395
C31   C     C_1   0.060395 0.999046 0.502219 -0.001303
C32   C     C_1   0.940311 0.998756 0.501755 0.007064
C33   C     C_R   0.428407 0.193316 0.208716 -0.177847
C34   C     C_R   0.545112 0.808019 0.796959 -0.172680
C35   C     C_R   0.245264 0.257906 0.094205 0.465742
C36   C     C_R   0.692021 0.760534 0.954076 0.465931
C37   C     C_R   0.308686 0.175731 0.167849 -0.383949
C38   C     C_R   0.654861 0.827845 0.852714 -0.408314
C39   C     C_R   0.489267 0.292037 0.168962 0.418952
C40   C     C_R   0.469275 0.717566 0.842261 0.408010
C41   C     C_R   0.424091 0.377900 0.108566 -0.128827
C42   C     C_R   0.499668 0.652207 0.948443 -0.144377
Cu1   Cu    Cu3+1 0.469550 0.918260 0.475690 0.980116
Cu2   Cu    Cu3+1 0.530450 0.081740 0.524310 1.024223
H1    H     H_    0.715535 0.893252 0.814419 0.176177
H2    H     H_    0.262450 0.098705 0.198107 0.199256
H3    H     H_    0.831368 0.513238 0.548258 0.183141
H4    H     H_    0.256794 0.577502 0.262325 0.209214
N1    N     N_R   0.576230 0.204580 0.560790 -0.302949
N2    N     N_R   0.423770 0.795420 0.439210 -0.284766
O1    O     O_R   0.459870 0.022090 0.338120 -0.546820
O2    O     O_R   0.540130 0.977910 0.661880 -0.572683
O3    O     O_R   0.511290 0.160150 0.379180 -0.539506
O4    O     O_R   0.488710 0.839850 0.620820 -0.561505
O5    O     O_R   0.311490 0.930960 0.479480 -0.548484
O6    O     O_R   0.688510 0.069040 0.520520 -0.507837
O7    O     O_R   0.362910 0.069020 0.520540 -0.556224
O8    O     O_R   0.637090 0.930980 0.479460 -0.621562
O9    O     O_3   0.115393 0.433313 0.972770 -0.506748
C43   C     C_3   0.084296 0.450995 0.868798 0.155531
H5    H     H_    0.134219 0.405905 0.851191 0.127918
H6    H     H_    0.101836 0.534130 0.818701 0.178301
C44   C     C_3   0.951436 0.418301 0.844295 -0.760502
H7    H     H_    0.899042 0.461480 0.861578 0.243995
H8    H     H_    0.925235 0.434764 0.762020 0.220873
H9    H     H_    0.930651 0.334533 0.890415 0.265488
O10   O     O_3   0.751631 0.625843 0.166353 -0.497456
C45   C     C_3   0.724879 0.684632 0.210087 0.177434
H10   H     H_    0.669633 0.635518 0.269811 0.161944
H11   H     H_    0.676481 0.751056 0.151832 0.120289
C46   C     C_3   0.840929 0.727672 0.258791 -0.722710
H12   H     H_    0.900512 0.771616 0.201734 0.269572
H13   H     H_    0.821856 0.780508 0.286422 0.207914
H14   H     H_    0.886828 0.664033 0.323997 0.240183
O11   O     O_3   0.724048 0.681790 0.450944 -0.784337
H15   H     H_    0.811663 0.680869 0.473380 0.308880
O12   O     O_3   0.358944 0.409576 0.329850 -0.701711
H16   H     H_    0.288570 0.428315 0.274237 0.326265
O13   O     O_3   0.367996 0.693450 0.780934 -0.563551
C47   C     C_3   0.387829 0.615227 0.757702 0.133901
H17   H     H_    0.375580 0.538311 0.821671 0.102957
H18   H     H_    0.479394 0.626497 0.742370 0.182817
C48   C     C_3   0.298020 0.614831 0.663955 -0.735285
H19   H     H_    0.304021 0.691958 0.599221 0.263650
H20   H     H_    0.316398 0.557201 0.641895 0.203054
H21   H     H_    0.206022 0.594982 0.680356 0.210348
O14   O     O_3   0.612495 0.303280 0.194656 -0.545911
C49   C     C_3   0.660574 0.311874 0.112961 0.029991
H22   H     H_    0.629912 0.378268 0.040729 0.137187
H23   H     H_    0.634903 0.239802 0.101286 0.132457
C50   C     C_3   0.796017 0.329428 0.137929 -0.667687
H24   H     H_    0.830036 0.263847 0.208904 0.244911
H25   H     H_    0.835011 0.336112 0.074261 0.208805
H26   H     H_    0.824122 0.401573 0.148880 0.273154
O15   O     O_3   0.127119 0.239148 0.053248 -0.700699
H27   H     H_    0.102627 0.163850 0.080503 0.312378
O16   O     O_3   0.805779 0.777476 0.004637 -0.686662
H28   H     H_    0.848830 0.840832 0.958853 0.316628
O17   O     O_3   0.231671 0.628441 0.919574 -0.680608
H29   H     H_    0.279665 0.689608 0.927800 0.344587
O18   O     O_3   0.616592 0.446818 0.249825 -0.660894
H30   H     H_    0.546486 0.399329 0.276265 0.368982
O19   O     O_3   0.543763 0.675789 0.582921 -0.609465
C51   C     C_3   0.660870 0.721001 0.606336 0.170373
H31   H     H_    0.659372 0.773867 0.639744 0.164223
H32   H     H_    0.706667 0.766091 0.540399 0.194984
C52   C     C_3   0.735661 0.638427 0.690501 -0.874776
H33   H     H_    0.699445 0.605793 0.762332 0.235768
H34   H     H_    0.735147 0.574774 0.669958 0.260381
H35   H     H_    0.829313 0.672760 0.704580 0.222585
O20   O     O_3   0.383195 0.260074 0.500054 -0.510856
C53   C     C_3   0.339837 0.219764 0.592909 0.113844
H36   H     H_    0.400141 0.169003 0.660058 0.109538
H37   H     H_    0.254276 0.170824 0.585148 0.183436
C54   C     C_3   0.313820 0.305483 0.613698 -0.879081
H38   H     H_    0.256599 0.357649 0.545770 0.274535
H39   H     H_    0.266423 0.271468 0.679562 0.218788
H40   H     H_    0.398194 0.350399 0.632654 0.229960
O21   O     O_3   0.261986 0.885372 0.321455 -0.557335
C55   C     C_3   0.146126 0.846884 0.346163 0.052390
H41   H     H_    0.149777 0.816136 0.429830 0.164044
H42   H     H_    0.102310 0.783856 0.322898 0.157220
C56   C     C_3   0.067156 0.933658 0.291216 -0.809962
H43   H     H_    0.051069 0.956895 0.207575 0.232239
H44   H     H_    0.980286 0.907735 0.317966 0.213047
H45   H     H_    0.110597 0.001370 0.306737 0.254862
O22   O     O_3   0.753061 0.132905 0.666593 -0.549407
C57   C     C_3   0.765877 0.110068 0.771433 0.030457
H46   H     H_    0.691137 0.052183 0.803210 0.164692
H47   H     H_    0.765245 0.177651 0.786951 0.135452
C58   C     C_3   0.883994 0.066604 0.828566 -0.808623
H48   H     H_    0.959539 0.128100 0.807147 0.246942
H49   H     H_    0.887608 0.035704 0.912152 0.208983
H50   H     H_    0.894254 0.004232 0.809521 0.246714
O23   O     O_3   0.867995 0.334350 0.630554 -0.752883
H51   H     H_    0.907593 0.273964 0.647033 0.359577
O24   O     O_3   0.220482 0.749640 0.225863 -0.725550
H52   H     H_    0.204084 0.822407 0.191008 0.350762

loop_
_geom_bond_atom_site_label_1
_geom_bond_atom_site_label_2
_ccdc_geom_bond_type
Cu2   N1    S    
C21   C26   A    
C44   H8    S    
O18   H30   S    
O15   H27   S    
C39   O14   S    
Cu1   Cu2   S    
C58   H50   S    
Cu1   O1    S    
C57   H46   S    
C53   H37   S    
O16   H28   S    
C1    C33   S    
O23   H51   S    
C39   C41   A    
C10   O10   S    
C11   C19   A    
C33   C39   A    
C7    O17   S    
C43   C44   S    
C34   C40   A    
C23   C29   S    
C35   C37   A    
C16   N2    A    
C5    C6    A    
C56   H44   S    
C54   H38   S    
C53   C54   S    
C43   H6    S    
C1    O3    A    
C53   H36   S    
C38   H1    S    
Cu1   O4    S    
Cu1   O8    S    
Cu2   O3    S    
C3    C41   A    
C31   C32   S    
C45   H10   S    
C54   H39   S    
C22   C25   A    
C52   H33   S    
C36   O16   S    
C19   C27   A    
C8    O18   S    
C55   C56   S    
Cu2   O2    S    
C40   C42   A    
C44   H9    S    
O9    C43   S    
C34   C38   A    
C21   C22   A    
C52   H34   S    
C47   C48   S    
C51   H32   S    
C51   H31   S    
C55   H42   S    
C26   O12   S    
O10   C45   S    
C24   O8    A    
C15   O20   S    
C56   H43   S    
C4    C36   A    
C47   H18   S    
C2    O4    A    
C50   H24   S    
C46   H13   S    
C56   H45   S    
C20   C28   A    
O12   H16   S    
C33   C37   A    
O13   C47   S    
C43   H5    S    
C25   O11   S    
O11   H15   S    
C3    C9    A    
C11   O23   S    
C50   H25   S    
Cu2   O6    S    
C16   O19   S    
O17   H29   S    
C49   C50   S    
C3    C35   A    
Cu2   O7    S    
C54   H40   S    
C12   C20   A    
C40   O13   S    
C1    O1    A    
C2    O2    A    
C13   N1    A    
C45   H11   S    
C48   H20   S    
C12   C14   A    
C52   H35   S    
C48   H19   S    
C5    C8    A    
C24   O6    A    
C4    C10   A    
C58   H48   S    
C57   C58   S    
C55   H41   S    
C27   H3    S    
C23   O7    A    
C5    C41   A    
C28   H4    S    
O20   C53   S    
C18   C22   A    
C8    C10   A    
C49   H23   S    
C47   H17   S    
C58   H49   S    
C57   H47   S    
C46   H14   S    
O21   C55   S    
Cu1   N2    S    
C23   O5    A    
C6    C7    A    
Cu1   O5    S    
C35   O15   S    
C25   C27   A    
O24   H52   S    
C26   C28   A    
C36   C38   A    
C46   H12   S    
C29   C31   T    
C50   H26   S    
C30   C32   T    
C11   C13   A    
C2    C34   S    
C14   N2    A    
C4    C42   A    
C45   C46   S    
C17   C19   A    
C18   C20   A    
C15   N1    A    
C24   C30   S    
C44   H7    S    
C13   O22   S    
C7    C9    A    
C48   H21   S    
C49   H22   S    
O14   C49   S    
C16   C18   A    
C14   O21   S    
C6    C42   A    
O19   C51   S    
C12   O24   S    
C9    O9    S    
C37   H2    S    
C15   C17   A    
C51   C52   S    
O22   C57   S    
C17   C21   A    
