data_mof_unit_13701.cif
_audit_creation_date              2012-12-10T19:48:03-0500
_audit_creation_method            fapswitch 2.2
_symmetry_space_group_name_H-M    P1
_symmetry_Int_Tables_number       1
_space_group_crystal_system       triclinic
_cell_length_a                    14.853367
_cell_length_b                    14.1802
_cell_length_c                    10.641513
_cell_angle_alpha                 89.994124
_cell_angle_beta                  90.022667
_cell_angle_gamma                 90.007696
_cell_volume                      2241.35479105

loop_
_atom_site_label
_atom_site_type_symbol
_atom_type_description
_atom_site_fract_x
_atom_site_fract_y
_atom_site_fract_z
_atom_type_partial_charge
C1    C     C_R   0.327433 0.500002 0.497372 0.899665
C2    C     C_R   0.570107 0.795535 0.552384 0.033217
C3    C     C_R   0.541099 0.204478 0.595005 0.028111
C4    C     C_R   0.429919 0.795533 0.447562 0.032381
C5    C     C_R   0.500015 0.053386 0.499948 0.136776
C6    C     C_R   0.500024 0.946640 0.499941 0.132969
C7    C     C_R   0.500053 0.499993 0.260742 0.873323
C8    C     C_R   0.500001 0.499992 0.739236 0.879347
C9    C     C_R   0.664185 0.531343 0.130610 -0.140896
C10   C     C_R   0.335709 0.469357 0.869329 -0.141967
C11   C     C_R   0.664370 0.530354 0.869372 -0.152831
C12   C     C_R   0.672578 0.500020 0.497391 0.898420
C13   C     C_R   0.336040 0.468019 0.130561 -0.155175
C14   C     C_R   0.744296 0.546121 0.065377 -0.140876
C15   C     C_R   0.255725 0.453983 0.934718 -0.145905
C16   C     C_R   0.744432 0.545421 0.934785 -0.148340
C17   C     C_R   0.255945 0.453054 0.065303 -0.142870
C18   C     C_R   0.582134 0.515668 0.934395 0.070181
C19   C     C_R   0.418052 0.483759 0.065517 0.066215
C20   C     C_R   0.582093 0.515933 0.065544 0.069090
C21   C     C_R   0.417956 0.484115 0.934371 0.072125
C22   C     C_R   0.500023 0.499962 0.871464 -0.189358
C23   C     C_R   0.048619 0.496731 0.431169 -0.117504
C24   C     C_R   0.500064 0.499936 0.128470 -0.186839
C25   C     C_R   0.101219 0.570935 0.381987 0.492324
C26   C     C_R   0.898932 0.428907 0.382889 0.490129
C27   C     C_R   0.911012 0.578785 0.497242 0.489131
C28   C     C_R   0.088717 0.422304 0.499149 0.486976
C29   C     C_R   0.192316 0.573045 0.409133 -0.292715
C30   C     C_R   0.807890 0.426653 0.410257 -0.290068
C31   C     C_R   0.818932 0.577627 0.517173 -0.330536
C32   C     C_R   0.180830 0.423230 0.518870 -0.330640
C33   C     C_R   0.231746 0.499716 0.477538 -0.180453
C34   C     C_R   0.951325 0.503780 0.430754 -0.117612
C35   C     C_R   0.768265 0.500447 0.477465 -0.181288
C36   C     C_3   0.038918 0.622705 0.198142 0.082566
C37   C     C_3   0.017898 0.711538 0.123775 -0.787130
C38   C     C_3   0.961764 0.375615 0.200218 0.083426
C39   C     C_3   0.982870 0.286137 0.127325 -0.786520
C40   C     C_3   0.984705 0.641347 0.665573 0.079905
C41   C     C_3   0.037334 0.726643 0.711355 -0.770427
C42   C     C_3   0.014402 0.362444 0.668590 0.084060
C43   C     C_3   0.960590 0.278459 0.715928 -0.774543
C44   C     C_R   0.458356 0.105290 0.402916 -0.269413
C45   C     C_R   0.571605 0.894752 0.552986 -0.268620
C46   C     C_R   0.541652 0.105263 0.597011 -0.270972
C47   C     C_R   0.428441 0.894746 0.446911 -0.270039
C48   C     C_R   0.458888 0.204508 0.404978 0.029133
H1    H     H_    0.193975 0.440788 0.116268 0.122771
H2    H     H_    0.767972 0.367675 0.377159 0.191116
H3    H     H_    0.787632 0.635852 0.566633 0.175940
H4    H     H_    0.211976 0.365436 0.569443 0.184836
H5    H     H_    0.426536 0.069839 0.324602 0.138381
H6    H     H_    0.629282 0.930217 0.593282 0.139156
H7    H     H_    0.573469 0.069792 0.675315 0.137315
H8    H     H_    0.370773 0.930201 0.406591 0.140802
H9    H     H_    0.426509 0.243246 0.329948 0.133757
H10   H     H_    0.625477 0.756869 0.593692 0.126159
H11   H     H_    0.573454 0.243185 0.670069 0.132016
H12   H     H_    0.806672 0.556517 0.883980 0.116856
H13   H     H_    0.374556 0.756874 0.406240 0.126893
H14   H     H_    0.977071 0.578805 0.199116 0.114968
H15   H     H_    0.094170 0.584423 0.148866 0.115489
H16   H     H_    0.995560 0.692213 0.027585 0.188126
H17   H     H_    0.963211 0.751756 0.170604 0.268276
H18   H     H_    0.078879 0.756593 0.117132 0.253796
H19   H     H_    0.023665 0.419436 0.200898 0.114446
H20   H     H_    0.906677 0.413566 0.150043 0.114892
H21   H     H_    0.005554 0.304612 0.031019 0.188457
H22   H     H_    0.921833 0.241142 0.120908 0.255109
H23   H     H_    0.193484 0.442802 0.883904 0.116649
H24   H     H_    0.037335 0.246205 0.175154 0.267211
H25   H     H_    0.028905 0.578554 0.675936 0.113569
H26   H     H_    0.923919 0.633044 0.725893 0.116916
H27   H     H_    0.994740 0.790867 0.705689 0.254793
H28   H     H_    0.058480 0.715795 0.810362 0.192414
H29   H     H_    0.098350 0.736692 0.652498 0.266430
H30   H     H_    0.970896 0.425909 0.677147 0.111662
H31   H     H_    0.075069 0.370770 0.729178 0.117822
H32   H     H_    0.002482 0.213648 0.712382 0.256509
H33   H     H_    0.939056 0.290988 0.814394 0.191254
H34   H     H_    0.806342 0.558066 0.116367 0.122905
H35   H     H_    0.899761 0.268326 0.656655 0.265711
H36   H     H_    0.667339 0.532038 0.232020 0.133684
H37   H     H_    0.332297 0.469709 0.767842 0.126138
H38   H     H_    0.667718 0.530147 0.767882 0.122986
H39   H     H_    0.332937 0.467151 0.231971 0.131584
H40   H     H_    0.232435 0.631495 0.374896 0.179183
N1    N     N_R   0.500000 0.252470 0.500000 -0.095888
N2    N     N_R   0.500000 0.747530 0.500000 -0.094492
O1    O     O_R   0.369060 0.579480 0.500010 -0.627063
O2    O     O_3   0.936843 0.351370 0.324031 -0.551742
O3    O     O_3   0.960840 0.655224 0.538541 -0.553798
O4    O     O_3   0.038638 0.346581 0.542139 -0.552978
O5    O     O_R   0.630940 0.420520 0.499990 -0.618433
O6    O     O_R   0.630940 0.579480 0.499990 -0.630502
O7    O     O_R   0.369060 0.420520 0.500010 -0.621217
O8    O     O_R   0.499990 0.579480 0.316780 -0.613911
O9    O     O_R   0.500010 0.420520 0.683220 -0.625610
O10   O     O_R   0.500010 0.579480 0.683220 -0.612640
O11   O     O_R   0.499990 0.420520 0.316780 -0.626545
O12   O     O_3   0.063514 0.647997 0.321726 -0.553307
Zn1   Zn    Zn3+2 0.500000 0.606140 0.500000 0.944603
Zn2   Zn    Zn3+2 0.500000 0.393860 0.500000 0.940612

loop_
_geom_bond_atom_site_label_1
_geom_bond_atom_site_label_2
_ccdc_geom_bond_type
C10   H37   S    
C7    O8    A    
C38   O2    S    
C43   H35   S    
C40   O3    S    
C1    C33   S    
C48   H9    S    
C11   C18   A    
C30   C35   A    
C28   O4    S    
C36   C37   S    
C6    C45   A    
C8    O9    A    
C10   C15   A    
C41   H29   S    
C38   C39   S    
C25   O12   S    
C11   H38   S    
C26   O2    S    
C7    C24   S    
C29   C33   A    
C40   H25   S    
C36   O12   S    
C16   H12   S    
C2    N2    A    
C32   H4    S    
C29   H40   S    
C44   H5    S    
C26   C34   A    
C20   C24   A    
C37   H17   S    
C46   H7    S    
C8    C22   S    
C39   H24   S    
C12   O5    A    
C36   H15   S    
C18   C20   A    
O9    Zn2   S    
C30   H2    S    
C42   H31   S    
C1    O1    A    
C18   C22   A    
C21   C22   A    
C36   H14   S    
C4    N2    A    
C27   C34   A    
C25   C29   A    
C6    C47   A    
C13   C19   A    
C27   C31   A    
C28   C32   A    
C1    O7    A    
C43   H32   S    
C4    H13   S    
O10   Zn1   S    
C9    C14   A    
C31   H3    S    
C41   H27   S    
C11   C16   A    
C9    C20   A    
C23   C34   S    
C37   H18   S    
C13   H39   S    
C39   H21   S    
C23   C28   A    
C12   C35   S    
C40   C41   S    
C5    C44   A    
C38   H20   S    
C45   H6    S    
C26   C30   A    
O11   Zn2   S    
C48   N1    A    
N1    Zn2   S    
C43   H33   S    
C14   C16   A    
C27   O3    S    
C42   C43   S    
C14   H34   S    
C17   H1    S    
C37   H16   S    
O5    Zn2   S    
C15   C17   A    
C19   C21   A    
C42   O4    S    
O1    Zn1   S    
C10   C21   A    
C2    H10   S    
C42   H30   S    
C15   H23   S    
C5    C46   A    
C3    C46   A    
C13   C17   A    
C3    N1    A    
C32   C33   A    
C19   C24   A    
C8    O10   A    
O8    Zn1   S    
C41   H28   S    
C5    C6    S    
C39   H22   S    
C40   H26   S    
C31   C35   A    
C23   C25   A    
N2    Zn1   S    
O7    Zn2   S    
C2    C45   A    
C9    H36   S    
C38   H19   S    
C7    O11   A    
O6    Zn1   S    
C12   O6    A    
C44   C48   A    
C47   H8    S    
C4    C47   A    
C3    H11   S    
