data_mof_unit_9205.cif
_audit_creation_date              2012-12-11T17:06:29-0500
_audit_creation_method            fapswitch 2.2
_symmetry_space_group_name_H-M    P1
_symmetry_Int_Tables_number       1
_space_group_crystal_system       triclinic
_cell_length_a                    6.975
_cell_length_b                    14.494423
_cell_length_c                    15.978851
_cell_angle_alpha                 90.491719
_cell_angle_beta                  89.945864
_cell_angle_gamma                 89.972675
_cell_volume                      1615.37907104

loop_
_atom_site_label
_atom_site_type_symbol
_atom_type_description
_atom_site_fract_x
_atom_site_fract_y
_atom_site_fract_z
_atom_type_partial_charge
O1    O     O_R   0.494400 0.415450 0.412630 -0.532077
O2    O     O_R   0.823940 0.405730 0.586760 -0.543867
O3    O     O_R   0.994240 0.584550 0.587370 -0.538183
C1    C     C_R   0.655169 0.383769 0.615373 0.689518
O4    O     O_R   0.824110 0.404430 0.413240 -0.545347
O5    O     O_R   0.994420 0.583240 0.412620 -0.542613
C2    C     C_R   0.655482 0.382138 0.384407 0.724040
O6    O     O_R   0.494230 0.416760 0.587380 -0.539778
O7    O     O_3   0.660800 0.558670 0.500000 -0.367673
V1    V     V_3+5 0.935650 0.489120 0.500000 1.395864
O8    O     O_R   0.324140 0.594270 0.413240 -0.522533
C3    C     C_R   0.155223 0.615862 0.384123 0.711540
O9    O     O_R   0.323960 0.595570 0.586760 -0.547453
C4    C     C_R   0.155078 0.617024 0.615844 0.700742
V2    V     V_3+5 0.435660 0.510880 0.500000 1.422599
O10   O     O_3   0.160640 0.441330 0.500000 -0.374335
C5    C     C_3   0.014400 0.677648 0.763818 0.157781
C6    C     C_3   0.182870 0.707344 0.820951 -0.200000
H1    H     H_    0.223739 0.674323 0.880776 0.117158
C7    C     C_3   0.121860 0.809140 0.810478 -0.054242
C8    C     C_3   0.956240 0.778780 0.753950 0.402505
C9    C     C_3   0.082934 0.788097 0.675454 -0.273453
C10   C     C_3   0.252376 0.818294 0.732682 -0.155040
C11   C     C_3   0.313462 0.715772 0.742409 -0.115485
C12   C     C_3   0.143798 0.686242 0.686133 -0.071783
H2    H     H_    0.039903 0.821089 0.615910 0.114872
H3    H     H_    0.351358 0.876601 0.720429 0.133782
H4    H     H_    0.461302 0.688163 0.737376 0.136159
C13   C     C_R   0.277447 0.812904 0.236784 0.036500
C14   C     C_R   0.118820 0.815351 0.183024 -0.092043
C15   C     C_R   0.966626 0.754497 0.199858 -0.179664
H5    H     H_    0.843221 0.752563 0.159127 0.147949
C16   C     C_R   0.978499 0.690643 0.265638 -0.188396
H6    H     H_    0.864892 0.641236 0.273802 0.191580
C17   C     C_R   0.142056 0.685476 0.316725 -0.108844
C18   C     C_R   0.289406 0.748608 0.301491 0.027928
C19   C     C_3   0.494843 0.728951 0.281780 0.195727
C20   C     C_3   0.483129 0.801375 0.213601 -0.451913
H7    H     H_    0.593287 0.747167 0.333997 0.114941
H8    H     H_    0.502252 0.773998 0.148881 0.174983
H9    H     H_    0.567989 0.864394 0.228165 0.146623
C21   C     C_R   0.491082 0.252152 0.687607 0.100205
C22   C     C_R   0.646938 0.312533 0.681047 -0.106281
C23   C     C_R   0.799531 0.300790 0.737580 -0.175842
H10   H     H_    0.922502 0.345928 0.734930 0.130618
C24   C     C_R   0.788508 0.235190 0.801945 -0.180522
H11   H     H_    0.904170 0.231083 0.846749 0.130452
C25   C     C_R   0.624004 0.179950 0.811901 -0.107022
C26   C     C_R   0.479709 0.187570 0.751529 0.101976
C27   C     C_3   0.270370 0.203581 0.763030 -0.417121
C28   C     C_3   0.282684 0.273665 0.693097 -0.396661
H12   H     H_    0.237369 0.235130 0.825032 0.172015
H13   H     H_    0.183944 0.141737 0.746210 0.172918
H14   H     H_    0.256150 0.345782 0.714401 0.166445
H15   H     H_    0.203917 0.252219 0.635702 0.173910
C29   C     C_R   0.501601 0.245172 0.313578 -0.012479
C30   C     C_R   0.647821 0.311402 0.317072 -0.094847
C31   C     C_R   0.790112 0.307423 0.254433 -0.158546
H16   H     H_    0.906657 0.356724 0.254760 0.129059
C32   C     C_R   0.775204 0.244349 0.187044 -0.151088
H17   H     H_    0.877045 0.247901 0.136270 0.179315
C33   C     C_R   0.622451 0.181263 0.181872 -0.130140
C34   C     C_R   0.490388 0.180944 0.247955 0.030887
C35   C     C_3   0.276445 0.189049 0.245415 0.484316
C36   C     C_3   0.289274 0.257798 0.318342 -0.426588
H18   H     H_    0.230086 0.231921 0.378365 0.154861
H19   H     H_    0.244048 0.329146 0.302641 0.161052
O11   O     O_R   0.771650 0.079500 0.908680 -0.540460
O12   O     O_R   0.441690 0.091800 0.082800 -0.521662
O13   O     O_R   0.271460 0.912980 0.083410 -0.540266
C37   C     C_R   0.610427 0.114125 0.111641 0.705176
O14   O     O_R   0.441930 0.090510 0.909280 -0.542304
O15   O     O_R   0.271690 0.911670 0.908660 -0.538159
C38   C     C_R   0.611024 0.112880 0.881003 0.699494
O16   O     O_R   0.771410 0.080810 0.083440 -0.538181
O17   O     O_3   0.605100 0.937580 0.996050 -0.367777
V3    V     V_3+5 0.330220 0.007110 0.996030 1.446149
O18   O     O_R   0.941980 0.900620 0.909250 -0.518816
C39   C     C_R   0.110826 0.878886 0.880369 0.706394
O19   O     O_R   0.941740 0.901920 0.082770 -0.547288
C40   C     C_R   0.110497 0.880137 0.111695 0.678113
V4    V     V_3+5 0.830220 0.985300 0.996000 1.450413
O20   O     O_3   0.105210 0.054870 0.996020 -0.365550
C41   C     C_3   0.877082 0.598776 0.781945 -0.788172
H20   H     H_    0.802702 0.611891 0.842305 0.214219
H21   H     H_    0.769103 0.593191 0.731209 0.206406
H22   H     H_    0.958236 0.533065 0.785709 0.192658
C42   C     C_3   0.173417 0.098843 0.266075 -0.684655
H23   H     H_    0.018606 0.112400 0.276631 0.204708
H24   H     H_    0.188633 0.049309 0.213170 0.203556
H25   H     H_    0.234229 0.066987 0.323246 0.154410
O21   O     O_3   0.210200 0.227869 0.170349 -0.640153
H26   H     H_    0.279414 0.286708 0.160577 0.274401
O22   O     O_3   0.768887 0.812236 0.761268 -0.647343
H27   H     H_    0.708506 0.800374 0.706115 0.269023
O23   O     O_3   0.523109 0.638579 0.250689 -0.649725
H28   H     H_    0.432528 0.627072 0.203785 0.296434

loop_
_geom_bond_atom_site_label_1
_geom_bond_atom_site_label_2
_ccdc_geom_bond_type
C37   O16   A    
O12   V3    S    
C17   C18   A    
C41   H22   S    
C1    O6    A    
C13   C18   A    
C33   C34   A    
C6    C11   S    
C18   C19   S    
C19   C20   S    
C41   H21   S    
O5    C3    A    
C14   C15   A    
C8    O22   S    
V3    O20   S    
C31   C32   A    
V2    O10   S    
C29   C30   A    
C32   C33   A    
C6    H1    S    
O12   C37   A    
O13   C40   A    
O8    V2    S    
C36   H19   S    
C9    C12   S    
C13   C20   S    
C27   H12   S    
C10   C11   S    
C15   C16   A    
O1    V2    S    
C10   H3    S    
C13   C14   A    
O7    V1    S    
C28   H15   S    
C21   C28   S    
C42   H23   S    
O9    C4    A    
O13   V3    S    
C23   C24   A    
C27   C28   S    
O17   V3    S    
C24   C25   A    
C27   H13   S    
C25   C38   S    
C11   C12   S    
C20   H9    S    
O14   C38   A    
O17   V4    S    
O4    C2    A    
O18   C39   A    
C31   H16   S    
C7    C10   S    
V4    O20   S    
C5    C8    S    
C19   O23   S    
C32   H17   S    
O2    C1    A    
C22   C23   A    
O14   V3    S    
O18   V4    S    
C15   H5    S    
C42   H25   S    
O23   H28   S    
C5    C6    S    
O15   C39   A    
C29   C34   A    
C41   H20   S    
C3    C17   S    
O3    C4    A    
O19   V4    S    
C25   C26   A    
C42   H24   S    
C26   C27   S    
O6    V2    S    
O9    V2    S    
C21   C22   A    
C35   O21   S    
O2    V1    S    
C23   H10   S    
C24   H11   S    
C7    C39   S    
O1    C2    A    
C11   H4    S    
O19   C40   A    
O5    V1    S    
O8    C3    A    
O16   V4    S    
C1    C22   S    
C28   H14   S    
C5    C12   S    
C35   C36   S    
C5    C41   S    
C14   C40   S    
O7    V2    S    
O11   V4    S    
O4    V1    S    
C19   H7    S    
O3    V1    S    
V1    O10   S    
C20   H8    S    
C30   C31   A    
O21   H26   S    
C16   C17   A    
C16   H6    S    
C33   C37   S    
C6    C7    S    
C4    C12   S    
O22   H27   S    
C2    C30   S    
C21   C26   A    
C34   C35   S    
C7    C8    S    
C36   H18   S    
C9    H2    S    
O15   V3    S    
C9    C10   S    
C8    C9    S    
O11   C38   A    
C35   C42   S    
C29   C36   S    
