data_mof_unit_61570.cif
_audit_creation_date              2013-03-05T16:28:02-0500
_audit_creation_method            fapswitch 2.2
_symmetry_space_group_name_H-M    P1
_symmetry_Int_Tables_number       1
_space_group_crystal_system       triclinic
_cell_length_a                    15.838963
_cell_length_b                    19.40022
_cell_length_c                    18.416956
_cell_angle_alpha                 90.240292
_cell_angle_beta                  89.771296
_cell_angle_gamma                 92.112347
_cell_volume                      5655.21361459

loop_
_atom_site_label
_atom_site_type_symbol
_atom_site_description
_atom_site_fract_x
_atom_site_fract_y
_atom_site_fract_z
_atom_type_partial_charge
O1    O     O_R   0.499960 0.400180 0.561980 -0.554894
O2    O     O_R   0.500040 0.599820 0.438020 -0.567982
O3    O     O_R   0.500000 0.400190 0.438070 -0.561623
O4    O     O_R   0.500000 0.599810 0.561930 -0.561058
C1    C     C_R   0.501012 0.367760 0.499665 0.821767
C2    C     C_R   0.499131 0.632274 0.500093 0.821291
O5    O     O_R   0.379060 0.499990 0.561940 -0.553026
O6    O     O_R   0.620940 0.500010 0.438060 -0.535710
O7    O     O_R   0.379100 0.500000 0.438040 -0.544579
O8    O     O_R   0.620900 0.500000 0.561960 -0.548706
C3    C     C_R   0.339933 0.499817 0.500091 0.835371
C4    C     C_R   0.660065 0.500149 0.499893 0.837762
Cu1   Cu    Cu3+1 0.499980 0.500000 0.573360 1.065654
Cu2   Cu    Cu3+1 0.500020 0.500000 0.426640 1.069912
C5    C     C_3   0.968872 0.438732 0.523443 -0.154246
C6    C     C_3   0.031119 0.561142 0.475837 -0.152665
C7    C     C_3   0.026034 0.449440 0.455712 -0.121933
C8    C     C_3   0.973962 0.550433 0.543567 -0.137841
H1    H     H_    0.048826 0.407999 0.419663 0.180112
H2    H     H_    0.951192 0.591885 0.579612 0.173048
H3    H     H_    0.941928 0.388493 0.542972 0.164153
H4    H     H_    0.058067 0.611378 0.456305 0.164228
H5    H     H_    0.949268 0.519614 0.376005 0.188565
H6    H     H_    0.050659 0.480255 0.623285 0.173215
C9    C     C_1   0.250107 0.499756 0.500226 -0.075202
C10   C     C_1   0.749886 0.500165 0.499617 -0.067709
C11   C     C_3   0.027054 0.489129 0.567546 -0.133201
C12   C     C_3   0.972918 0.510745 0.431733 -0.110755
C13   C     C_3   0.082674 0.499837 0.499823 0.141361
C14   C     C_3   0.917315 0.500036 0.499470 0.139275
C15   C     C_1   0.174446 0.499759 0.500091 -0.003465
C16   C     C_1   0.825546 0.500133 0.499463 0.000732
C17   C     C_R   0.512689 0.745343 0.436663 -0.133728
C18   C     C_R   0.534608 0.255847 0.556945 -0.102711
H7    H     H_    0.527793 0.719376 0.386361 0.201551
H8    H     H_    0.557829 0.282784 0.604790 0.198735
C19   C     C_R   0.510837 0.816944 0.437359 -0.190187
C20   C     C_R   0.536412 0.184204 0.554700 -0.168521
H9    H     H_    0.524853 0.845085 0.387784 0.184193
H10   H     H_    0.557440 0.157082 0.602249 0.180240
C21   C     C_R   0.492675 0.852319 0.501637 -0.044308
C22   C     C_R   0.509842 0.147657 0.492405 -0.032091
C23   C     C_R   0.474572 0.815445 0.566287 0.344983
C24   C     C_R   0.483665 0.184185 0.430543 0.328712
C25   C     C_R   0.476297 0.743254 0.564520 -0.185068
C26   C     C_R   0.479760 0.256068 0.434490 -0.186241
H11   H     H_    0.460066 0.714455 0.613032 0.217231
H12   H     H_    0.458983 0.283962 0.387425 0.229356
C27   C     C_R   0.496325 0.707952 0.500422 -0.102585
C28   C     C_R   0.504146 0.292165 0.497657 -0.102621
C29   C     C_R   0.571167 0.963642 0.520622 -0.097786
C30   C     C_R   0.430760 0.035309 0.475333 -0.060704
H13   H     H_    0.625587 0.936039 0.538301 0.159171
H14   H     H_    0.375597 0.062521 0.458719 0.159254
C31   C     C_R   0.575633 0.035463 0.517958 -0.135952
C32   C     C_R   0.426771 0.963515 0.477010 -0.092746
H15   H     H_    0.633780 0.062738 0.533320 0.150897
H16   H     H_    0.369024 0.935869 0.461215 0.153383
C33   C     C_R   0.505625 0.071721 0.494793 0.126631
C34   C     C_R   0.496828 0.927669 0.499962 0.123948
C35   C     C_R   0.467285 0.443426 0.721051 0.355290
C36   C     C_R   0.571936 0.520072 0.277937 0.359378
C37   C     C_R   0.474921 0.438723 0.797768 0.177978
C38   C     C_R   0.576267 0.512654 0.201232 0.176766
C39   C     C_R   0.500567 0.497636 0.838826 -0.050534
C40   C     C_R   0.501693 0.498246 0.160988 -0.047912
C41   C     C_R   0.523227 0.557196 0.799488 -0.265716
C42   C     C_R   0.427388 0.486071 0.201233 -0.275683
H17   H     H_    0.539972 0.604548 0.827966 0.228070
H18   H     H_    0.367833 0.476932 0.173724 0.223237
C43   C     C_R   0.530274 0.556084 0.723274 0.449895
C44   C     C_R   0.428928 0.480266 0.277319 0.454568
N1    N     N_R   0.499990 0.500020 0.683620 -0.302750
N2    N     N_R   0.500010 0.499980 0.316380 -0.302957
C45   C     C_R   0.561372 0.539162 0.962350 0.328494
C46   C     C_R   0.444122 0.453399 0.037474 0.324246
C47   C     C_R   0.553690 0.543250 0.038501 -0.192999
C48   C     C_R   0.440107 0.460052 0.961384 -0.190142
H19   H     H_    0.593825 0.580544 0.066760 0.225252
H20   H     H_    0.390327 0.431641 0.933229 0.227068
C49   C     C_R   0.499869 0.497594 0.078227 0.006337
C50   C     C_R   0.501535 0.498735 0.921608 0.005712
N3    N     N_R   0.421707 0.389171 0.683643 0.172292
O9    O     O_R   0.346343 0.400008 0.659544 -0.315803
O10   O     O_R   0.445927 0.326029 0.688507 -0.312770
N4    N     N_R   0.643721 0.550433 0.314242 0.174205
O11   O     O_R   0.640070 0.612424 0.340928 -0.341351
O12   O     O_R   0.715813 0.520302 0.312545 -0.300371
N5    N     N_R   0.458698 0.373477 0.832592 0.145637
O13   O     O_R   0.517103 0.346377 0.871615 -0.266378
O14   O     O_R   0.384797 0.342208 0.827706 -0.251541
N6    N     N_R   0.657114 0.517559 0.165667 0.144891
O15   O     O_R   0.682087 0.466763 0.125571 -0.263316
O16   O     O_R   0.705108 0.573183 0.171746 -0.262562
N7    N     N_R   0.572559 0.614015 0.689297 0.148108
O17   O     O_R   0.640710 0.604592 0.651605 -0.307203
O18   O     O_R   0.558652 0.675931 0.712814 -0.328279
N8    N     N_R   0.355870 0.449621 0.311714 0.161217
O19   O     O_R   0.361625 0.390690 0.344358 -0.317277
O20   O     O_R   0.281359 0.471584 0.296503 -0.343565
N9    N     N_R   0.633581 0.572871 0.928601 0.135271
O21   O     O_R   0.678498 0.539547 0.881721 -0.278804
O22   O     O_R   0.662493 0.632194 0.952941 -0.284314
N10   N     N_R   0.395110 0.398406 0.071065 0.135891
O23   O     O_R   0.430504 0.357917 0.117163 -0.258990
O24   O     O_R   0.319885 0.381649 0.047159 -0.281359
N11   N     N_R   0.454813 0.849724 0.633579 0.132247
O25   O     O_R   0.418610 0.908839 0.633963 -0.321814
O26   O     O_R   0.466655 0.819116 0.695267 -0.271231
N12   N     N_R   0.463670 0.149704 0.363076 0.120432
O27   O     O_R   0.409198 0.175316 0.318900 -0.278283
O28   O     O_R   0.507451 0.098033 0.341193 -0.313466

loop_
_geom_bond_atom_site_label_1
_geom_bond_atom_site_label_2
_geom_bond_distance
_ccdc_geom_bond_type
C9    C15   1.198413 T    
C40   C42   1.401541 A    
C37   C39   1.415635 A    
C46   N10   1.436753 S    
N9    O21   1.301482 A    
C31   C33   1.403627 A    
C11   C13   1.534536 S    
C44   N2    1.379767 A    
C7    C13   1.534668 S    
N7    O17   1.299234 A    
H6    C11   1.110180 S    
N10   O24   1.301380 A    
C44   N8    1.428402 S    
C10   C16   1.198377 T    
C36   N4    1.428332 S    
O1    C1    1.306725 A    
Cu2   N2    2.030654 S    
C20   H10   1.083407 S    
C46   C48   1.409720 A    
C20   C22   1.403955 A    
C48   H20   1.078512 S    
C43   N7    1.431879 S    
C3    C9    1.422694 S    
C17   C27   1.401101 A    
C35   C37   1.422137 A    
O4    Cu1   1.948609 S    
C45   C47   1.409400 A    
N12   O27   1.301456 A    
C36   C38   1.421032 A    
C17   H7    1.082799 S    
C24   C26   1.399749 A    
C39   C41   1.401139 A    
O6    Cu2   1.927589 S    
N11   O25   1.300967 A    
C8    C14   1.534593 S    
C47   C49   1.411141 A    
N5    O14   1.301633 A    
C41   C43   1.407757 A    
C6    C12   1.548665 S    
C42   C44   1.406648 A    
C25   H11   1.080857 S    
N9    O22   1.301404 A    
Cu1   Cu2   2.702131 S    
C21   C23   1.414535 A    
O2    C2    1.303090 A    
C22   C24   1.415741 A    
N10   O23   1.301504 A    
C30   H14   1.083139 S    
C47   H19   1.078884 S    
C19   H9    1.083766 S    
C26   H12   1.082506 S    
C18   C28   1.398984 A    
N4    O12   1.302030 A    
O4    C2    1.304067 A    
C35   N3    1.430228 S    
C43   N1    1.379896 A    
N4    O11   1.300439 A    
C29   C31   1.393599 A    
C35   N1    1.382250 A    
C6    C13   1.534701 S    
C17   C19   1.390458 A    
C32   C34   1.398815 A    
C4    C10   1.422663 S    
C41   H17   1.080930 S    
C38   C40   1.415472 A    
C22   C33   1.473060 S    
O5    C3    1.298849 A    
O7    Cu2   1.925888 S    
C30   C33   1.404658 A    
C23   C25   1.402045 A    
C48   C50   1.411216 A    
C5    C11   1.548481 S    
N3    O9    1.299838 A    
C25   C27   1.403371 A    
O6    C4    1.298587 A    
C37   N5    1.435652 S    
N6    O16   1.301565 A    
C23   N11   1.442702 S    
H5    C12   1.110220 S    
O7    C3    1.298094 A    
O3    Cu2   1.948612 S    
O8    C4    1.298338 A    
C6    C8    1.548540 S    
N3    O10   1.300600 A    
Cu1   N1    2.030654 S    
N8    O20   1.301371 A    
C31   H15   1.083129 S    
C1    C28   1.469548 S    
O1    Cu1   1.946955 S    
C38   N6    1.436204 S    
C5    C14   1.534655 S    
C5    C7    1.548610 S    
C6    H4    1.110161 S    
C18   C20   1.391684 A    
C7    C12   1.548711 S    
C8    C11   1.548471 S    
C21   C34   1.461315 S    
O3    C1    1.299918 A    
O8    Cu1   1.925888 S    
C46   C49   1.422025 A    
N7    O18   1.301275 A    
C45   C50   1.422093 A    
C26   C28   1.403495 A    
C12   C14   1.534603 S    
C13   C15   1.453660 S    
C40   C49   1.524587 S    
C14   C16   1.453599 S    
C39   C50   1.524780 S    
N11   O26   1.301570 A    
C5    H3    1.110165 S    
N6    O15   1.301229 A    
C7    H1    1.110164 S    
C18   H8    1.081364 S    
C32   H16   1.083281 S    
C8    H2    1.110158 S    
C2    C27   1.470469 S    
C19   C21   1.400068 A    
O2    Cu2   1.946951 S    
N12   O28   1.301457 A    
O5    Cu1   1.927589 S    
C42   H18   1.081029 S    
N8    O19   1.300263 A    
C45   N9    1.436900 S    
C36   N2    1.383549 A    
C29   C34   1.399628 A    
C29   H13   1.083269 S    
N5    O13   1.301154 A    
C30   C32   1.392390 A    
C24   N12   1.439526 S    
