data_mof_unit_17229.cif
_audit_creation_date              2012-12-11T16:26:07-0500
_audit_creation_method            fapswitch 2.2
_symmetry_space_group_name_H-M    P1
_symmetry_Int_Tables_number       1
_space_group_crystal_system       triclinic
_cell_length_a                    14.008603
_cell_length_b                    14.008423
_cell_length_c                    31.966453
_cell_angle_alpha                 90.000647
_cell_angle_beta                  89.997884
_cell_angle_gamma                 119.999834
_cell_volume                      5432.62693318

loop_
_atom_site_label
_atom_site_type_symbol
_atom_type_description
_atom_site_fract_x
_atom_site_fract_y
_atom_site_fract_z
_atom_type_partial_charge
C1    C     C_R   0.567833 0.443914 0.810612 0.564078
C2    C     C_R   0.876096 0.432170 0.689385 0.563874
C3    C     C_R   0.556081 0.123914 0.810611 0.564037
C4    C     C_R   0.567834 0.443926 0.689388 0.564022
C5    C     C_R   0.876079 0.432166 0.810614 0.563966
C6    C     C_R   0.556077 0.123904 0.689389 0.564003
C7    C     C_R   0.443910 0.567832 0.310614 0.564094
C8    C     C_R   0.432166 0.876077 0.189387 0.564139
C9    C     C_R   0.123912 0.556082 0.310616 0.563939
C10   C     C_R   0.443919 0.567833 0.189389 0.564087
C11   C     C_R   0.432166 0.876081 0.310613 0.564108
C12   C     C_R   0.123916 0.556083 0.189387 0.563983
C13   C     C_1   0.004439 0.525652 0.018674 -0.026430
C14   C     C_1   0.521205 0.995561 0.481327 -0.026417
C15   C     C_1   0.474567 0.478949 0.018682 -0.026430
C16   C     C_1   0.004372 0.525915 0.481322 -0.026437
C17   C     C_1   0.521053 0.995570 0.018674 -0.026423
C18   C     C_1   0.474349 0.478773 0.481327 -0.026416
C19   C     C_1   0.525579 0.004301 0.518690 -0.026408
C20   C     C_1   0.995695 0.521281 0.981312 -0.026440
C21   C     C_1   0.478717 0.474401 0.518690 -0.026405
C22   C     C_1   0.525441 0.004349 0.981314 -0.026433
C23   C     C_1   0.995690 0.521579 0.518688 -0.026428
C24   C     C_1   0.478954 0.474558 0.981322 -0.026433
C25   C     C_R   0.928840 0.469985 0.852002 0.039221
C26   C     C_R   0.541092 0.071089 0.648007 0.039203
C27   C     C_R   0.530042 0.458841 0.852005 0.039257
C28   C     C_R   0.928967 0.470032 0.648007 0.039165
C29   C     C_R   0.541132 0.071171 0.852001 0.039270
C30   C     C_R   0.530017 0.458925 0.648006 0.039222
C31   C     C_R   0.469979 0.928818 0.352005 0.039234
C32   C     C_R   0.071154 0.541133 0.147997 0.039206
C33   C     C_R   0.458820 0.530018 0.352008 0.039234
C34   C     C_R   0.469956 0.928788 0.147993 0.039257
C35   C     C_R   0.071108 0.541132 0.352003 0.039218
C36   C     C_R   0.458866 0.530041 0.147998 0.039250
C37   C     C_R   0.911259 0.547039 0.873963 -0.179716
C38   C     C_R   0.635680 0.088448 0.626071 -0.179691
C39   C     C_R   0.453227 0.364180 0.874012 -0.179779
C40   C     C_R   0.912080 0.547683 0.626154 -0.179534
C41   C     C_R   0.635762 0.088898 0.873990 -0.179798
C42   C     C_R   0.452706 0.364359 0.626085 -0.179643
C43   C     C_R   0.546998 0.911195 0.373969 -0.179702
C44   C     C_R   0.088643 0.635764 0.126048 -0.179662
C45   C     C_R   0.364152 0.453078 0.373985 -0.179744
C46   C     C_R   0.546788 0.910953 0.125989 -0.179767
C47   C     C_R   0.088323 0.635735 0.373893 -0.179617
C48   C     C_R   0.364221 0.453153 0.126002 -0.179786
C49   C     C_R   0.937013 0.566956 0.916196 -0.137491
C50   C     C_R   0.629857 0.062715 0.583835 -0.137463
C51   C     C_R   0.433388 0.370065 0.916248 -0.137502
C52   C     C_R   0.937816 0.567697 0.583918 -0.137404
C53   C     C_R   0.629884 0.063165 0.916226 -0.137529
C54   C     C_R   0.432790 0.370172 0.583849 -0.137421
C55   C     C_R   0.566892 0.936913 0.416206 -0.137470
C56   C     C_R   0.062936 0.629951 0.083810 -0.137464
C57   C     C_R   0.369976 0.433184 0.416220 -0.137488
C58   C     C_R   0.566629 0.936668 0.083752 -0.137490
C59   C     C_R   0.062594 0.630003 0.416127 -0.137461
C60   C     C_R   0.370101 0.433314 0.083766 -0.137520
C61   C     C_R   0.983018 0.512180 0.936901 -0.001815
C62   C     C_R   0.529126 0.016948 0.563102 -0.001769
C63   C     C_R   0.488009 0.470910 0.936914 -0.001836
C64   C     C_R   0.983121 0.512414 0.563105 -0.001732
C65   C     C_R   0.529072 0.017052 0.936907 -0.001826
C66   C     C_R   0.487826 0.470872 0.563102 -0.001777
C67   C     C_R   0.512111 0.982900 0.436915 -0.001811
C68   C     C_R   0.017081 0.529200 0.063086 -0.001788
C69   C     C_R   0.470774 0.487870 0.436916 -0.001788
C70   C     C_R   0.511992 0.982870 0.063083 -0.001823
C71   C     C_R   0.016970 0.529347 0.436907 -0.001750
C72   C     C_R   0.470929 0.488007 0.063090 -0.001810
C73   C     C_R   0.009596 0.442338 0.914978 -0.099840
C74   C     C_R   0.432727 0.990551 0.585002 -0.099823
C75   C     C_R   0.557617 0.567332 0.914949 -0.099847
C76   C     C_R   0.009098 0.441997 0.584927 -0.099849
C77   C     C_R   0.432667 0.990342 0.914958 -0.099865
C78   C     C_R   0.557912 0.567258 0.584988 -0.099817
C79   C     C_R   0.442306 0.009521 0.414990 -0.099802
C80   C     C_R   0.990578 0.432773 0.084996 -0.099883
C81   C     C_R   0.567216 0.557601 0.414980 -0.099843
C82   C     C_R   0.442366 0.009672 0.085044 -0.099857
C83   C     C_R   0.990709 0.432916 0.415052 -0.099857
C84   C     C_R   0.567345 0.557681 0.085045 -0.099883
C85   C     C_R   0.980941 0.418460 0.872370 0.283562
C86   C     C_R   0.437494 0.019178 0.627613 0.283640
C87   C     C_R   0.581407 0.562516 0.872333 0.283560
C88   C     C_R   0.980463 0.418028 0.627535 0.283655
C89   C     C_R   0.437477 0.018951 0.872343 0.283563
C90   C     C_R   0.581785 0.562503 0.627597 0.283698
C91   C     C_R   0.418482 0.980940 0.372375 0.283560
C92   C     C_R   0.019164 0.437518 0.127612 0.283548
C93   C     C_R   0.562457 0.581450 0.372366 0.283559
C94   C     C_R   0.418573 0.981074 0.127660 0.283575
C95   C     C_R   0.019331 0.437589 0.372440 0.283595
C96   C     C_R   0.562534 0.581471 0.127661 0.283550
Cr1   Cr    Cr6+3 0.504240 0.249200 0.750000 1.049915
Cr2   Cr    Cr6+3 0.744960 0.495760 0.750000 1.049844
Cr3   Cr    Cr6+3 0.750800 0.255040 0.750000 1.050065
Cr4   Cr    Cr6+3 0.249200 0.504240 0.250000 1.050042
Cr5   Cr    Cr6+3 0.495760 0.744960 0.250000 1.049857
Cr6   Cr    Cr6+3 0.255040 0.750800 0.250000 1.049732
H1    H     H_    0.871161 0.587221 0.859178 0.143532
H2    H     H_    0.715924 0.128356 0.640881 0.143795
H3    H     H_    0.413191 0.283861 0.859259 0.143634
H4    H     H_    0.872537 0.588301 0.641027 0.143597
H5    H     H_    0.716056 0.129090 0.859223 0.143636
H6    H     H_    0.412307 0.284133 0.640907 0.143601
H7    H     H_    0.587174 0.871102 0.359182 0.143618
H8    H     H_    0.128634 0.716031 0.140847 0.143535
H9    H     H_    0.283865 0.412973 0.359207 0.143818
H10   H     H_    0.586838 0.870687 0.140744 0.143634
H11   H     H_    0.128114 0.715936 0.359048 0.143484
H12   H     H_    0.283915 0.413056 0.140766 0.143678
H13   H     H_    0.082741 0.704789 0.066970 0.111957
H14   H     H_    0.621830 0.917016 0.433055 0.111986
H15   H     H_    0.295269 0.378487 0.066889 0.111978
H16   H     H_    0.082208 0.704841 0.432922 0.111859
H17   H     H_    0.621411 0.916607 0.066870 0.112045
H18   H     H_    0.295122 0.378321 0.433081 0.111921
H19   H     H_    0.704671 0.082433 0.567002 0.111834
H20   H     H_    0.917128 0.621909 0.933047 0.111989
H21   H     H_    0.377625 0.295369 0.567028 0.111911
H22   H     H_    0.704706 0.083144 0.933097 0.112002
H23   H     H_    0.918448 0.623132 0.567150 0.111793
H24   H     H_    0.378620 0.295225 0.933133 0.112048
H25   H     H_    0.950525 0.354897 0.068466 0.102465
H26   H     H_    0.404568 0.049676 0.431504 0.102574
H27   H     H_    0.645267 0.595342 0.068552 0.102521
H28   H     H_    0.950824 0.355103 0.431624 0.102389
H29   H     H_    0.404739 0.049973 0.068557 0.102548
H30   H     H_    0.645117 0.595263 0.431486 0.102535
H31   H     H_    0.354860 0.950560 0.568469 0.102479
H32   H     H_    0.049750 0.404595 0.931490 0.102530
H33   H     H_    0.595842 0.645104 0.568442 0.102457
H34   H     H_    0.354757 0.950098 0.931454 0.102527
H35   H     H_    0.048754 0.403877 0.568329 0.102349
H36   H     H_    0.595232 0.645266 0.931431 0.102569
O1    O     O_R   0.480350 0.140770 0.796330 -0.457712
O2    O     O_R   0.660420 0.519650 0.703670 -0.457357
O3    O     O_R   0.859230 0.339580 0.796330 -0.457634
O4    O     O_R   0.480350 0.140770 0.703670 -0.457471
O5    O     O_R   0.660420 0.519650 0.796330 -0.457766
O6    O     O_R   0.859230 0.339580 0.703670 -0.457205
O7    O     O_R   0.140770 0.480350 0.296330 -0.457412
O8    O     O_R   0.519650 0.660420 0.203670 -0.457703
O9    O     O_R   0.339580 0.859230 0.296330 -0.457649
O10   O     O_R   0.140770 0.480350 0.203670 -0.457566
O11   O     O_R   0.519650 0.660420 0.296330 -0.457672
O12   O     O_R   0.339580 0.859230 0.203670 -0.457699
O13   O     O_R   0.514930 0.348530 0.793250 -0.518133
O14   O     O_R   0.833600 0.485070 0.706750 -0.518131
O15   O     O_R   0.651470 0.166400 0.793250 -0.518131
O16   O     O_R   0.514930 0.348530 0.706750 -0.518113
O17   O     O_R   0.833600 0.485070 0.793250 -0.518177
O18   O     O_R   0.651470 0.166400 0.706750 -0.518055
O19   O     O_R   0.348530 0.514930 0.293250 -0.518075
O20   O     O_R   0.485070 0.833600 0.206750 -0.518121
O21   O     O_R   0.166400 0.651470 0.293250 -0.518173
O22   O     O_R   0.348530 0.514930 0.206750 -0.518094
O23   O     O_R   0.485070 0.833600 0.293250 -0.518121
O24   O     O_R   0.166400 0.651470 0.206750 -0.518157
O25   O     O_3   0.666667 0.333333 0.750000 -0.266492
O26   O     O_3   0.333333 0.666667 0.250000 -0.266495
O27   O     O_3   0.992848 0.343168 0.150666 -0.532804
C97   C     C_3   0.016728 0.270452 0.128428 -0.113684
H37   H     H_    0.094430 0.314467 0.109969 0.086749
H38   H     H_    0.946399 0.215609 0.107925 0.110503
H39   H     H_    0.027750 0.217194 0.151313 0.144738
O28   O     O_3   0.350613 0.007433 0.349309 -0.532822
C98   C     C_3   0.253840 0.983285 0.371468 -0.113543
H40   H     H_    0.269118 0.053372 0.392065 0.110338
H41   H     H_    0.220064 0.905405 0.389811 0.086906
H42   H     H_    0.189721 0.972471 0.348547 0.144715
O29   O     O_3   0.656857 0.649240 0.150763 -0.532843
C99   C     C_3   0.729783 0.745875 0.128590 -0.113586
H43   H     H_    0.685958 0.779830 0.110177 0.086820
H44   H     H_    0.784534 0.730324 0.108062 0.110425
H45   H     H_    0.783110 0.809967 0.151514 0.144815
O30   O     O_3   0.993253 0.343231 0.349437 -0.532839
C100  C     C_3   0.017106 0.270609 0.371751 -0.113881
H46   H     H_    0.946686 0.215722 0.392203 0.110580
H47   H     H_    0.094671 0.314705 0.390272 0.086737
H48   H     H_    0.028358 0.217403 0.348919 0.144697
O31   O     O_3   0.350836 0.007666 0.150763 -0.532841
C101  C     C_3   0.254169 0.983893 0.128605 -0.113585
H49   H     H_    0.220219 0.906092 0.110205 0.086863
H50   H     H_    0.269668 0.054157 0.108064 0.110415
H51   H     H_    0.190100 0.973136 0.151536 0.144786
O32   O     O_3   0.656806 0.649286 0.349289 -0.532852
C102  C     C_3   0.729608 0.745932 0.371479 -0.113626
H52   H     H_    0.784352 0.730442 0.392034 0.110361
H53   H     H_    0.685673 0.779808 0.389867 0.086879
H54   H     H_    0.782956 0.810057 0.348571 0.144803
O33   O     O_3   0.343169 0.992990 0.650651 -0.532869
C103  C     C_3   0.270609 0.017055 0.628410 -0.113770
H55   H     H_    0.215701 0.946793 0.607900 0.110392
H56   H     H_    0.314746 0.094735 0.609960 0.086890
H57   H     H_    0.217430 0.028198 0.651289 0.144768
O34   O     O_3   0.007282 0.350466 0.849313 -0.532873
C104  C     C_3   0.983330 0.253831 0.871527 -0.113680
H58   H     H_    0.905626 0.220159 0.889968 0.086795
H59   H     H_    0.053597 0.269233 0.892039 0.110470
H60   H     H_    0.972303 0.189589 0.848634 0.144793
O35   O     O_3   0.650027 0.656817 0.650620 -0.532838
C105  C     C_3   0.746622 0.729371 0.628352 -0.113859
H61   H     H_    0.731258 0.784323 0.607872 0.110442
H62   H     H_    0.780090 0.685208 0.609873 0.086929
H63   H     H_    0.811007 0.782525 0.651210 0.144652
O36   O     O_3   0.343163 0.992424 0.849248 -0.532888
C106  C     C_3   0.270273 0.016166 0.871422 -0.113601
H64   H     H_    0.314128 0.093954 0.889824 0.086844
H65   H     H_    0.215525 0.945891 0.891959 0.110415
H66   H     H_    0.216942 0.026926 0.848503 0.144842
O37   O     O_3   0.006227 0.349452 0.650498 -0.532811
C107  C     C_3   0.982146 0.252987 0.628127 -0.114034
H67   H     H_    0.052600 0.268384 0.607715 0.110583
H68   H     H_    0.904700 0.219844 0.609547 0.086741
H69   H     H_    0.970538 0.188331 0.650925 0.144631
O38   O     O_3   0.649122 0.656844 0.849230 -0.532880
C108  C     C_3   0.745817 0.729687 0.871377 -0.113563
H70   H     H_    0.779772 0.685807 0.889747 0.086868
H71   H     H_    0.730370 0.784439 0.891944 0.110372
H72   H     H_    0.809853 0.783008 0.848439 0.144848

loop_
_geom_bond_atom_site_label_1
_geom_bond_atom_site_label_2
_ccdc_geom_bond_type
C68   C80   A    
C4    O16   A    
C98   H40   S    
O27   C97   S    
C82   C94   A    
C96   O29   S    
C46   H10   S    
C21   C66   S    
C18   C21   T    
C2    O6    A    
C104  H58   S    
C39   C51   A    
C94   O31   S    
C11   O23   A    
C79   H26   S    
C8    O20   A    
C29   C89   A    
Cr2   O25   S    
Cr2   O14   S    
C76   H35   S    
C78   C90   A    
C15   C72   S    
C98   H41   S    
C45   C57   A    
C54   C66   A    
O32   C102  S    
C31   C43   A    
C9    O21   A    
C48   H12   S    
C88   O37   S    
C107  H68   S    
C108  H72   S    
Cr2   O5    S    
C105  H62   S    
C24   C63   S    
C55   H14   S    
C60   C72   A    
C19   C62   S    
C74   H31   S    
C84   H27   S    
C3    O15   A    
C33   C45   A    
C93   O32   S    
C39   H3    S    
C84   C96   A    
Cr5   O11   S    
C20   C61   S    
C3    C29   S    
C44   C56   A    
C58   H17   S    
C38   H2    S    
C25   C37   A    
C7    O11   A    
Cr4   O19   S    
C99   H45   S    
O29   C99   S    
C27   C39   A    
O34   C104  S    
Cr1   O25   S    
C28   C88   A    
C62   C74   A    
C14   C67   S    
C107  H69   S    
C1    O13   A    
C34   C46   A    
C77   H34   S    
C6    O4    A    
C53   C65   A    
C78   H33   S    
C76   C88   A    
C79   C91   A    
C91   O28   S    
C30   C90   A    
C18   C69   S    
C99   H44   S    
C101  H49   S    
C11   C31   S    
C17   C70   S    
C16   C71   S    
C12   C32   S    
C97   H38   S    
C104  H59   S    
C50   H19   S    
C103  H57   S    
C92   O27   S    
O38   C108  S    
C48   C60   A    
C71   C83   A    
C100  H47   S    
C2    O14   A    
C66   C78   A    
C98   H42   S    
Cr5   O8    S    
C49   C61   A    
C7    C33   S    
C9    C35   S    
C102  H52   S    
Cr3   O6    S    
C67   C79   A    
C107  H67   S    
C83   H28   S    
C103  H56   S    
C52   C64   A    
C37   H1    S    
C105  H61   S    
C26   C38   A    
C81   H30   S    
C61   C73   A    
C100  H46   S    
C47   C59   A    
C75   H36   S    
C4    C30   S    
Cr2   O2    S    
C80   C92   A    
C8    O12   A    
O37   C107  S    
C102  H53   S    
C22   C65   S    
C108  H70   S    
C1    O5    A    
Cr6   O9    S    
C4    O2    A    
C90   O35   S    
C81   C93   A    
Cr4   O22   S    
C85   O34   S    
C5    O3    A    
C106  H64   S    
Cr1   O13   S    
Cr4   O7    S    
C26   C86   A    
C83   C95   A    
Cr3   O18   S    
C25   C85   A    
C64   C76   A    
C51   C63   A    
C60   H15   S    
Cr4   O26   S    
C8    C34   S    
Cr1   O16   S    
C74   C86   A    
C27   C87   A    
C41   C53   A    
C37   C49   A    
C72   C84   A    
C10   O8    A    
C57   H18   S    
Cr3   O25   S    
C75   C87   A    
C99   H43   S    
C106  H65   S    
Cr6   O12   S    
Cr5   O20   S    
O36   C106  S    
C16   C23   T    
C31   C91   A    
C97   H37   S    
C50   C62   A    
C104  H60   S    
C5    C25   S    
C54   H21   S    
C3    O1    A    
C101  H50   S    
C10   O22   A    
Cr6   O24   S    
C40   H4    S    
C73   C85   A    
C100  H48   S    
C43   C55   A    
C47   H11   S    
C86   O33   S    
O35   C105  S    
Cr2   O17   S    
C23   C64   S    
C65   C77   A    
C13   C20   T    
C29   C41   A    
C51   H24   S    
C14   C19   T    
Cr3   O3    S    
Cr5   O26   S    
C58   C70   A    
C34   C94   A    
C103  H55   S    
C53   H22   S    
C33   C93   A    
Cr6   O21   S    
C55   C67   A    
C52   H23   S    
C45   H9    S    
C5    O17   A    
C89   O36   S    
C38   C50   A    
C80   H25   S    
C35   C95   A    
C59   H16   S    
C17   C22   T    
C56   C68   A    
C12   O10   A    
C101  H51   S    
Cr5   O23   S    
C82   H29   S    
C102  H54   S    
C108  H71   S    
C40   C52   A    
C42   C54   A    
C15   C24   T    
C105  H63   S    
C11   O9    A    
O31   C101  S    
C6    C26   S    
C63   C75   A    
Cr4   O10   S    
C49   H20   S    
Cr3   O15   S    
C9    O7    A    
C77   C89   A    
C56   H13   S    
C10   C36   S    
C36   C48   A    
C70   C82   A    
C6    O18   A    
Cr1   O4    S    
C69   C81   A    
C32   C92   A    
C87   O38   S    
C12   O24   A    
O33   C103  S    
C41   H5    S    
C95   O30   S    
C106  H66   S    
C73   H32   S    
C32   C44   A    
C97   H39   S    
Cr6   O26   S    
C7    O19   A    
O28   C98   S    
C1    C27   S    
C28   C40   A    
C30   C42   A    
C2    C28   S    
C43   H7    S    
C57   C69   A    
C35   C47   A    
C42   H6    S    
Cr1   O1    S    
C46   C58   A    
O30   C100  S    
C59   C71   A    
C36   C96   A    
C13   C68   S    
C44   H8    S    
