data_mof_unit_13573.cif
_audit_creation_date              2012-12-11T21:09:27-0500
_audit_creation_method            fapswitch 2.2
_symmetry_space_group_name_H-M    P1
_symmetry_Int_Tables_number       1
_space_group_crystal_system       triclinic
_cell_length_a                    8.255057
_cell_length_b                    19.110072
_cell_length_c                    26.927891
_cell_angle_alpha                 100.154925
_cell_angle_beta                  92.359163
_cell_angle_gamma                 88.054227
_cell_volume                      4176.37217283

loop_
_atom_site_label
_atom_site_type_symbol
_atom_type_description
_atom_site_fract_x
_atom_site_fract_y
_atom_site_fract_z
_atom_type_partial_charge
Ba1   Ba    Ba6+2 0.160260 0.465850 0.521400 1.660054
Ba2   Ba    Ba6+2 0.649930 0.534160 0.478640 1.673840
C1    C     C_3   0.416912 0.240460 0.688959 -0.332777
C2    C     C_R   0.992582 0.727957 0.518895 0.039037
C3    C     C_R   0.136240 0.816107 0.462710 -0.127222
C4    C     C_3   0.964113 0.275481 0.629611 0.399601
C5    C     C_R   0.203951 0.748377 0.465142 0.033235
C6    C     C_R   0.657734 0.179820 0.530765 -0.137676
C7    C     C_R   0.601930 0.249620 0.530334 -0.012330
C8    C     C_R   0.889570 0.201411 0.485454 -0.123433
C9    C     C_R   0.832736 0.272738 0.486069 0.070741
C10   C     C_R   0.022105 0.848190 0.498545 0.025180
C11   C     C_R   0.121816 0.702629 0.489136 -0.257037
C12   C     C_3   0.458015 0.268824 0.641848 0.319389
C13   C     C_R   0.813622 0.155165 0.514006 0.011713
C14   C     C_R   0.694006 0.296656 0.511179 -0.265416
C15   C     C_R   0.254422 0.964346 0.485777 -0.082142
C16   C     C_3   0.991671 0.207280 0.650866 -0.369781
C17   C     C_R   0.353005 0.014630 0.471704 0.380119
C18   C     C_R   0.308963 0.085685 0.483470 -0.064411
C19   C     C_R   0.163996 0.105073 0.507084 -0.153969
C20   C     C_R   0.043637 0.055740 0.507422 0.007961
C21   C     C_R   0.091052 0.981502 0.499271 0.019225
C22   C     C_R   0.885073 0.080478 0.521754 0.042697
C23   C     C_3   0.472297 0.316352 0.399796 0.231275
C24   C     C_R   0.795825 0.030473 0.542134 0.084973
C25   C     C_R   0.824211 0.955979 0.525883 0.018500
C26   C     C_R   0.977037 0.928745 0.506016 0.028024
C27   C     C_R   0.686137 0.051186 0.581254 -0.162032
C28   C     C_3   0.841148 0.619160 0.631687 0.294107
C29   C     C_R   0.576375 0.003377 0.592975 -0.078907
C30   C     C_R   0.575696 0.934358 0.565998 0.392209
C31   C     C_R   0.696249 0.911482 0.531537 -0.048874
C32   C     C_R   0.277720 0.443544 0.171606 0.616029
C33   C     C_R   0.189939 0.565535 0.176970 0.584190
C34   C     C_3   0.487263 0.235638 0.384375 -0.248011
C35   C     C_2   0.031367 0.525124 0.269318 -0.056722
C36   C     C_3   0.993096 0.517023 0.322654 -0.044055
C37   C     C_1   0.277775 0.487607 0.335697 0.011629
C38   C     C_2   0.312879 0.489137 0.288382 -0.098037
C39   C     C_2   0.182745 0.508693 0.252228 0.185239
C40   C     C_3   0.835980 0.635179 0.688965 -0.351758
C41   C     C_R   0.293570 0.500710 0.097805 -0.080619
C42   C     C_R   0.315687 0.439948 0.120595 -0.033994
C43   C     C_R   0.376281 0.376839 0.092075 -0.044817
C44   C     C_R   0.230810 0.564007 0.126339 -0.029271
C45   C     C_3   0.860667 0.717622 0.375495 0.331221
C46   C     C_2   0.145855 0.519537 0.355631 -0.291698
C47   C     C_2   0.642738 0.469151 0.635642 -0.274525
C48   C     C_R   0.417695 0.429126 0.965131 0.020952
C49   C     C_R   0.368667 0.558632 0.974152 0.020082
C50   C     C_R   0.413549 0.492488 0.944237 0.050563
C51   C     C_R   0.450295 0.363889 0.932785 -0.100261
C52   C     C_3   0.919425 0.361784 0.358064 0.226042
C53   C     C_R   0.484900 0.361383 0.882430 -0.060596
C54   C     C_R   0.489971 0.423786 0.862081 -0.027662
C55   C     C_R   0.454604 0.489568 0.892866 -0.081316
C56   C     C_3   0.855181 0.790133 0.359514 -0.319763
C57   C     C_R   0.459862 0.552303 0.872268 -0.033906
C58   C     C_R   0.504895 0.548534 0.821687 0.593345
C59   C     C_R   0.528246 0.421397 0.811298 0.590930
C60   C     C_2   0.716735 0.440973 0.721835 -0.088566
C61   C     C_3   0.739326 0.421865 0.665735 -0.070983
C62   C     C_1   0.518594 0.508372 0.655582 0.039291
C63   C     C_2   0.478151 0.513326 0.703343 -0.081857
C64   C     C_3   0.823937 0.333902 0.308871 -0.247717
C65   C     C_2   0.584083 0.479506 0.739535 0.211635
C66   C     C_R   0.387565 0.432732 0.017250 0.019606
C67   C     C_3   0.363988 0.692944 0.347257 0.287516
C68   C     C_R   0.333565 0.498033 0.046370 0.051836
C69   C     C_R   0.319031 0.560612 0.024577 0.020261
C70   C     C_R   0.411173 0.373155 0.041592 -0.100154
C71   C     C_R   0.209944 0.624448 0.103681 -0.055588
C72   C     C_R   0.376450 0.620706 0.952483 -0.098368
C73   C     C_R   0.421769 0.617521 0.902820 -0.057161
C74   C     C_R   0.253735 0.623019 0.054095 -0.098078
C75   C     C_3   0.306755 0.685436 0.600579 0.304440
C76   C     C_3   0.241248 0.754844 0.630572 -0.309021
C77   C     C_2   0.847575 0.376705 0.268495 0.428711
C78   C     C_3   0.414973 0.703316 0.295545 -0.320966
C79   C     C_2   0.323576 0.203578 0.373080 0.600053
C80   C     C_R   0.958015 0.801780 0.528740 -0.127155
Cl1   Cl    Cl    0.534202 0.988881 0.440904 -0.713775
Cl2   Cl    Cl    0.431136 0.875108 0.577906 -0.775635
H1    H     H_    0.470683 0.327436 0.651882 0.039448
H2    H     H_    0.384338 0.696977 0.570419 0.077371
H3    H     H_    0.307377 0.268605 0.706020 0.159541
H4    H     H_    0.157479 0.743618 0.659246 0.118452
H5    H     H_    0.175080 0.786577 0.605276 0.108948
H6    H     H_    0.342712 0.786437 0.650300 0.176393
H7    H     H_    0.575387 0.243087 0.629345 -0.040647
H8    H     H_    0.520005 0.248879 0.716908 0.131515
H9    H     H_    0.595416 0.336714 0.410373 -0.000794
H10   H     H_    0.395206 0.329130 0.433223 0.064507
H11   H     H_    0.564112 0.222301 0.350860 0.137772
H12   H     H_    0.741825 0.677007 0.700843 0.144048
H13   H     H_    0.547623 0.212581 0.415644 0.004807
H14   H     H_    0.396081 0.182450 0.679434 0.093557
H15   H     H_    0.920705 0.164301 0.627909 0.061019
H16   H     H_    0.760077 0.716141 0.401384 0.106125
H17   H     H_    0.977992 0.710394 0.395358 -0.053380
H18   H     H_    0.860348 0.832669 0.393392 0.100143
H19   H     H_    0.959923 0.794846 0.335824 0.121187
H20   H     H_    0.740658 0.797289 0.337635 0.156908
H21   H     H_    0.232732 0.707119 0.350849 -0.016004
H22   H     H_    0.384989 0.635954 0.349894 0.052423
H23   H     H_    0.806845 0.586528 0.703580 0.073087
H24   H     H_    0.348777 0.666425 0.265924 0.126951
H25   H     H_    0.546949 0.691789 0.291612 0.153003
H26   H     H_    0.012013 0.267631 0.590999 0.066965
H27   H     H_    0.387419 0.758892 0.290315 0.132785
H28   H     H_    0.882710 0.821459 0.560260 0.077472
H29   H     H_    0.178399 0.843617 0.434140 0.073207
H30   H     H_    0.571981 0.145953 0.542468 0.082248
H31   H     H_    0.989796 0.183119 0.461684 0.097295
H32   H     H_    0.163639 0.647907 0.486707 0.061658
H33   H     H_    0.648536 0.350480 0.511334 0.063536
H34   H     H_    0.955890 0.653758 0.705382 0.126723
H35   H     H_    0.312791 0.913856 0.486945 0.144036
H36   H     H_    0.389385 0.125468 0.475828 0.109426
H37   H     H_    0.830808 0.285019 0.626974 -0.107153
H38   H     H_    0.143818 0.158361 0.526325 0.139319
H39   H     H_    0.685829 0.104019 0.603600 0.072646
H40   H     H_    0.489479 0.020630 0.621972 0.109350
H41   H     H_    0.691123 0.858740 0.509995 0.143781
H42   H     H_    0.435230 0.476708 0.275719 0.157917
H43   H     H_    0.397047 0.329539 0.108750 0.132959
H44   H     H_    0.796227 0.415857 0.747050 0.103644
H45   H     H_    0.045479 0.373015 0.349627 -0.002185
H46   H     H_    0.508843 0.309852 0.859421 0.119763
H47   H     H_    0.445858 0.313204 0.944875 0.072141
H48   H     H_    0.120750 0.190119 0.649319 0.142726
H49   H     H_    0.460886 0.322964 0.022987 0.074189
H50   H     H_    0.933373 0.536477 0.243522 0.126278
H51   H     H_    0.160205 0.673701 0.124440 0.126305
H52   H     H_    0.352194 0.673195 0.973411 0.073535
H53   H     H_    0.426373 0.666810 0.888334 0.124512
H54   H     H_    0.366203 0.540696 0.716330 0.115710
H55   H     H_    0.230981 0.671573 0.039539 0.073774
H56   H     H_    0.860473 0.411406 0.377580 0.056505
H57   H     H_    0.149315 0.549384 0.393919 0.065446
H58   H     H_    0.660423 0.460626 0.595297 0.080788
H59   H     H_    0.952598 0.215211 0.690483 0.120258
H60   H     H_    0.719759 0.603122 0.615885 0.014861
H61   H     H_    0.930003 0.574808 0.620937 0.080611
H62   H     H_    0.966692 0.378139 0.253170 0.033765
H63   H     H_    0.236210 0.208265 0.402565 0.013521
H64   H     H_    0.864515 0.278327 0.294129 0.115673
H65   H     H_    0.693179 0.333082 0.316745 0.138449
H66   H     H_    0.203142 0.653710 0.583179 -0.000768
N1    N     N_R   0.217048 0.506098 0.199402 -0.427776
N2    N     N_R   0.539095 0.483444 0.791755 -0.423462
O1    O     O_2   0.103290 0.325410 0.465600 -0.451947
O2    O     O_2   0.662876 0.558075 0.332761 -0.467255
O3    O     O_3   0.846480 0.664571 0.332553 -0.599189
O4    O     O_3   0.857760 0.414170 0.470020 -0.496368
O5    O     O_3   0.459840 0.537690 0.560170 -0.486845
O6    O     O_2   0.582520 0.462630 0.379680 -0.467920
O7    O     O_3   0.405221 0.346277 0.359191 -0.622896
O8    O     O_2   0.538055 0.755773 0.480656 -0.451521
O9    O     O_3   0.456552 0.736858 0.384322 -0.593754
O10   O     O_2   0.296666 0.390603 0.191146 -0.572398
O11   O     O_2   0.550635 0.363769 0.784237 -0.624043
O12   O     O_3   0.400201 0.650875 0.633875 -0.630275
O13   O     O_2   0.131169 0.619922 0.201160 -0.599586
O14   O     O_2   0.515263 0.603231 0.804511 -0.596483
O15   O     O_3   0.374170 0.371120 0.556000 -0.462064
O16   O     O_2   0.279994 0.248995 0.506796 -0.521161
O17   O     O_3   0.925594 0.306831 0.386287 -0.627037
O18   O     O_3   0.335349 0.252062 0.604151 -0.593335
O19   O     O_2   0.227790 0.537410 0.620340 -0.467131
O20   O     O_3   0.969630 0.407570 0.582610 -0.481111
O21   O     O_2   0.063419 0.471621 0.675227 -0.484731
O22   O     O_2   0.733285 0.408769 0.251829 -0.562060
O23   O     O_3   0.043774 0.331992 0.660917 -0.574884
O24   O     O_2   0.287907 0.171758 0.330871 -0.535105
O25   O     O_2   0.707020 0.674640 0.534420 -0.439297
O26   O     O_3   0.952550 0.585840 0.530020 -0.499061
O27   O     O_3   0.436140 0.628890 0.444040 -0.479919
O28   O     O_3   0.886449 0.680373 0.614401 -0.632445
O29   O     O_3   0.350480 0.462320 0.439870 -0.474561
O30   O     O_3   0.840680 0.592440 0.417430 -0.496172
P1    P     P_3+3 0.926760 0.336170 0.451740 0.983464
P2    P     P_3+3 0.399470 0.558680 0.614150 0.995007
P3    P     P_3+3 0.955487 0.411284 0.647398 0.966612
P4    P     P_3+3 0.883550 0.663840 0.548300 0.989983
P5    P     P_3+3 0.835411 0.581739 0.351455 0.984155
P6    P     P_3+3 0.398927 0.279597 0.549720 0.927392
P7    P     P_3+3 0.400806 0.439006 0.376710 0.981641
P8    P     P_3+3 0.407203 0.719277 0.443252 0.976081

loop_
_geom_bond_atom_site_label_1
_geom_bond_atom_site_label_2
_ccdc_geom_bond_type
C53   C54   A    
C23   H9    S    
C45   H17   S    
O7    P7    S    
C16   H48   S    
C17   C18   A    
C77   O22   D    
C49   C72   A    
C12   O18   S    
C7    P6    S    
Ba1   P1    S    
C9    P1    S    
C75   C76   S    
C25   C31   A    
C64   C77   S    
O21   P3    D    
C24   C25   A    
C35   C36   S    
C30   Cl2   S    
C33   N1    Am   
C60   C65   D    
C10   C26   S    
C47   C61   S    
C16   H59   S    
C7    C14   A    
C67   O9    S    
C29   H40   S    
C8    C13   A    
C58   N2    Am   
C69   C74   A    
C37   P7    S    
C55   C57   A    
C4    O23   S    
Ba1   O15   S    
C36   P5    S    
C35   H50   S    
C2    C11   A    
C28   H60   S    
C54   C55   A    
Ba1   Ba2   S    
Ba2   O30   S    
C2    P4    S    
C19   H38   S    
O17   P1    S    
C15   C17   A    
C15   H35   S    
O29   P7    S    
Ba1   P2    S    
C52   H56   S    
O1    P1    D    
C6    C7    A    
C61   P3    S    
C72   H52   S    
C78   H25   S    
C23   O7    S    
C48   C50   A    
C5    P8    S    
C34   H13   S    
C56   H18   S    
Ba2   O25   S    
C40   H23   S    
O20   P3    S    
C64   H64   S    
C6    H30   S    
Ba2   O4    S    
C75   O12   S    
C57   C58   A    
C47   C62   D    
C19   C20   A    
C43   C70   A    
C4    H26   S    
C52   O17   S    
C49   C69   A    
O16   P6    D    
C17   Cl1   S    
C59   N2    Am   
O4    P1    S    
C77   H62   S    
C51   C53   A    
C76   H5    S    
C4    C16   S    
C48   C51   A    
C72   C73   A    
C1    H3    S    
C49   C50   A    
C11   H32   S    
C79   O24   D    
C71   H51   S    
O19   P2    D    
C32   C42   A    
C66   C70   A    
C64   H65   S    
C73   H53   S    
O6    P7    D    
C37   C38   D    
C3    C5    A    
C67   H21   S    
C40   H34   S    
C63   C65   S    
Ba1   O19   S    
C76   H6    S    
O25   P4    D    
C1    H8    S    
Ba2   O29   S    
C62   P2    S    
Ba1   O4    S    
C41   C42   A    
Ba2   P4    S    
C60   C61   S    
O12   P2    S    
O23   P3    S    
Ba1   O26   S    
C29   C30   A    
C34   C79   S    
Ba2   O6    S    
C53   H46   S    
C38   H42   S    
C47   H58   S    
C31   H41   S    
C10   C80   A    
C54   C59   A    
C15   C21   A    
C21   C26   A    
Ba1   O1    S    
C68   C69   A    
C1    C12   S    
O28   P4    S    
C3    C10   A    
C51   H47   S    
C63   H54   S    
C32   N1    Am   
C38   C39   S    
O5    P2    S    
C75   H2    S    
C41   C68   A    
C8    C9    A    
C71   C74   A    
C20   C22   A    
C56   H20   S    
C16   H15   S    
C57   C73   A    
C18   H36   S    
C42   C43   A    
C28   H61   S    
C74   H55   S    
C76   H4    S    
C52   H45   S    
C13   C22   S    
Ba1   O29   S    
C3    H29   S    
C65   N2    S    
C59   O11   D    
C36   C46   S    
C12   H1    S    
C22   C24   A    
O9    P8    S    
C32   O10   D    
C75   H66   S    
C67   H22   S    
C39   N1    S    
C6    C13   A    
O2    P5    D    
C78   H24   S    
Ba1   O20   S    
C40   H12   S    
C62   C63   D    
Ba1   O5    S    
O8    P8    D    
C27   C29   A    
O3    P5    S    
C14   H33   S    
C30   C31   A    
C45   C56   S    
C60   H44   S    
C34   H11   S    
C79   H63   S    
C70   H49   S    
O27   P8    S    
C45   O3    S    
C43   H43   S    
Ba2   O5    S    
O15   P6    S    
C27   H39   S    
C78   H27   S    
C33   O13   D    
C46   H57   S    
O30   P5    S    
C35   C39   D    
C41   C44   A    
C58   O14   D    
C12   H7    S    
C9    C14   A    
C50   C55   A    
C45   H16   S    
C23   C34   S    
O26   P4    S    
C5    C11   A    
C2    C80   A    
C18   C19   A    
C24   C27   A    
C66   C68   A    
Ba2   O27   S    
C23   H10   S    
O18   P6    S    
C25   C26   A    
C28   O28   S    
C20   C21   A    
C28   C40   S    
C67   C78   S    
C56   H19   S    
Ba2   O26   S    
C4    H37   S    
C52   C64   S    
C33   C44   A    
C48   C66   A    
C44   C71   A    
C1    H14   S    
C8    H31   S    
C80   H28   S    
C37   C46   D    
