data_mof_unit_25198.cif
_audit_creation_date              2012-12-10T17:38:15-0500
_audit_creation_method            fapswitch 2.2
_symmetry_space_group_name_H-M    P1
_symmetry_Int_Tables_number       1
_space_group_crystal_system       triclinic
_cell_length_a                    12.364987
_cell_length_b                    13.152773
_cell_length_c                    19.332856
_cell_angle_alpha                 77.159629
_cell_angle_beta                  101.491344
_cell_angle_gamma                 116.470586
_cell_volume                      2726.03812087

loop_
_atom_site_label
_atom_site_type_symbol
_atom_type_description
_atom_site_fract_x
_atom_site_fract_y
_atom_site_fract_z
_atom_type_partial_charge
C1    C     C_R   0.855076 0.286349 0.506451 0.767861
C2    C     C_R   0.997477 0.498300 0.708215 -0.086280
C3    C     C_R   0.992656 0.491819 0.070381 0.385898
C4    C     C_R   0.992110 0.491387 0.930283 0.446498
C5    C     C_R   0.088809 0.488031 0.194790 -0.187133
C6    C     C_R   0.091740 0.489103 0.266999 -0.180634
C7    C     C_R   0.997900 0.498974 0.291272 -0.059338
C8    C     C_R   0.901417 0.508461 0.242111 -0.205473
C9    C     C_R   0.896981 0.507610 0.169205 0.165802
C10   C     C_R   0.991656 0.495628 0.145561 0.054783
C11   C     C_R   0.280002 0.027176 0.404191 -0.216088
C12   C     C_R   0.999722 0.499781 0.632351 0.796127
C13   C     C_R   0.227932 0.836733 0.472951 -0.135392
C14   C     C_R   0.814604 0.083726 0.554534 -0.176385
C15   C     C_R   0.735228 0.968908 0.569329 -0.119256
C16   C     C_R   0.612492 0.931980 0.543757 -0.179167
C17   C     C_R   0.566973 0.009298 0.499786 0.094672
C18   C     C_R   0.651225 0.123670 0.478318 0.082883
C19   C     C_R   0.440966 0.977033 0.475912 0.079566
C20   C     C_R   0.403363 0.056171 0.427105 0.092661
C21   C     C_R   0.489293 0.162915 0.400246 -0.211042
C22   C     C_R   0.611483 0.195315 0.424283 -0.188057
C23   C     C_R   0.144972 0.714089 0.488510 0.843438
C24   C     C_R   0.350862 0.868952 0.499422 -0.310070
C25   C     C_R   0.192105 0.918440 0.426441 0.379184
C26   C     C_R   0.773429 0.162866 0.510880 -0.099737
C27   C     C_R   0.350552 0.326696 0.610948 -0.264831
C28   C     C_R   0.757529 0.642995 0.401921 0.120447
C29   C     C_R   0.661434 0.675367 0.380261 -0.230148
C30   C     C_R   0.559200 0.622501 0.417071 -0.204538
C31   C     C_R   0.551657 0.535424 0.475862 0.007261
C32   C     C_R   0.653513 0.505953 0.496350 0.283894
C33   C     C_R   0.447360 0.475783 0.514887 -0.034377
C34   C     C_R   0.999854 0.500012 0.367514 0.798373
C35   C     C_R   0.448395 0.387685 0.571805 0.132178
C36   C     C_R   0.547646 0.360296 0.590628 -0.250657
C37   C     C_R   0.648250 0.418829 0.554161 -0.180873
C38   C     C_R   0.341607 0.498400 0.500422 -0.019337
C39   C     C_R   0.250769 0.353342 0.596739 0.354749
C40   C     C_R   0.103341 0.519709 0.756257 -0.181840
C41   C     C_R   0.100263 0.517222 0.828269 -0.208147
C42   C     C_R   0.991286 0.493521 0.853635 -0.026498
C43   C     C_R   0.884861 0.474359 0.804831 0.400487
C44   C     C_R   0.888914 0.476764 0.732858 -0.221341
Cu1   Cu    Cu3+1 0.098280 0.475420 0.516260 0.934562
Cu2   Cu    Cu3+1 0.901720 0.524580 0.483740 0.954062
H1    H     H_    0.188969 0.540431 0.737956 0.159664
H2    H     H_    0.461960 0.221881 0.360298 0.146645
H3    H     H_    0.251893 0.088602 0.367378 0.171938
H4    H     H_    0.373959 0.806986 0.538173 0.168460
H5    H     H_    0.907895 0.111033 0.578917 0.146561
H6    H     H_    0.556509 0.841935 0.558305 0.134949
H7    H     H_    0.768331 0.908568 0.602837 0.155389
H8    H     H_    0.674176 0.276442 0.398595 0.170732
H9    H     H_    0.548158 0.293016 0.634728 0.163064
H10   H     H_    0.352400 0.258180 0.653824 0.153657
H11   H     H_    0.183386 0.533321 0.864332 0.172755
H12   H     H_    0.333782 0.563765 0.457552 0.133172
H13   H     H_    0.835020 0.682805 0.372028 0.181196
H14   H     H_    0.487064 0.650223 0.398081 0.141240
H15   H     H_    0.665955 0.741184 0.334482 0.165252
H16   H     H_    0.719849 0.392204 0.573239 0.201010
H17   H     H_    0.806651 0.461646 0.696140 0.175384
H18   H     H_    0.162055 0.479615 0.177326 0.154973
H19   H     H_    0.167606 0.482347 0.303742 0.156524
H20   H     H_    0.829334 0.517466 0.260511 0.147787
N1    N     N_R   0.892628 0.420571 0.964197 -0.154964
N2    N     N_R   0.892847 0.420829 0.032945 -0.225023
N3    N     N_R   0.093704 0.559996 0.037272 -0.232498
N4    N     N_R   0.093394 0.559798 0.968426 -0.240874
N5    N     N_R   0.246290 0.438200 0.540910 -0.194833
N6    N     N_R   0.754310 0.561190 0.459520 -0.216503
O1    O     O_R   0.972510 0.318130 0.520450 -0.595055
O2    O     O_R   0.806530 0.359650 0.492990 -0.606421
O3    O     O_R   0.083010 0.479220 0.613590 -0.584997
O4    O     O_R   0.917030 0.520740 0.586130 -0.594014
O5    O     O_R   0.193470 0.640350 0.507010 -0.594558
O6    O     O_R   0.027490 0.681870 0.479550 -0.523809
O7    O     O_R   0.082970 0.479260 0.413870 -0.582407
O8    O     O_R   0.916990 0.520780 0.386410 -0.597131
C45   C     C_3   0.152446 0.283455 0.645868 -0.392760
C46   C     C_3   0.198189 0.307387 0.722725 -0.818536
H21   H     H_    0.245792 0.401210 0.723820 0.260074
H22   H     H_    0.120232 0.270295 0.754716 0.248093
H23   H     H_    0.262001 0.267788 0.747988 0.254103
H24   H     H_    0.069986 0.297255 0.630240 0.254225
H25   H     H_    0.123299 0.190551 0.645141 0.172469
Cl1   Cl    Cl    0.745812 0.453442 0.829581 -0.605866
C47   C     C_3   0.792889 0.523808 0.118799 -0.420555
C48   C     C_3   0.835985 0.641669 0.072173 -0.749240
H26   H     H_    0.881481 0.710611 0.106195 0.250549
H27   H     H_    0.900099 0.650733 0.036049 0.262711
H28   H     H_    0.756524 0.652544 0.038856 0.249123
H29   H     H_    0.746326 0.454688 0.085178 0.237667
H30   H     H_    0.722102 0.517014 0.149382 0.196188
Cl2   Cl    Cl    0.040471 0.889634 0.391297 -0.654254

loop_
_geom_bond_atom_site_label_1
_geom_bond_atom_site_label_2
_ccdc_geom_bond_type
C40   H1    S    
C8    H20   S    
Cu1   N5    S    
C41   C42   A    
C19   C20   A    
C18   C26   A    
C2    C12   S    
Cu2   O4    S    
C45   C46   S    
C7    C8    A    
C22   H8    S    
Cu1   Cu2   S    
C1    O2    A    
C15   H7    S    
C36   C37   A    
C3    N3    A    
C3    N2    A    
C5    C6    A    
C33   C35   A    
C11   C25   A    
C15   C16   A    
C13   C23   S    
Cu1   O1    S    
C47   H29   S    
C34   O8    A    
C38   H12   S    
C6    H19   S    
C14   H5    S    
C2    C44   A    
C16   C17   A    
C30   H14   S    
C31   C33   A    
C9    C10   A    
Cu2   N6    S    
C45   H24   S    
C21   H2    S    
C21   C22   A    
C13   C25   A    
C28   N6    A    
C4    N4    A    
C37   H16   S    
C44   H17   S    
C24   H4    S    
C29   H15   S    
C11   C20   A    
C27   C39   A    
N1    N2    A    
C39   C45   S    
C32   N6    A    
C9    C47   S    
Cu2   O6    S    
C27   H10   S    
C8    C9    A    
C27   C35   A    
C23   O5    A    
C13   C24   A    
C35   C36   A    
C47   H30   S    
C43   C44   A    
C29   C30   A    
C11   H3    S    
C34   O7    A    
C48   H27   S    
C31   C32   A    
C17   C18   A    
Cu1   O7    S    
C32   C37   A    
C14   C26   A    
C45   H25   S    
C40   C41   A    
C46   H22   S    
C12   O4    A    
C1    C26   S    
C7    C34   S    
C42   C43   A    
C43   Cl1   S    
Cu2   O2    S    
C48   H28   S    
C28   H13   S    
C38   N5    A    
C28   C29   A    
C18   C22   A    
C16   H6    S    
C4    N1    A    
C6    C7    A    
C46   H23   S    
C33   C38   A    
Cu1   O3    S    
C1    O1    A    
C19   C24   A    
C41   H11   S    
C5    C10   A    
C36   H9    S    
Cu2   O8    S    
C48   H26   S    
C30   C31   A    
C4    C42   S    
C17   C19   A    
C23   O6    A    
N3    N4    A    
C2    C40   A    
C20   C21   A    
C5    H18   S    
C25   Cl2   S    
C46   H21   S    
C12   O3    A    
C3    C10   S    
C39   N5    A    
C14   C15   A    
Cu1   O5    S    
C47   C48   S    
