data_mof_unit_34715.cif
_audit_creation_date              2012-12-10T18:00:16-0500
_audit_creation_method            fapswitch 2.2
_symmetry_space_group_name_H-M    P1
_symmetry_Int_Tables_number       1
_space_group_crystal_system       triclinic
_cell_length_a                    10.824993
_cell_length_b                    9.645428
_cell_length_c                    10.623911
_cell_angle_alpha                 90.357173
_cell_angle_beta                  93.059968
_cell_angle_gamma                 89.970549
_cell_volume                      1107.65739576

loop_
_atom_site_label
_atom_site_type_symbol
_atom_type_description
_atom_site_fract_x
_atom_site_fract_y
_atom_site_fract_z
_atom_type_partial_charge
C1    C     C_R   0.871590 0.499664 0.499940 -0.039243
C2    C     C_R   0.128420 0.499712 0.500493 -0.039457
C3    C     C_R   0.262450 0.499963 0.500076 0.799495
C4    C     C_R   0.737554 0.499924 0.500069 0.799382
C5    C     C_R   0.500030 0.499538 0.259695 0.853171
C6    C     C_R   0.500611 0.500485 0.740300 0.851239
C7    C     C_3   0.397584 0.563444 0.037114 -0.262762
C8    C     C_3   0.603990 0.436869 0.962783 -0.247795
C9    C     C_3   0.498262 0.632741 0.960091 -0.201165
C10   C     C_3   0.503391 0.367550 0.039800 -0.161420
C11   C     C_3   0.401618 0.433275 0.952564 0.455823
C12   C     C_3   0.599960 0.566953 0.047438 0.436939
C13   C     C_3   0.500961 0.501570 0.877128 -0.141686
C14   C     C_3   0.500541 0.498625 0.122841 -0.146368
C15   C     C_R   0.425383 0.073586 0.414998 0.065662
C16   C     C_R   0.582156 0.926562 0.577611 0.069512
C17   C     C_R   0.574509 0.074684 0.584987 0.075144
C18   C     C_R   0.417613 0.925563 0.422675 0.086825
C19   C     C_R   0.064018 0.373679 0.500428 -0.112710
C20   C     C_R   0.936037 0.625502 0.499492 -0.094823
C21   C     C_R   0.936157 0.373660 0.500511 -0.143380
C22   C     C_R   0.063814 0.625523 0.500756 -0.126191
Cu1   Cu    Cu3+1 0.500000 0.640660 0.500000 0.962563
Cu2   Cu    Cu3+1 0.500000 0.359340 0.500000 0.964036
H1    H     H_    0.312823 0.613947 0.069970 0.186824
H2    H     H_    0.688752 0.386431 0.929864 0.198441
H3    H     H_    0.497383 0.741176 0.925572 0.201998
H4    H     H_    0.505449 0.258973 0.073627 0.228073
H5    H     H_    0.112087 0.275145 0.500430 0.173641
H6    H     H_    0.888115 0.723988 0.498115 0.200634
H7    H     H_    0.888216 0.275119 0.500841 0.169289
H8    H     H_    0.111611 0.724015 0.502028 0.198217
N1    N     N_R   0.500000 0.852070 0.500000 -0.261052
N2    N     N_R   0.500000 0.147930 0.500000 -0.263637
O1    O     O_R   0.319640 0.618740 0.499990 -0.608355
O2    O     O_R   0.680360 0.381260 0.500010 -0.617757
O3    O     O_R   0.680360 0.618740 0.500010 -0.593289
O4    O     O_R   0.319640 0.381260 0.499990 -0.603453
O5    O     O_R   0.499970 0.618770 0.316850 -0.582777
O6    O     O_R   0.500030 0.381230 0.683150 -0.567252
O7    O     O_R   0.500030 0.618770 0.683150 -0.615186
O8    O     O_R   0.499970 0.381230 0.316850 -0.603335
C23   C     C_2   0.356116 0.145271 0.310050 0.478514
H9    H     H_    0.306859 0.240421 0.324249 0.103644
O9    O     O_2   0.353904 0.097004 0.203399 -0.528148
C24   C     C_2   0.684020 0.855214 0.650726 0.454074
H10   H     H_    0.670448 0.758598 0.697729 0.116675
O10   O     O_2   0.787783 0.905283 0.658539 -0.554098
C25   C     C_2   0.643295 0.147797 0.689948 0.503122
H11   H     H_    0.698078 0.238556 0.674376 0.084435
O11   O     O_2   0.638667 0.105796 0.797803 -0.532244
C26   C     C_2   0.314872 0.853377 0.350918 0.460901
H12   H     H_    0.327983 0.756581 0.302900 0.107208
O12   O     O_2   0.210942 0.903098 0.345312 -0.553148
Cl1   Cl    Cl    0.269091 0.344301 0.886575 -0.535324
Cl2   Cl    Cl    0.732531 0.655638 0.113685 -0.549428

loop_
_geom_bond_atom_site_label_1
_geom_bond_atom_site_label_2
_ccdc_geom_bond_type
C2    C22   A    
C15   C18   A    
Cu2   O4    S    
C5    O8    A    
C4    O2    A    
C1    C21   A    
C8    C13   S    
C16   N1    A    
C18   N1    A    
C21   H7    S    
C15   N2    A    
Cu1   O7    S    
C3    O1    A    
C8    C12   S    
C1    C4    S    
C25   O11   D    
C2    C3    S    
C12   C14   S    
C18   C26   S    
C20   H6    S    
C7    H1    S    
C4    O3    A    
C6    C13   S    
C7    C11   S    
C23   O9    D    
C5    C14   S    
Cu2   O2    S    
C22   H8    S    
Cu1   O5    S    
C12   Cl2   S    
C26   O12   D    
Cu1   O1    S    
C5    O5    A    
C23   H9    S    
C10   C14   S    
C8    H2    S    
C9    C12   S    
C6    O6    A    
Cu2   O6    S    
C17   N2    A    
Cu1   Cu2   S    
C15   C23   S    
C19   H5    S    
C24   O10   D    
C11   C13   S    
C11   Cl1   S    
Cu2   O8    S    
C26   H12   S    
C9    H3    S    
C8    C10   S    
C25   H11   S    
C10   C11   S    
C10   H4    S    
C7    C9    S    
C9    C13   S    
C24   H10   S    
C16   C24   S    
C1    C20   A    
C19   C21   A    
C2    C19   A    
Cu1   O3    S    
C7    C14   S    
C17   C25   S    
C3    O4    A    
C20   C22   A    
C16   C17   A    
Cu1   N1    S    
C6    O7    A    
Cu2   N2    S    
