data_mof_unit_53395.cif
_audit_creation_date              2012-12-11T14:08:43-0500
_audit_creation_method            fapswitch 2.2
_symmetry_space_group_name_H-M    P1
_symmetry_Int_Tables_number       1
_space_group_crystal_system       triclinic
_cell_length_a                    28.158097
_cell_length_b                    7.207293
_cell_length_c                    17.396028
_cell_angle_alpha                 90.004758
_cell_angle_beta                  101.618948
_cell_angle_gamma                 89.999423
_cell_volume                      3458.07073232

loop_
_atom_site_label
_atom_site_type_symbol
_atom_type_description
_atom_site_fract_x
_atom_site_fract_y
_atom_site_fract_z
_atom_type_partial_charge
O1    O     O_R   0.000700 0.436510 0.857920 -0.533264
O2    O     O_R   0.999300 0.563490 0.142080 -0.522073
O3    O     O_R   0.999300 0.936510 0.642080 -0.533259
O4    O     O_R   0.000700 0.063490 0.357920 -0.522075
O5    O     O_R   0.930080 0.766380 0.721890 -0.553042
O6    O     O_R   0.069920 0.233620 0.278110 -0.504240
O7    O     O_R   0.069920 0.266380 0.778110 -0.553017
O8    O     O_R   0.930080 0.733620 0.221890 -0.504218
C1    C     C_R   0.910593 0.597696 0.707976 0.756887
C2    C     C_R   0.089369 0.402196 0.291391 0.728171
C3    C     C_R   0.089402 0.097680 0.792054 0.756922
C4    C     C_R   0.910633 0.902162 0.208560 0.728177
O9    O     O_R   0.996180 0.766230 0.862310 -0.548080
O10   O     O_R   0.003820 0.233770 0.137690 -0.542874
O11   O     O_R   0.003820 0.266230 0.637690 -0.548153
O12   O     O_R   0.996180 0.733770 0.362310 -0.542869
O13   O     O_R   0.065870 0.936460 0.783500 -0.500176
O14   O     O_R   0.934130 0.063540 0.216500 -0.556244
O15   O     O_R   0.934130 0.436460 0.716500 -0.500170
O16   O     O_R   0.065870 0.563540 0.283500 -0.556294
C5    C     C_R   0.996264 0.595251 0.893386 0.708364
C6    C     C_R   0.000379 0.403662 0.105519 0.705156
C7    C     C_R   0.003737 0.095245 0.606616 0.708243
C8    C     C_R   0.999619 0.903669 0.394479 0.705189
O17   O     O_3   0.022790 0.603020 0.723980 -0.378429
O18   O     O_3   0.977210 0.396980 0.276020 -0.365141
O19   O     O_3   0.977210 0.103020 0.776020 -0.378393
O20   O     O_3   0.022790 0.896980 0.223980 -0.365183
V1    V     V_3+5 0.995770 0.877900 0.754830 1.574366
V2    V     V_3+5 0.004230 0.122100 0.245170 1.577610
V3    V     V_3+5 0.004230 0.377900 0.745170 1.574292
V4    V     V_3+5 0.995770 0.622100 0.254830 1.577560
C9    C     C_2   0.009980 0.077771 0.523477 -0.221460
C10   C     C_2   0.000255 0.916326 0.480180 -0.255064
C11   C     C_2   0.990020 0.577776 0.976527 -0.221426
C12   C     C_2   0.999739 0.416318 0.019814 -0.255095
C13   C     C_R   0.684430 0.989555 0.027539 0.695998
C14   C     C_R   0.316356 0.063371 0.981592 0.629000
C15   C     C_R   0.315494 0.493524 0.471976 0.696275
C16   C     C_R   0.683659 0.563821 0.518367 0.629292
O21   O     O_2   0.715112 0.011395 0.977846 -0.444098
O22   O     O_2   0.286203 0.068252 0.032777 -0.454813
O23   O     O_2   0.284765 0.516686 0.521507 -0.444306
O24   O     O_2   0.713866 0.566972 0.467242 -0.454771
N1    N     N_R   0.703158 0.955825 0.105179 -0.556073
N2    N     N_R   0.297147 0.075184 0.902831 -0.573256
N3    N     N_R   0.296827 0.457565 0.394499 -0.555976
N4    N     N_R   0.702826 0.576704 0.597116 -0.573201
C17   C     C_R   0.673547 0.930199 0.157626 0.619324
C18   C     C_R   0.326309 0.069089 0.848823 0.649633
C19   C     C_R   0.326484 0.430558 0.342224 0.619206
C20   C     C_R   0.673596 0.572548 0.651058 0.649506
C21   C     C_R   0.782030 0.096246 0.170697 -0.001290
C22   C     C_R   0.222136 0.247269 0.840499 -0.081290
C23   C     C_R   0.217881 0.597028 0.328802 -0.001872
C24   C     C_R   0.777943 0.748286 0.659350 -0.080860
C25   C     C_R   0.832562 0.076878 0.195719 -0.291527
C26   C     C_R   0.171672 0.246310 0.812314 -0.266130
C27   C     C_R   0.167357 0.577216 0.303880 -0.291170
C28   C     C_R   0.828398 0.746899 0.687594 -0.266106
C29   C     C_R   0.829625 0.763200 0.143646 0.400730
C30   C     C_R   0.166454 0.928539 0.856842 0.357042
C31   C     C_R   0.170473 0.263792 0.356219 0.400843
C32   C     C_R   0.833438 0.428729 0.643428 0.357255
C33   C     C_R   0.779037 0.781709 0.118897 -0.155091
C34   C     C_R   0.217065 0.929114 0.884081 -0.115192
C35   C     C_R   0.221060 0.282738 0.380902 -0.155482
C36   C     C_R   0.782825 0.429705 0.616143 -0.114679
C37   C     C_R   0.755079 0.945659 0.131865 0.274219
C38   C     C_R   0.245108 0.085851 0.876367 0.258288
C39   C     C_R   0.244919 0.446817 0.367779 0.274394
C40   C     C_R   0.754871 0.586862 0.623650 0.257939
C41   C     C_R   0.602542 0.980649 0.053701 -0.113941
C42   C     C_R   0.397753 0.043245 0.953925 -0.113198
C43   C     C_R   0.397416 0.483802 0.445984 -0.113939
C44   C     C_R   0.602194 0.546241 0.545909 -0.113272
C45   C     C_R   0.633597 0.002878 0.999751 -0.087740
C46   C     C_R   0.367169 0.047659 0.009192 -0.070627
C47   C     C_R   0.366310 0.507720 0.499754 -0.087722
C48   C     C_R   0.632836 0.548787 0.490712 -0.070656
C49   C     C_R   0.613223 0.040021 0.920295 0.421701
C50   C     C_R   0.388050 0.037893 0.089990 0.421995
C51   C     C_R   0.386622 0.547431 0.579007 0.421815
C52   C     C_R   0.611999 0.537984 0.409920 0.422046
C53   C     C_R   0.622916 0.943488 0.133134 -0.015090
C54   C     C_R   0.376912 0.054365 0.873222 -0.015217
C55   C     C_R   0.377103 0.444500 0.366717 -0.014829
C56   C     C_R   0.622980 0.558722 0.626595 -0.015587
C57   C     C_R   0.856851 0.912577 0.182659 -0.093348
C58   C     C_R   0.143194 0.089296 0.820270 -0.082253
C59   C     C_R   0.143157 0.412852 0.317144 -0.093264
C60   C     C_R   0.856789 0.589503 0.679820 -0.082338
H1    H     H_    0.757902 0.668133 0.088753 0.133766
H2    H     H_    0.235072 0.806290 0.911620 0.149430
H3    H     H_    0.242266 0.169433 0.411126 0.133732
H4    H     H_    0.764753 0.306902 0.588704 0.150256
C61   C     C_R   0.479345 0.029801 0.922613 0.076642
C62   C     C_R   0.520713 0.980814 0.084342 0.077008
C63   C     C_R   0.520535 0.535361 0.577058 0.076482
C64   C     C_R   0.479284 0.482691 0.415503 0.077003
C65   C     C_R   0.469681 0.007920 0.059886 -0.001981
C66   C     C_R   0.530786 0.024938 0.948173 -0.003341
C67   C     C_R   0.530311 0.509865 0.439949 -0.002028
C68   C     C_R   0.469101 0.530623 0.551399 -0.003390
C69   C     C_R   0.449081 0.027012 0.978948 0.064938
C70   C     C_R   0.551193 0.995457 0.028599 0.064623
C71   C     C_R   0.550859 0.530526 0.520833 0.065002
C72   C     C_R   0.448753 0.499047 0.471100 0.064500
C73   C     C_R   0.456873 0.035582 0.842178 -0.187576
C74   C     C_R   0.542489 0.937385 0.162889 -0.187052
C75   C     C_R   0.542938 0.542869 0.657495 -0.187819
C76   C     C_R   0.457568 0.437407 0.337127 -0.186911
C77   C     C_R   0.406842 0.048062 0.818239 -0.123286
C78   C     C_R   0.592439 0.919653 0.186592 -0.138145
C79   C     C_R   0.592978 0.554704 0.681506 -0.123045
C80   C     C_R   0.407629 0.419251 0.313426 -0.138248
O25   O     O_2   0.306335 0.075680 0.771536 -0.481239
O26   O     O_2   0.693103 0.892861 0.233412 -0.488819
O27   O     O_2   0.693510 0.580202 0.728352 -0.481151
O28   O     O_2   0.306985 0.391223 0.266604 -0.488847
C81   C     C_R   0.562622 0.051113 0.895815 -0.281324
C82   C     C_R   0.438533 0.019158 0.114080 -0.284783
C83   C     C_R   0.437217 0.558865 0.603523 -0.280995
C84   C     C_R   0.561509 0.519581 0.385793 -0.285052
H5    H     H_    0.154491 0.370562 0.784595 0.186000
H6    H     H_    0.853315 0.191915 0.225416 0.198599
H7    H     H_    0.845644 0.871180 0.715182 0.186176
H8    H     H_    0.146533 0.691969 0.274087 0.198700
H9    H     H_    0.391679 0.052494 0.755857 0.176646
H10   H     H_    0.607109 0.887401 0.247586 0.178219
H11   H     H_    0.608091 0.560445 0.743885 0.177045
H12   H     H_    0.393006 0.385507 0.252565 0.178077
H13   H     H_    0.476816 0.025923 0.795609 0.122928
H14   H     H_    0.521853 0.911487 0.207615 0.124182
H15   H     H_    0.522930 0.534986 0.704029 0.123371
H16   H     H_    0.478252 0.410266 0.292572 0.124131
H17   H     H_    0.549194 0.086239 0.835224 0.115537
H18   H     H_    0.452640 0.019054 0.176363 0.113861
H19   H     H_    0.450608 0.595880 0.663922 0.115183
H20   H     H_    0.547432 0.518514 0.323500 0.114029
C85   C     C_2   0.036570 0.231188 0.495028 0.793524
O29   O     O_2   0.080586 0.240703 0.516840 -0.540567
O30   O     O_R   0.011895 0.363909 0.443995 -0.620231
H21   H     H_    0.035236 0.453499 0.426330 0.299084
C86   C     C_2   0.998027 0.736267 0.519179 0.838155
O31   O     O_2   0.959906 0.650366 0.511140 -0.537193
O32   O     O_R   0.040901 0.665278 0.564117 -0.642480
H22   H     H_    0.036419 0.539953 0.587214 0.318432
C87   C     C_2   0.963426 0.731188 0.004979 0.793519
O33   O     O_2   0.919410 0.740692 0.983160 -0.540602
O34   O     O_R   0.988097 0.863923 0.056019 -0.620215
H23   H     H_    0.964752 0.953519 0.073678 0.299035
C88   C     C_2   0.001953 0.236253 0.980800 0.838140
O35   O     O_2   0.040068 0.150313 0.988831 -0.537148
O36   O     O_R   0.959072 0.165295 0.935864 -0.642471
H24   H     H_    0.963542 0.039945 0.912770 0.318435
O37   O     O_3   0.852972 0.602706 0.128466 -0.618831
H25   H     H_    0.828718 0.513203 0.100642 0.302248
O38   O     O_3   0.139404 0.773524 0.866675 -0.625803
H26   H     H_    0.161284 0.674269 0.892733 0.285641
O39   O     O_3   0.147213 0.103218 0.371539 -0.618749
H27   H     H_    0.171522 0.013957 0.399392 0.302455
O40   O     O_3   0.860398 0.273315 0.633806 -0.625752
H28   H     H_    0.838454 0.174011 0.607924 0.285480
O41   O     O_3   0.643070 0.066279 0.867014 -0.574576
H29   H     H_    0.623186 0.089355 0.814041 0.305249
O42   O     O_3   0.358851 0.047622 0.145034 -0.581324
H30   H     H_    0.378958 0.036574 0.198619 0.294411
O43   O     O_3   0.356720 0.575883 0.632037 -0.574556
H31   H     H_    0.376563 0.601112 0.684872 0.305109
O44   O     O_3   0.641248 0.546387 0.354915 -0.581286
H32   H     H_    0.621151 0.535210 0.301328 0.294577
C89   C     C_2   0.249880 0.418359 0.830941 0.859939
O45   O     O_2   0.240197 0.504790 0.769408 -0.478914
O46   O     O_R   0.286349 0.485834 0.891150 -0.654070
H33   H     H_    0.287045 0.422519 0.943259 0.272821
C90   C     C_2   0.758723 0.275199 0.185201 0.818473
O47   O     O_2   0.780156 0.383632 0.234313 -0.529698
O48   O     O_R   0.712781 0.322474 0.142440 -0.664474
H34   H     H_    0.701249 0.447672 0.158013 0.306288
C91   C     C_2   0.750318 0.919886 0.668633 0.859321
O49   O     O_2   0.760077 0.006948 0.730010 -0.479225
O50   O     O_R   0.713867 0.987122 0.608339 -0.654239
H35   H     H_    0.713128 0.923284 0.556320 0.272778
C92   C     C_2   0.241081 0.776023 0.313999 0.818561
O51   O     O_2   0.219456 0.884413 0.265067 -0.529748
O52   O     O_R   0.287149 0.823376 0.356243 -0.664546
H36   H     H_    0.298572 0.948600 0.340517 0.306993

loop_
_geom_bond_atom_site_label_1
_geom_bond_atom_site_label_2
_ccdc_geom_bond_type
O17   V3    S    
O44   H32   S    
O1    C5    A    
O37   H25   S    
C62   C74   A    
C23   C27   A    
C49   O41   S    
O19   V1    S    
C18   O25   S    
O13   V1    S    
O43   H31   S    
O3    C7    A    
O32   H22   S    
C76   C80   A    
C48   C52   A    
C52   O44   S    
C21   C37   A    
C86   O31   D    
C41   C70   A    
C68   C83   A    
C79   H11   S    
C91   O49   D    
O7    C3    A    
C36   H4    S    
C25   C57   A    
C54   C77   A    
C32   C36   A    
C22   C89   S    
O9    V1    S    
C53   C78   A    
N4    C40   S    
C14   O22   S    
N4    C20   A    
C85   O30   S    
O16   V4    S    
O4    C8    A    
C10   C86   S    
C92   O52   S    
C24   C91   S    
O30   H21   S    
C83   H19   S    
O1    V3    S    
O2    V4    S    
C81   H17   S    
O3    V1    S    
C41   C45   A    
C1    O15   A    
C11   C12   D    
C2    O16   A    
C24   C40   A    
C80   H12   S    
O2    C6    A    
O34   H23   S    
C16   C48   A    
O14   V2    S    
N1    C17   A    
C88   O36   S    
C66   C81   A    
C44   C56   A    
C61   C66   A    
C73   C77   A    
C34   H2    S    
C61   C69   A    
O11   C7    A    
C63   C68   A    
O15   V3    S    
C43   C72   A    
O12   C8    A    
C35   H3    S    
C78   H10   S    
C31   C59   A    
O10   V2    S    
C32   O40   S    
C67   C84   A    
C1    C60   S    
C86   O32   S    
O42   H30   S    
C29   C57   A    
C12   C88   S    
O39   H27   S    
O5    V1    S    
C50   O42   S    
C91   O50   S    
C65   C69   A    
C31   C35   A    
C64   C72   A    
O7    V3    S    
C76   H16   S    
C73   H13   S    
O8    V4    S    
C17   C53   A    
C4    C57   S    
C20   C56   A    
C82   H18   S    
C19   C55   A    
C25   H6    S    
C30   C34   A    
O18   V4    S    
N3    C19   A    
C14   C46   A    
C7    C9    S    
C27   H8    S    
C89   O45   D    
N1    C37   S    
C64   C67   A    
C8    C10   S    
C24   C28   A    
C49   C81   A    
C36   C40   A    
C15   C47   A    
O50   H35   S    
C20   O27   S    
O5    C1    A    
C29   O37   S    
C61   C73   A    
C46   C50   A    
C19   O28   S    
O38   H26   S    
C22   C38   A    
C45   C49   A    
O8    C4    A    
C63   C75   A    
C9    C10   D    
O9    C5    A    
C27   C59   A    
C42   C54   A    
C26   C58   A    
C41   C53   A    
C55   C80   A    
C30   C58   A    
C89   O46   S    
C77   H9    S    
C43   C55   A    
O6    V2    S    
C2    C59   S    
C64   C76   A    
C44   C71   A    
C74   H14   S    
C52   C84   A    
N3    C39   S    
C13   N1    A    
C68   C72   A    
N2    C38   S    
C63   C71   A    
C15   N3    A    
C22   C26   A    
C16   N4    A    
C74   C78   A    
C3    O13   A    
C21   C25   A    
C84   H20   S    
C28   H7    S    
C44   C48   A    
C21   C90   S    
O6    C2    A    
C15   O23   S    
O11   V3    S    
C5    C11   S    
O12   V4    S    
C62   C65   A    
C6    C12   S    
N2    C18   A    
C65   C82   A    
C62   C70   A    
C9    C85   S    
O10   C6    A    
C56   C79   A    
C87   O34   S    
O52   H36   S    
O46   H33   S    
C31   O39   S    
C85   O29   D    
C42   C69   A    
C47   C51   A    
C3    C58   S    
C75   H15   S    
C92   O51   D    
C34   C38   A    
C13   C45   A    
C33   C37   A    
C51   O43   S    
O20   V2    S    
C33   H1    S    
C90   O48   S    
C66   C70   A    
C35   C39   A    
C23   C92   S    
C13   O21   S    
O4    V2    S    
C14   N2    A    
O40   H28   S    
C18   C54   A    
O48   H34   S    
C17   O26   S    
C29   C33   A    
O41   H29   S    
C16   O24   S    
C26   H5    S    
C75   C79   A    
C90   O47   D    
C42   C46   A    
C4    O14   A    
O36   H24   S    
C32   C60   A    
C30   O38   S    
C67   C71   A    
C11   C87   S    
C51   C83   A    
C88   O35   D    
C87   O33   D    
C28   C60   A    
C43   C47   A    
C50   C82   A    
C23   C39   A    
