data_mof_unit_15522.cif
_audit_creation_date              2012-12-10T17:01:39-0500
_audit_creation_method            fapswitch 2.2
_symmetry_space_group_name_H-M    P1
_symmetry_Int_Tables_number       1
_space_group_crystal_system       triclinic
_cell_length_a                    10.097156
_cell_length_b                    11.044569
_cell_length_c                    12.97891
_cell_angle_alpha                 87.750954
_cell_angle_beta                  74.596652
_cell_angle_gamma                 112.225795
_cell_volume                      1275.7964465

loop_
_atom_site_label
_atom_site_type_symbol
_atom_type_description
_atom_site_fract_x
_atom_site_fract_y
_atom_site_fract_z
_atom_type_partial_charge
C1    C     C_R   0.437610 0.253225 0.508829 0.830274
C2    C     C_R   0.610962 0.671418 0.020335 0.458552
C3    C     C_R   0.370523 0.353857 0.879302 0.343212
C4    C     C_R   0.630816 0.645442 0.120278 0.342579
C5    C     C_R   0.537146 0.586684 0.861215 0.123126
C6    C     C_R   0.461945 0.413335 0.138923 0.122918
C7    C     C_R   0.536967 0.565751 0.970009 -0.154405
C8    C     C_R   0.462941 0.434239 0.029953 -0.155800
C9    C     C_2   0.399687 0.110777 0.517047 0.026060
C10   C     C_2   0.600298 0.889234 0.482881 0.025839
C11   C     C_2   0.512363 0.069703 0.494312 -0.148476
C12   C     C_R   0.562392 0.746781 0.491133 0.830087
C13   C     C_2   0.487620 0.930311 0.505374 -0.148280
C14   C     C_3   0.865530 0.795460 0.108068 -0.260315
C15   C     C_3   0.137593 0.200819 0.890562 -0.259350
C16   C     C_3   0.452936 0.151900 0.981121 -0.228959
C17   C     C_3   0.553186 0.850790 0.019222 -0.228309
C18   C     C_3   0.962632 0.735286 0.330792 -0.036793
C19   C     C_3   0.037517 0.265378 0.669894 -0.037215
C20   C     C_2   0.083734 0.512520 0.489754 0.332941
C21   C     C_2   0.916338 0.487456 0.510158 0.332366
C22   C     C_R   0.471329 0.493578 0.702466 0.915256
C23   C     C_R   0.528630 0.506264 0.297529 0.914076
C24   C     C_R   0.547168 0.519530 0.182068 -0.255023
C25   C     C_R   0.452770 0.480138 0.817912 -0.255269
C26   C     C_R   0.390066 0.328328 0.979425 0.459081
Cu1   Cu    Cu3+1 0.647370 0.522180 0.481340 1.043719
Cu2   Cu    Cu3+1 0.352630 0.477820 0.518660 1.043641
H1    H     H_    0.372547 0.857837 0.532776 0.209097
H2    H     H_    0.475308 0.153209 0.892297 0.197842
H3    H     H_    0.412488 0.047732 0.019225 0.174522
H4    H     H_    0.532860 0.849932 0.107865 0.197780
H5    H     H_    0.446124 0.794264 0.001798 0.159104
H6    H     H_    0.595482 0.955119 0.980845 0.174295
H7    H     H_    0.982582 0.790959 0.398836 0.185992
H8    H     H_    0.861008 0.733705 0.313513 0.202965
H9    H     H_    0.059108 0.790052 0.257854 0.136859
H10   H     H_    0.139457 0.267144 0.686724 0.202084
H11   H     H_    0.016776 0.209072 0.602307 0.186016
H12   H     H_    0.627429 0.142182 0.466706 0.208933
H13   H     H_    0.941543 0.211159 0.743260 0.136245
H14   H     H_    0.891083 0.836795 0.022312 0.211297
H15   H     H_    0.907144 0.715879 0.112109 0.159709
H16   H     H_    0.929108 0.877632 0.145427 0.184830
H17   H     H_    0.094116 0.279397 0.888403 0.157334
H18   H     H_    0.112217 0.157326 0.975686 0.212243
H19   H     H_    0.075568 0.119668 0.851618 0.185388
H20   H     H_    0.558524 0.210108 0.999814 0.158665
I1    I     I_    0.325674 0.227929 0.247891 -0.262658
I2    I     I_    0.670305 0.772728 0.752527 -0.263392
I3    I     I_    0.832452 0.020678 0.432027 -0.315623
I4    I     I_    0.167512 0.979355 0.568381 -0.316295
I5    I     I_    0.750141 0.331964 0.639528 -0.298134
I6    I     I_    0.249981 0.667882 0.360280 -0.299365
N1    N     N_2   0.131210 0.444490 0.546730 -0.020191
N2    N     N_2   0.868790 0.555510 0.453270 -0.020301
O1    O     O_R   0.578710 0.332530 0.490040 -0.581907
O2    O     O_3   0.292214 0.249979 0.832993 -0.579960
O3    O     O_3   0.340288 0.197831 0.024672 -0.555640
O4    O     O_3   0.662940 0.802037 0.974613 -0.555335
O5    O     O_3   0.954042 0.605957 0.350356 -0.506846
O6    O     O_3   0.046159 0.394642 0.649777 -0.506562
O7    O     O_R   0.421290 0.667470 0.509960 -0.581740
O8    O     O_R   0.329810 0.295070 0.521560 -0.575202
O9    O     O_R   0.670190 0.704930 0.478440 -0.575352
O10   O     O_R   0.604230 0.515670 0.637800 -0.556568
O11   O     O_R   0.395770 0.484330 0.362200 -0.556621
O12   O     O_R   0.355330 0.478200 0.669330 -0.554533
O13   O     O_R   0.644670 0.521800 0.330670 -0.553964
O14   O     O_3   0.711228 0.748877 0.165931 -0.580546

loop_
_geom_bond_atom_site_label_1
_geom_bond_atom_site_label_2
_ccdc_geom_bond_type
C21   N2    D    
C2    C4    A    
C23   C24   S    
C3    O2    S    
C18   O5    S    
Cu1   O9    S    
C19   H10   S    
C1    O1    A    
C12   O7    A    
C8    C26   A    
C26   O3    S    
C23   O13   A    
C12   O9    A    
C2    C7    A    
Cu1   O13   S    
C15   H19   S    
C14   H14   S    
C6    C24   A    
C16   H20   S    
C4    O14   S    
C7    C8    A    
Cu1   O10   S    
C10   C13   D    
C16   H3    S    
C21   I5    S    
C11   C13   S    
C20   I6    S    
C22   O12   A    
C14   O14   S    
C9    I4    S    
C17   H5    S    
C20   N1    D    
C5    C25   A    
C10   I3    S    
Cu2   O8    S    
C13   H1    S    
Cu2   O12   S    
C18   H9    S    
Cu2   N1    S    
C10   C12   S    
C9    C11   D    
C6    I1    S    
Cu1   O1    S    
C11   H12   S    
C4    C24   A    
C15   O2    S    
C2    O4    S    
C5    I2    S    
C17   H6    S    
C15   H17   S    
C19   H11   S    
C16   H2    S    
C19   O6    S    
N1    O6    S    
C3    C25   A    
Cu2   O11   S    
C1    C9    S    
C20   C21   S    
C14   H16   S    
Cu2   O7    S    
C18   H7    S    
C23   O11   A    
Cu1   Cu2   S    
C5    C7    A    
C17   H4    S    
Cu1   N2    S    
C22   O10   A    
C6    C8    A    
C17   O4    S    
C15   H18   S    
N2    O5    S    
C18   H8    S    
C1    O8    A    
C22   C25   S    
C3    C26   A    
C19   H13   S    
C14   H15   S    
C16   O3    S    
