data_mof_unit_65013.cif
_audit_creation_date              2012-12-10T19:31:57-0500
_audit_creation_method            fapswitch 2.2
_symmetry_space_group_name_H-M    P1
_symmetry_Int_Tables_number       1
_space_group_crystal_system       triclinic
_cell_length_a                    25.977487
_cell_length_b                    24.318007
_cell_length_c                    16.588993
_cell_angle_alpha                 90.073052
_cell_angle_beta                  89.999954
_cell_angle_gamma                 90.0
_cell_volume                      10479.60193

loop_
_atom_site_label
_atom_site_type_symbol
_atom_type_description
_atom_site_fract_x
_atom_site_fract_y
_atom_site_fract_z
_atom_type_partial_charge
C1    C     C_R   0.073579 0.428876 0.500130 0.890216
C2    C     C_R   0.925969 0.570533 0.500138 0.882975
C3    C     C_R   0.925969 0.429466 0.499862 0.882976
C4    C     C_R   0.073579 0.571123 0.499870 0.890217
C5    C     C_R   0.573579 0.928876 0.500130 0.890216
C6    C     C_R   0.425969 0.070533 0.500138 0.882975
C7    C     C_R   0.425969 0.929467 0.499862 0.882976
C8    C     C_R   0.573579 0.071123 0.499870 0.890217
C9    C     C_R   0.990647 0.547647 0.744381 0.438435
C10   C     C_R   0.990647 0.452352 0.255619 0.438434
C11   C     C_R   0.009515 0.452285 0.743930 0.439487
C12   C     C_R   0.009515 0.547715 0.256070 0.439487
C13   C     C_R   0.490647 0.047647 0.744381 0.438434
C14   C     C_R   0.490647 0.952352 0.255619 0.438434
C15   C     C_R   0.509515 0.952285 0.743930 0.439487
C16   C     C_R   0.509515 0.047715 0.256070 0.439487
C17   C     C_R   0.003311 0.500557 0.873686 -0.116314
C18   C     C_R   0.003311 0.499443 0.126313 -0.116314
C19   C     C_R   0.503311 0.000557 0.873686 -0.116313
C20   C     C_R   0.503311 0.999443 0.126313 -0.116314
C21   C     C_1   0.003446 0.500186 0.963056 0.137652
C22   C     C_1   0.003446 0.499814 0.036943 0.137652
C23   C     C_1   0.503446 0.000186 0.963056 0.137651
C24   C     C_1   0.503446 0.999814 0.036943 0.137652
C25   C     C_R   0.162956 0.691582 0.547845 0.325074
C26   C     C_R   0.811103 0.349266 0.418591 0.332156
C27   C     C_R   0.833155 0.312710 0.550619 0.319911
C28   C     C_R   0.189054 0.651068 0.420113 0.321638
C29   C     C_R   0.833155 0.687289 0.449381 0.319911
C30   C     C_R   0.189054 0.348932 0.579886 0.321638
C31   C     C_R   0.162955 0.308418 0.452155 0.325074
C32   C     C_R   0.811103 0.650733 0.581409 0.332155
C33   C     C_R   0.662956 0.191582 0.547845 0.325074
C34   C     C_R   0.311103 0.849266 0.418590 0.332155
C35   C     C_R   0.333155 0.812711 0.550619 0.319911
C36   C     C_R   0.689054 0.151068 0.420113 0.321637
C37   C     C_R   0.333155 0.187289 0.449381 0.319911
C38   C     C_R   0.689054 0.848932 0.579886 0.321638
C39   C     C_R   0.662955 0.808418 0.452155 0.325074
C40   C     C_R   0.311103 0.150733 0.581409 0.332155
C41   C     C_R   0.125679 0.650317 0.558195 -0.143145
C42   C     C_R   0.848176 0.391044 0.427939 -0.097248
C43   C     C_R   0.870528 0.353940 0.560899 -0.132289
C44   C     C_R   0.152018 0.609229 0.429637 -0.090397
C45   C     C_R   0.870528 0.646059 0.439101 -0.132288
C46   C     C_R   0.152018 0.390771 0.570362 -0.090398
C47   C     C_R   0.125679 0.349683 0.441805 -0.143145
C48   C     C_R   0.848176 0.608956 0.572061 -0.097247
C49   C     C_R   0.625679 0.150317 0.558195 -0.143144
C50   C     C_R   0.348176 0.891044 0.427939 -0.097247
C51   C     C_R   0.370528 0.853941 0.560900 -0.132289
C52   C     C_R   0.652018 0.109229 0.429637 -0.090396
C53   C     C_R   0.370528 0.146059 0.439101 -0.132288
C54   C     C_R   0.652018 0.890771 0.570363 -0.090397
C55   C     C_R   0.625679 0.849683 0.441805 -0.143145
C56   C     C_R   0.348176 0.108956 0.572061 -0.097248
C57   C     C_R   0.118207 0.609884 0.497397 -0.243192
C58   C     C_R   0.880510 0.391800 0.497530 -0.238335
C59   C     C_R   0.880510 0.608200 0.502470 -0.238336
C60   C     C_R   0.118207 0.390116 0.502603 -0.243191
C61   C     C_R   0.618207 0.109884 0.497397 -0.243192
C62   C     C_R   0.380510 0.891800 0.497530 -0.238336
C63   C     C_R   0.380510 0.108200 0.502470 -0.238337
C64   C     C_R   0.618207 0.890116 0.502603 -0.243192
C65   C     C_R   0.193719 0.692272 0.478592 -0.084789
C66   C     C_R   0.804569 0.309895 0.479173 -0.086175
C67   C     C_R   0.804568 0.690105 0.520827 -0.086175
C68   C     C_R   0.193719 0.307727 0.521408 -0.084789
C69   C     C_R   0.693719 0.192272 0.478592 -0.084789
C70   C     C_R   0.304569 0.809895 0.479173 -0.086175
C71   C     C_R   0.304568 0.190105 0.520827 -0.086175
C72   C     C_R   0.693719 0.807727 0.521408 -0.084789
C73   C     C_1   0.232856 0.733620 0.471582 0.214438
C74   C     C_1   0.765567 0.268417 0.471773 0.215466
C75   C     C_1   0.765566 0.731583 0.528227 0.215466
C76   C     C_1   0.232856 0.266379 0.528418 0.214438
C77   C     C_1   0.732856 0.233620 0.471582 0.214438
C78   C     C_1   0.265567 0.768417 0.471773 0.215466
C79   C     C_1   0.265566 0.231583 0.528227 0.215466
C80   C     C_1   0.732856 0.766379 0.528418 0.214438
C81   C     C_R   0.990493 0.548349 0.830260 -0.186523
C82   C     C_R   0.990493 0.451651 0.169740 -0.186523
C83   C     C_R   0.013198 0.452223 0.829589 -0.173663
C84   C     C_R   0.013198 0.547777 0.170410 -0.173665
C85   C     C_R   0.490493 0.048349 0.830260 -0.186524
C86   C     C_R   0.490493 0.951651 0.169740 -0.186524
C87   C     C_R   0.513198 0.952223 0.829589 -0.173664
C88   C     C_R   0.513198 0.047777 0.170410 -0.173664
Cu1   Cu    Cu3+1 0.000000 0.500000 0.580420 1.098777
Cu2   Cu    Cu3+1 0.000000 0.500000 0.419580 1.098776
Cu3   Cu    Cu3+1 0.500000 0.000000 0.580420 1.098776
Cu4   Cu    Cu3+1 0.500000 0.000000 0.419580 1.098777
N1    N     N_R   0.000000 0.500000 0.701220 -0.235374
N2    N     N_R   0.000000 0.500000 0.298780 -0.235374
N3    N     N_R   0.500000 0.000000 0.701220 -0.235374
N4    N     N_R   0.500000 0.000000 0.298780 -0.235374
O1    O     O_R   0.054370 0.445630 0.567930 -0.547286
O2    O     O_R   0.945630 0.554370 0.432070 -0.539280
O3    O     O_R   0.945630 0.554370 0.567930 -0.546299
O4    O     O_R   0.054370 0.445630 0.432070 -0.547251
O5    O     O_R   0.945630 0.445630 0.432070 -0.546299
O6    O     O_R   0.054370 0.554370 0.567930 -0.547251
O7    O     O_R   0.054370 0.554370 0.432070 -0.547287
O8    O     O_R   0.945630 0.445630 0.567930 -0.539279
O9    O     O_R   0.554370 0.945630 0.567930 -0.547286
O10   O     O_R   0.445630 0.054370 0.432070 -0.539280
O11   O     O_R   0.445630 0.054370 0.567930 -0.546299
O12   O     O_R   0.554370 0.945630 0.432070 -0.547251
O13   O     O_R   0.445630 0.945630 0.432070 -0.546299
O14   O     O_R   0.554370 0.054370 0.567930 -0.547252
O15   O     O_R   0.554370 0.054370 0.432070 -0.547286
O16   O     O_R   0.445630 0.945630 0.567930 -0.539279
Cl1   Cl    Cl    0.172592 0.742152 0.623771 -0.418594
Cl2   Cl    Cl    0.770330 0.347573 0.332916 -0.411577
Cl3   Cl    Cl    0.820333 0.265134 0.629302 -0.414602
Cl4   Cl    Cl    0.232021 0.650629 0.337056 -0.411152
Cl5   Cl    Cl    0.820332 0.734865 0.370698 -0.414602
Cl6   Cl    Cl    0.232020 0.349370 0.662944 -0.411153
Cl7   Cl    Cl    0.172592 0.257847 0.376230 -0.418594
Cl8   Cl    Cl    0.770330 0.652427 0.667084 -0.411577
Cl9   Cl    Cl    0.672592 0.242152 0.623770 -0.418595
Cl10  Cl    Cl    0.270330 0.847572 0.332915 -0.411576
Cl11  Cl    Cl    0.320332 0.765135 0.629303 -0.414601
Cl12  Cl    Cl    0.732020 0.150629 0.337056 -0.411153
Cl13  Cl    Cl    0.320332 0.234865 0.370698 -0.414602
Cl14  Cl    Cl    0.732020 0.849370 0.662944 -0.411153
Cl15  Cl    Cl    0.672592 0.757847 0.376230 -0.418594
Cl16  Cl    Cl    0.270330 0.152427 0.667084 -0.411577
C89   C     C_2   0.096416 0.650130 0.634295 1.019082
O17   O     O_2   0.066843 0.687885 0.649331 -0.461765
O18   O     O_R   0.106010 0.609249 0.691497 -0.729533
H1    H     H_    0.087240 0.615927 0.744158 0.361530
C90   C     C_2   0.850173 0.435805 0.367150 0.998879
O19   O     O_2   0.847046 0.483762 0.388897 -0.556972
O20   O     O_R   0.855789 0.423182 0.285380 -0.637469
H2    H     H_    0.857389 0.457242 0.250281 0.353543
C91   C     C_2   0.896793 0.357434 0.639695 1.029890
O21   O     O_2   0.923249 0.319054 0.663085 -0.455789
O22   O     O_R   0.888359 0.403040 0.689381 -0.697204
H3    H     H_    0.906129 0.399583 0.743531 0.348992
C92   C     C_2   0.151734 0.562678 0.371719 0.993886
O23   O     O_2   0.148003 0.571273 0.299333 -0.482898
O24   O     O_R   0.155808 0.508885 0.400511 -0.734864
H4    H     H_    0.156008 0.480699 0.355501 0.372673
C93   C     C_2   0.896793 0.642566 0.360305 1.029889
O25   O     O_2   0.923249 0.680945 0.336915 -0.455789
O26   O     O_R   0.888359 0.596960 0.310618 -0.697205
H5    H     H_    0.906129 0.600417 0.256468 0.348992
C94   C     C_2   0.151734 0.437322 0.628281 0.993886
O27   O     O_2   0.148003 0.428726 0.700667 -0.482897
O28   O     O_R   0.155808 0.491115 0.599489 -0.734864
H6    H     H_    0.156008 0.519301 0.644499 0.372673
C95   C     C_2   0.096417 0.349870 0.365705 1.019082
O29   O     O_2   0.066843 0.312115 0.350668 -0.461764
O30   O     O_R   0.106010 0.390751 0.308503 -0.729533
H7    H     H_    0.087241 0.384074 0.255842 0.361529
C96   C     C_2   0.850173 0.564196 0.632851 0.998878
O31   O     O_2   0.847047 0.516238 0.611104 -0.556971
O32   O     O_R   0.855790 0.576818 0.714620 -0.637469
H8    H     H_    0.857390 0.542758 0.749719 0.353542
C97   C     C_2   0.596417 0.150130 0.634295 1.019082
O33   O     O_2   0.566843 0.187885 0.649331 -0.461765
O34   O     O_R   0.606010 0.109249 0.691497 -0.729533
H9    H     H_    0.587240 0.115927 0.744158 0.361530
C98   C     C_2   0.350173 0.935804 0.367149 0.998879
O35   O     O_2   0.347047 0.983762 0.388895 -0.556971
O36   O     O_R   0.355790 0.923181 0.285379 -0.637469
H10   H     H_    0.357390 0.957241 0.250280 0.353542
C99   C     C_2   0.396792 0.857435 0.639696 1.029889
O37   O     O_2   0.423248 0.819055 0.663087 -0.455788
O38   O     O_R   0.388358 0.903042 0.689381 -0.697205
H11   H     H_    0.406128 0.899585 0.743531 0.348991
C100  C     C_2   0.651734 0.062678 0.371719 0.993886
O39   O     O_2   0.648003 0.071274 0.299333 -0.482898
O40   O     O_R   0.655809 0.008885 0.400511 -0.734864
H12   H     H_    0.656008 0.980699 0.355502 0.372673
C101  C     C_2   0.396793 0.142566 0.360305 1.029890
O41   O     O_2   0.423249 0.180945 0.336915 -0.455789
O42   O     O_R   0.388359 0.096960 0.310619 -0.697204
H13   H     H_    0.406129 0.100417 0.256468 0.348992
C102  C     C_2   0.651734 0.937322 0.628281 0.993886
O43   O     O_2   0.648003 0.928726 0.700667 -0.482899
O44   O     O_R   0.655808 0.991115 0.599489 -0.734864
H14   H     H_    0.656008 0.019301 0.644499 0.372673
C103  C     C_2   0.596417 0.849870 0.365705 1.019082
O45   O     O_2   0.566843 0.812115 0.350668 -0.461764
O46   O     O_R   0.606010 0.890751 0.308503 -0.729534
H15   H     H_    0.587241 0.884074 0.255842 0.361530
C104  C     C_2   0.350173 0.064196 0.632850 0.998879
O47   O     O_2   0.347046 0.016238 0.611104 -0.556971
O48   O     O_R   0.355790 0.076818 0.714620 -0.637468
H16   H     H_    0.357390 0.042758 0.749719 0.353542
C105  C     C_2   0.976857 0.599430 0.874426 0.953391
O49   O     O_2   0.936576 0.623316 0.859305 -0.466553
O50   O     O_R   0.010039 0.620128 0.933281 -0.737345
H17   H     H_    0.996620 0.655223 0.958776 0.369426
C106  C     C_2   0.976857 0.400570 0.125574 0.953391
O51   O     O_2   0.936576 0.376684 0.140695 -0.466553
O52   O     O_R   0.010039 0.379871 0.066719 -0.737345
H18   H     H_    0.996621 0.344777 0.041224 0.369426
C107  C     C_2   0.028618 0.401624 0.873020 0.979974
O53   O     O_2   0.003047 0.359636 0.866505 -0.508317
O54   O     O_R   0.072735 0.402259 0.921242 -0.669615
H19   H     H_    0.080376 0.365055 0.946005 0.378890
C108  C     C_2   0.028619 0.598376 0.126980 0.979974
O55   O     O_2   0.003048 0.640364 0.133496 -0.508315
O56   O     O_R   0.072735 0.597741 0.078757 -0.669616
H20   H     H_    0.080376 0.634944 0.053994 0.378891
C109  C     C_2   0.476857 0.099430 0.874426 0.953391
O57   O     O_2   0.436576 0.123316 0.859305 -0.466553
O58   O     O_R   0.510039 0.120128 0.933281 -0.737345
H21   H     H_    0.496620 0.155223 0.958776 0.369426
C110  C     C_2   0.476857 0.900570 0.125574 0.953392
O59   O     O_2   0.436576 0.876684 0.140695 -0.466554
O60   O     O_R   0.510039 0.879872 0.066719 -0.737345
H22   H     H_    0.496621 0.844777 0.041224 0.369426
C111  C     C_2   0.528619 0.901624 0.873020 0.979974
O61   O     O_2   0.503048 0.859636 0.866504 -0.508315
O62   O     O_R   0.572735 0.902259 0.921242 -0.669616
H23   H     H_    0.580376 0.865056 0.946005 0.378891
C112  C     C_2   0.528618 0.098376 0.126980 0.979974
O63   O     O_2   0.503047 0.140364 0.133495 -0.508317
O64   O     O_R   0.572735 0.097741 0.078758 -0.669616
H24   H     H_    0.580376 0.134945 0.053995 0.378891
Cl17  Cl    Cl    0.981105 0.610939 0.695039 -0.488858
Cl18  Cl    Cl    0.981105 0.389060 0.304961 -0.488859
Cl19  Cl    Cl    0.017666 0.388839 0.694053 -0.485715
Cl20  Cl    Cl    0.017666 0.611161 0.305947 -0.485714
Cl21  Cl    Cl    0.481104 0.110939 0.695039 -0.488858
Cl22  Cl    Cl    0.481105 0.889061 0.304961 -0.488858
Cl23  Cl    Cl    0.517666 0.888839 0.694053 -0.485714
Cl24  Cl    Cl    0.517666 0.111161 0.305947 -0.485714

loop_
_geom_bond_atom_site_label_1
_geom_bond_atom_site_label_2
_ccdc_geom_bond_type
C3    O8    A    
C6    C63   S    
O38   H11   S    
C98   O35   D    
C40   C71   A    
Cu1   O6    S    
C70   C78   S    
C99   O38   S    
C99   O37   D    
Cu3   O9    S    
C69   C77   S    
O34   H9    S    
C76   C79   T    
C83   C107  S    
C42   C58   A    
C71   C79   S    
C97   O33   D    
O20   H2    S    
C7    C62   S    
C5    O9    A    
C108  O55   D    
O58   H21   S    
C91   O22   S    
C96   O31   D    
C54   C64   A    
Cu1   O3    S    
C42   C90   S    
C45   C93   S    
Cu3   O14   S    
C15   C87   A    
C36   Cl12  S    
C19   C87   A    
C52   C61   A    
C94   O28   S    
C15   N3    A    
Cu4   O13   S    
C103  O46   S    
C10   N2    A    
C33   C49   A    
O24   H4    S    
C40   Cl16  S    
C4    O7    A    
Cu4   N4    S    
C65   C73   S    
C7    O16   A    
C12   C84   A    
C28   C44   A    
C104  O48   S    
C107  O53   D    
C14   N4    A    
C106  O52   S    
Cu1   O1    S    
C53   C63   A    
C28   Cl4   S    
O26   H5    S    
C38   Cl14  S    
C47   C60   A    
C29   C67   A    
C16   N4    A    
C84   C108  S    
Cu4   O12   S    
C39   C55   A    
C20   C24   S    
C35   C70   A    
C44   C92   S    
C101  O42   S    
C74   C77   T    
C4    O6    A    
C4    C57   S    
C18   C84   A    
C73   C78   T    
C97   O34   S    
C95   O30   S    
C75   C80   T    
C34   C70   A    
C49   C97   S    
C36   C52   A    
C33   C69   A    
C8    C61   S    
C55   C103  S    
C37   C53   A    
C3    O5    A    
C102  O44   S    
C6    O11   A    
O52   H18   S    
C34   Cl10  S    
C31   C47   A    
C21   C22   T    
C33   Cl9   S    
C107  O54   S    
C12   N2    A    
C104  O47   D    
C51   C62   A    
C32   Cl8   S    
C1    O4    A    
Cu2   O4    S    
C93   O26   S    
Cu2   N2    S    
C37   Cl13  S    
C110  O60   S    
C27   C66   A    
C31   C68   A    
C38   C72   A    
C34   C50   A    
C49   C61   A    
C100  O39   D    
C26   C66   A    
Cu3   O11   S    
C51   C99   S    
C25   C65   A    
C14   C86   A    
O64   H24   S    
C1    C60   S    
C1    O1    A    
O36   H10   S    
C2    C59   S    
C30   Cl6   S    
C40   C56   A    
C111  O61   D    
C102  O43   D    
C29   Cl5   S    
C16   Cl24  S    
C17   C21   S    
O56   H20   S    
C5    C64   S    
C20   C86   A    
C17   C83   A    
C39   Cl15  S    
Cu3   O16   S    
C96   O32   S    
C19   C23   S    
O60   H22   S    
C26   Cl2   S    
Cu2   O5    S    
C112  O63   D    
C8    O14   A    
O32   H8    S    
C38   C54   A    
C110  O59   D    
C44   C57   A    
O28   H6    S    
C55   C64   A    
C50   C98   S    
C105  O50   S    
C109  O57   D    
C6    O10   A    
C56   C63   A    
O44   H14   S    
C31   Cl7   S    
C100  O40   S    
C13   Cl21  S    
C82   C106  S    
C32   C67   A    
C25   Cl1   S    
C11   Cl19  S    
C7    O13   A    
C13   N3    A    
C2    O3    A    
C101  O41   D    
C37   C71   A    
Cu1   O8    S    
C35   C51   A    
C90   O19   D    
C50   C62   A    
C8    O15   A    
C111  O62   S    
C25   C41   A    
O18   H1    S    
C9    N1    A    
C93   O25   D    
Cu3   Cu4   S    
C36   C69   A    
C26   C42   A    
C48   C59   A    
C16   C88   A    
C89   O17   D    
C48   C96   S    
Cu4   O10   S    
O48   H16   S    
O62   H23   S    
C56   C104  S    
C45   C59   A    
C15   Cl23  S    
C46   C60   A    
C18   C22   S    
C30   C46   A    
C19   C85   A    
C85   C109  S    
O22   H3    S    
Cu4   O15   S    
C106  O51   D    
O42   H13   S    
C68   C76   S    
C47   C95   S    
C91   O21   D    
C27   Cl3   S    
C112  O64   S    
C11   C83   A    
C92   O24   S    
C28   C65   A    
Cu1   Cu2   S    
C86   C110  S    
C41   C57   A    
O46   H15   S    
C72   C80   S    
O40   H12   S    
C92   O23   D    
C41   C89   S    
C43   C58   A    
C11   N1    A    
C103  O45   D    
C32   C48   A    
C53   C101  S    
C20   C88   A    
C35   Cl11  S    
C18   C82   A    
C10   C82   A    
C43   C91   S    
C17   C81   A    
C87   C111  S    
Cu1   N1    S    
C39   C72   A    
C30   C68   A    
Cu2   O7    S    
C14   Cl22  S    
C12   Cl20  S    
C23   C24   T    
C81   C105  S    
O50   H17   S    
C3    C58   S    
C27   C43   A    
C46   C94   S    
C67   C75   S    
C54   C102  S    
C2    O2    A    
Cu3   N3    S    
C98   O36   S    
C105  O49   D    
C13   C85   A    
O30   H7    S    
C10   Cl18  S    
C90   O20   S    
C109  O58   S    
C88   C112  S    
C9    Cl17  S    
O54   H19   S    
C95   O29   D    
C94   O27   D    
C108  O56   S    
C52   C100  S    
Cu2   O2    S    
C29   C45   A    
C9    C81   A    
C89   O18   S    
C5    O12   A    
C66   C74   S    
