data_mof_unit_32367.cif
_audit_creation_date              2012-12-10T20:46:52-0500
_audit_creation_method            fapswitch 2.2
_symmetry_space_group_name_H-M    P1
_symmetry_Int_Tables_number       1
_space_group_crystal_system       triclinic
_cell_length_a                    12.888362
_cell_length_b                    8.933317
_cell_length_c                    8.101888
_cell_angle_alpha                 89.984035
_cell_angle_beta                  98.031324
_cell_angle_gamma                 89.992509
_cell_volume                      923.668266737

loop_
_atom_site_label
_atom_site_type_symbol
_atom_type_description
_atom_site_fract_x
_atom_site_fract_y
_atom_site_fract_z
_atom_type_partial_charge
Br1   Br    Br    0.805462 0.685274 0.862280 -0.363795
Br2   Br    Br    0.194536 0.314730 0.137718 -0.363797
Br3   Br    Br    0.937963 0.303100 0.111652 -0.371286
Br4   Br    Br    0.062036 0.696910 0.888345 -0.371284
C1    C     C_R   0.500002 0.217968 0.500011 0.937906
C2    C     C_R   0.872947 0.587298 0.692577 0.248131
C3    C     C_R   0.136061 0.553100 0.567375 -0.204367
C4    C     C_R   0.863940 0.446898 0.432626 -0.204369
C5    C     C_R   0.029633 0.538327 0.567264 0.008650
C6    C     C_R   0.970367 0.461672 0.432736 0.008649
C7    C     C_1   0.499998 0.065185 0.500015 -0.139176
C8    C     C_1   0.500002 0.934815 0.499984 -0.139176
C9    C     C_R   0.499998 0.782032 0.499989 0.937907
C10   C     C_R   0.297425 0.495574 0.465980 0.927747
C11   C     C_R   0.702575 0.504426 0.534020 0.927747
C12   C     C_R   0.815142 0.511385 0.557495 -0.189452
C13   C     C_R   0.184858 0.488615 0.442506 -0.189452
C14   C     C_R   0.018466 0.401453 0.300981 0.282670
C15   C     C_R   0.981533 0.598549 0.699018 0.282670
C16   C     C_R   0.127053 0.412703 0.307423 0.248129
H1    H     H_    0.816833 0.386383 0.333587 0.217881
H2    H     H_    0.183167 0.613616 0.666416 0.217881
N1    N     N_1   0.500020 0.500000 0.073640 0.005441
N2    N     N_1   0.499980 0.500000 0.926360 0.005441
O1    O     O_R   0.499990 0.285340 0.636850 -0.612823
O2    O     O_R   0.500010 0.714660 0.363150 -0.612823
O3    O     O_R   0.500010 0.285340 0.363150 -0.607618
O4    O     O_R   0.499990 0.714660 0.636850 -0.607617
O5    O     O_R   0.346350 0.500000 0.614250 -0.621928
O6    O     O_R   0.653650 0.500000 0.385750 -0.621927
O7    O     O_R   0.346360 0.500000 0.340500 -0.581113
O8    O     O_R   0.653640 0.500000 0.659500 -0.581113
Zn1   Zn    Zn3+2 0.499990 0.500000 0.682780 1.063133
Zn2   Zn    Zn3+2 0.500010 0.500000 0.317220 1.063134

loop_
_geom_bond_atom_site_label_1
_geom_bond_atom_site_label_2
_ccdc_geom_bond_type
N1    N2    T    
C9    O4    A    
C3    H2    S    
C5    C6    A    
N2    Zn1   S    
C10   O7    A    
C7    C8    T    
N1    Zn2   S    
O8    Zn1   S    
C4    H1    S    
O7    Zn2   S    
C11   O8    A    
C4    C12   A    
C2    C15   A    
C10   C13   S    
C6    C14   A    
C1    O1    A    
Br3   C14   S    
C5    C15   A    
O4    Zn1   S    
C1    C7    S    
C14   C16   A    
O3    Zn2   S    
C9    O2    A    
O6    Zn2   S    
C10   O5    A    
C2    C12   A    
C11   C12   S    
O5    Zn1   S    
C13   C16   A    
C8    C9    S    
C11   O6    A    
C4    C6    A    
C3    C5    A    
C1    O3    A    
Br4   C15   S    
Br2   C16   S    
O2    Zn2   S    
Br1   C2    S    
O1    Zn1   S    
C3    C13   A    
