data_mof_unit_44406.cif
_audit_creation_date              2012-10-26T20:42:31-0400
_audit_creation_method            fapswitch 2.2
_symmetry_space_group_name_H-M    P1
_symmetry_Int_Tables_number       1
_space_group_crystal_system       triclinic
_cell_length_a                    10.896654
_cell_length_b                    9.511876
_cell_length_c                    10.880532
_cell_angle_alpha                 90.911886
_cell_angle_beta                  90.755244
_cell_angle_gamma                 90.513151
_cell_volume                      1127.45309564

loop_
_atom_site_label
_atom_site_type_symbol
_atom_type_description
_atom_site_fract_x
_atom_site_fract_y
_atom_site_fract_z
_atom_type_partial_charge
C1    C     C_R   0.262169 0.499428 0.503478 0.581018
C2    C     C_R   0.935076 0.374604 0.476345 0.207886
C3    C     C_R   0.871849 0.501525 0.496445 -0.072669
C4    C     C_R   0.128294 0.498563 0.508125 -0.073869
C5    C     C_R   0.937875 0.628230 0.517329 0.210449
C6    C     C_R   0.065212 0.625443 0.529200 0.206270
C7    C     C_R   0.424117 0.073178 0.420285 0.344374
C8    C     C_R   0.575959 0.077818 0.579411 0.366463
C9    C     C_R   0.427034 0.922339 0.420025 -0.009882
C10   C     C_R   0.573176 0.927139 0.580016 -0.015021
C11   C     C_3   0.475886 0.155266 0.939035 -0.087624
C12   C     C_R   0.737894 0.500546 0.497946 0.566991
C13   C     C_3   0.216219 0.371462 0.060202 -0.123291
C14   C     C_3   0.121951 0.175089 0.588134 -0.072295
C15   C     C_3   0.865468 0.235450 0.318847 -0.100026
C16   C     C_3   0.879925 0.827768 0.421670 -0.085585
C17   C     C_3   0.138559 0.762713 0.686262 -0.097856
C18   C     C_3   0.256689 0.070145 0.280780 -0.074358
C19   C     C_3   0.754129 0.091408 0.702878 -0.122559
C20   C     C_R   0.499877 0.498770 0.265126 0.575928
C21   C     C_R   0.494366 0.501074 0.734978 0.558888
C22   C     C_2   0.445167 0.394207 0.933024 0.229503
C23   C     C_2   0.423957 0.415403 0.066665 0.239373
C24   C     C_2   0.476805 0.506757 0.866967 -0.122450
C25   C     C_2   0.504620 0.493881 0.132720 -0.109387
C26   C     C_R   0.062103 0.371792 0.489380 0.208563
Cu1   Cu    Cu3+1 0.500000 0.640660 0.500000 0.945260
Cu2   Cu    Cu3+1 0.500000 0.359340 0.500000 1.121613
H1    H     H_    0.484323 0.610102 0.910696 0.033445
H2    H     H_    0.138405 0.349643 0.121964 0.112380
H3    H     H_    0.165809 0.240734 0.662488 0.108907
H4    H     H_    0.176833 0.078061 0.578287 0.152504
H5    H     H_    0.027695 0.143176 0.614690 0.129436
H6    H     H_    0.816435 0.325336 0.276745 0.094876
H7    H     H_    0.811942 0.138664 0.295782 0.111289
H8    H     H_    0.957991 0.223835 0.278018 0.118348
H9    H     H_    0.819684 0.920594 0.429895 0.138648
H10   H     H_    0.843347 0.761892 0.343645 0.093907
H11   H     H_    0.973888 0.866529 0.401106 0.150180
H12   H     H_    0.579514 0.550113 0.089890 0.011731
H13   H     H_    0.192715 0.859154 0.708969 0.118360
H14   H     H_    0.188559 0.672235 0.726249 0.099633
H15   H     H_    0.047094 0.773893 0.729481 0.127350
H16   H     H_    0.202394 0.007300 0.346602 0.121567
H17   H     H_    0.295814 0.002945 0.206851 0.065961
H18   H     H_    0.191531 0.142844 0.236529 0.173477
H19   H     H_    0.803787 0.039345 0.626325 0.154544
H20   H     H_    0.732244 0.016087 0.776602 0.079459
H21   H     H_    0.817109 0.172251 0.743621 0.131084
H22   H     H_    0.371656 0.859508 0.356758 0.127770
H23   H     H_    0.628587 0.868974 0.644218 0.138372
H24   H     H_    0.423881 0.129920 0.023054 0.150394
H25   H     H_    0.573800 0.179247 0.962426 0.109213
H26   H     H_    0.474361 0.059856 0.879007 0.128446
H27   H     H_    0.207918 0.297677 0.980328 0.141249
H28   H     H_    0.206623 0.482303 0.029938 0.089666
N1    N     N_R   0.500000 0.852070 0.500000 -0.282632
N2    N     N_R   0.500000 0.147940 0.500000 -0.205160
O1    O     O_R   0.319640 0.618740 0.499990 -0.471484
O2    O     O_3   0.327057 0.349657 0.125581 -0.526635
O3    O     O_3   0.121166 0.244750 0.474591 -0.519603
O4    O     O_3   0.873365 0.250224 0.447918 -0.530478
O5    O     O_3   0.878300 0.754964 0.533750 -0.546373
O6    O     O_3   0.127334 0.749665 0.557274 -0.539706
O7    O     O_3   0.350032 0.150258 0.340814 -0.473967
O8    O     O_3   0.646855 0.158945 0.661676 -0.510849
O9    O     O_R   0.680360 0.618740 0.500010 -0.477044
O10   O     O_R   0.319620 0.381170 0.499990 -0.426658
O11   O     O_R   0.680380 0.381170 0.500010 -0.436640
O12   O     O_R   0.500000 0.618750 0.321940 -0.533849
O13   O     O_R   0.500000 0.618750 0.678060 -0.535271
O14   O     O_R   0.499970 0.381180 0.321940 -0.437885
O15   O     O_R   0.500030 0.381180 0.678060 -0.406524
O16   O     O_3   0.420096 0.265727 0.874488 -0.547143

loop_
_geom_bond_atom_site_label_1
_geom_bond_atom_site_label_2
_ccdc_geom_bond_type
C13   H27   S    
C4    C26   A    
C12   O11   A    
C17   H15   S    
C8    O8    S    
C10   N1    A    
C11   H24   S    
C16   O5    S    
Cu2   N2    S    
C7    O7    S    
C19   H21   S    
C15   H6    S    
C9    N1    A    
Cu2   O11   S    
C11   H25   S    
C16   H9    S    
C13   H28   S    
C10   H23   S    
C1    C4    S    
C14   H5    S    
C23   C25   D    
C2    C3    A    
C2    C26   A    
C13   O2    S    
Cu1   O1    S    
C18   O7    S    
Cu1   O12   S    
C20   O12   A    
C22   C23   S    
Cu2   O14   S    
C11   H26   S    
C21   O13   A    
C5    C6    A    
Cu2   O15   S    
C18   H18   S    
C15   H7    S    
Cu2   O10   S    
C26   O3    S    
C22   C24   D    
C1    O1    A    
C25   H12   S    
C23   O2    S    
C12   O9    A    
C19   H19   S    
C17   H13   S    
Cu1   O9    S    
C20   C25   S    
C22   O16   S    
C16   H11   S    
C18   H17   S    
C21   O15   A    
C18   H16   S    
C1    O10   A    
Cu1   O13   S    
C13   H2    S    
C5    O5    S    
C19   O8    S    
C4    C6    A    
Cu1   N1    S    
C21   C24   S    
C6    O6    S    
Cu1   Cu2   S    
C7    C9    A    
C14   H3    S    
C24   H1    S    
C20   O14   A    
C3    C12   S    
C7    N2    A    
C8    N2    A    
C15   H8    S    
C17   H14   S    
C14   O3    S    
C14   H4    S    
C17   O6    S    
C15   O4    S    
C8    C10   A    
C9    H22   S    
C2    O4    S    
C16   H10   S    
C3    C5    A    
C11   O16   S    
C19   H20   S    
