data_mof_unit_25420.cif
_audit_creation_date              2012-12-10T17:04:01-0500
_audit_creation_method            fapswitch 2.2
_symmetry_space_group_name_H-M    P1
_symmetry_Int_Tables_number       1
_space_group_crystal_system       triclinic
_cell_length_a                    19.311627
_cell_length_b                    18.209569
_cell_length_c                    19.095006
_cell_angle_alpha                 107.867551
_cell_angle_beta                  111.018583
_cell_angle_gamma                 108.395653
_cell_volume                      5236.63042561

loop_
_atom_site_label
_atom_site_type_symbol
_atom_type_description
_atom_site_fract_x
_atom_site_fract_y
_atom_site_fract_z
_atom_type_partial_charge
C1    C     C_R   0.992289 0.113627 0.618277 0.894802
C2    C     C_R   0.237670 0.285321 0.638686 0.030405
C3    C     C_3   0.184147 0.109006 0.169968 -0.835775
C4    C     C_3   0.264668 0.284595 0.301538 -0.770149
C5    C     C_2   0.477760 0.405321 0.663405 0.435580
C6    C     C_2   0.155961 0.269831 0.631789 0.371704
C7    C     C_2   0.991793 0.284819 0.620244 0.556197
C8    C     C_R   0.856458 0.073902 0.670498 0.138400
C9    C     C_R   0.117757 0.114055 0.492261 0.835873
C10   C     C_R   0.783395 0.079127 0.670523 0.138221
C11   C     C_R   0.796435 0.149811 0.737682 -0.159737
C12   C     C_R   0.877230 0.199861 0.803848 0.178150
C13   C     C_R   0.939906 0.222273 0.781577 -0.006660
C14   C     C_R   0.929644 0.155710 0.711294 0.010210
C15   C     C_R   0.984002 0.178242 0.679045 -0.110432
C16   C     C_R   0.017269 0.265164 0.692938 -0.125427
C17   C     C_R   0.174577 0.166174 0.405906 -0.060558
C18   C     C_R   0.043193 0.331441 0.771753 0.081185
C19   C     C_R   0.999200 0.310579 0.814816 -0.122357
C20   C     C_R   0.799650 0.679611 0.385041 0.087908
C21   C     C_R   0.004861 0.883598 0.381043 0.822099
C22   C     C_R   0.764637 0.586395 0.344199 -0.061717
C23   C     C_R   0.683337 0.535198 0.327073 -0.022812
C24   C     C_R   0.643622 0.579423 0.353391 -0.136215
C25   C     C_R   0.695073 0.662231 0.426142 0.001518
C26   C     C_R   0.771712 0.718846 0.437662 0.033758
C27   C     C_R   0.809413 0.810627 0.494869 -0.027012
C28   C     C_R   0.310302 0.305034 0.488558 -0.143414
C29   C     C_R   0.759506 0.835961 0.525934 -0.050815
C30   C     C_R   0.710155 0.777775 0.543043 -0.269396
C31   C     C_R   0.673804 0.688383 0.489154 -0.129114
C32   C     C_R   0.145814 0.933097 0.348874 -0.270827
C33   C     C_R   0.879828 0.879191 0.500024 0.870134
C34   C     C_R   0.214229 0.956036 0.335179 0.078574
C35   C     C_R   0.219336 0.890691 0.279209 -0.138555
C36   C     C_R   0.155670 0.804068 0.234898 -0.209608
C37   C     C_R   0.080843 0.780196 0.239896 0.118653
C38   C     C_R   0.078711 0.845964 0.301705 0.059187
C39   C     C_R   0.316567 0.310031 0.566888 -0.065247
C40   C     C_R   0.012215 0.820257 0.318733 -0.079325
C41   C     C_R   0.962672 0.730127 0.287002 -0.104737
C42   C     C_R   0.941958 0.675447 0.206176 -0.161470
C43   C     C_R   0.007976 0.693669 0.187936 -0.183604
C44   C     C_R   0.616845 0.495699 0.618064 0.878727
C45   C     C_R   0.109405 0.088344 0.325324 -0.147545
C46   C     C_R   0.376932 0.378198 0.495036 0.806630
C47   C     C_R   0.380853 0.501882 0.381800 0.855685
C48   C     C_R   0.615618 0.621332 0.496711 0.834722
C49   C     C_R   0.881907 0.503936 0.880508 0.897562
C50   C     C_R   0.243376 0.258271 0.563378 0.042966
C51   C     C_R   0.001382 0.379093 0.881832 0.903524
C52   C     C_R   0.118792 0.499404 0.121560 0.885613
C53   C     C_R   0.001876 0.621955 0.120243 0.868068
C54   C     C_R   0.781455 0.610128 0.665498 -0.221578
C55   C     C_R   0.859879 0.670038 0.686906 -0.024565
C56   C     C_R   0.932033 0.681707 0.752451 -0.050485
C57   C     C_R   0.123543 0.062824 0.256467 0.140154
C58   C     C_R   0.924191 0.624703 0.789582 -0.042453
C59   C     C_R   0.841299 0.564228 0.771408 0.026903
C60   C     C_R   0.770612 0.559478 0.707233 0.034204
C61   C     C_R   0.177601 0.181388 0.485868 -0.086924
C62   C     C_R   0.688294 0.496957 0.678312 -0.084142
C63   C     C_R   0.674860 0.432536 0.703315 0.182091
C64   C     C_R   0.734603 0.453718 0.782249 0.158846
C65   C     C_R   0.820637 0.510020 0.812263 -0.190814
C66   C     C_R   0.213192 0.436055 0.361532 -0.190176
C67   C     C_R   0.131036 0.387490 0.341198 -0.251875
C68   C     C_R   0.064198 0.356538 0.260634 0.019278
C69   C     C_R   0.182888 0.127514 0.253173 0.259381
C70   C     C_R   0.080854 0.375403 0.199804 0.239922
C71   C     C_R   0.163138 0.442711 0.228448 0.012885
C72   C     C_R   0.391909 0.366114 0.649908 -0.035022
C73   C     C_R   0.230176 0.459883 0.303623 0.002390
C74   C     C_R   0.313197 0.504782 0.320717 -0.116338
C75   C     C_R   0.333019 0.564729 0.290618 0.169799
C76   C     C_R   0.266677 0.572436 0.238020 0.187031
C77   C     C_R   0.182737 0.501436 0.193996 -0.190135
C78   C     C_R   0.233055 0.213618 0.323641 0.151335
C79   C     C_R   0.240643 0.230078 0.406316 0.027661
C80   C     C_3   0.307708 0.366358 0.801034 -0.914233
C81   C     C_3   0.875824 0.006553 0.690718 -0.839990
C82   C     C_2   0.701326 0.003779 0.630560 0.123583
C83   C     C_R   0.387440 0.378339 0.723802 -0.114564
C84   C     C_3   0.893714 0.187170 0.881146 -0.807541
C85   C     C_3   0.109464 0.422687 0.801049 -0.831992
C86   C     C_2   0.721550 0.888337 0.497934 0.391901
C87   C     C_3   0.834551 0.727178 0.345323 -0.829091
C88   C     C_2   0.810599 0.544287 0.317121 0.363861
C89   C     C_2   0.644390 0.438657 0.294260 0.451416
C90   C     C_2   0.019003 0.045688 0.299379 0.517019
C91   C     C_2   0.981246 0.692310 0.345772 0.405187
C92   C     C_2   0.280450 0.048369 0.379504 0.392655
C93   C     C_2   0.858917 0.594210 0.150869 0.453449
C94   C     C_R   0.310602 0.341811 0.719406 0.119519
C95   C     C_3   0.606774 0.337670 0.643844 -0.876863
C96   C     C_2   0.863018 0.714157 0.633824 0.357095
C97   C     C_3   0.067432 0.970271 0.181111 -0.888502
C98   C     C_2   0.016610 0.748098 0.775564 0.453803
C99   C     C_2   0.002365 0.619156 0.827605 0.518436
C100  C     C_3   0.701820 0.420371 0.833774 -0.757746
C101  C     C_3   0.424584 0.626337 0.322728 -0.898100
C102  C     C_2   0.978079 0.305122 0.243235 0.430510
C103  C     C_3   0.023121 0.305300 0.107530 -0.791773
C104  C     C_3   0.284049 0.662224 0.244354 -0.824202
H1    H     H_    0.746493 0.148851 0.751380 0.209818
H2    H     H_    0.444445 0.419283 0.786035 0.189462
H3    H     H_    0.371927 0.409895 0.858340 0.253037
H4    H     H_    0.270767 0.402128 0.802511 0.240879
H5    H     H_    0.278230 0.306264 0.805618 0.248562
H6    H     H_    0.819615 0.952889 0.679918 0.238610
H7    H     H_    0.904000 0.981054 0.654563 0.249247
H8    H     H_    0.923013 0.037579 0.759572 0.245453
H9    H     H_    0.640771 0.948135 0.601036 0.304142
H10   H     H_    0.962433 0.222436 0.927348 0.228044
H11   H     H_    0.860084 0.211216 0.911217 0.246106
H12   H     H_    0.576261 0.543600 0.328044 0.196493
H13   H     H_    0.870392 0.116224 0.862521 0.240364
H14   H     H_    0.158631 0.452273 0.868745 0.256906
H15   H     H_    0.142957 0.420996 0.764382 0.204125
H16   H     H_    0.079344 0.464008 0.791510 0.304165
H17   H     H_    0.660151 0.875936 0.490914 0.049658
H18   H     H_    0.901133 0.773074 0.393657 0.265919
H19   H     H_    0.825502 0.680692 0.285547 0.231557
H20   H     H_    0.799419 0.762029 0.325445 0.251881
H21   H     H_    0.876082 0.567859 0.361148 0.094314
H22   H     H_    0.678150 0.403601 0.282161 0.123282
H23   H     H_    0.685856 0.800801 0.583206 0.167872
H24   H     H_    0.984524 0.975981 0.276337 0.061670
H25   H     H_    0.966391 0.624081 0.321069 0.126089
H26   H     H_    0.285723 0.096306 0.434229 0.059128
H27   H     H_    0.807898 0.591825 0.099999 0.053991
H28   H     H_    0.637212 0.295319 0.639112 0.255688
H29   H     H_    0.564255 0.315296 0.667914 0.235012
H30   H     H_    0.569048 0.325494 0.578130 0.248487
H31   H     H_    0.820208 0.676343 0.565774 0.075577
H32   H     H_    0.107134 0.942492 0.166525 0.260362
H33   H     H_    0.027854 0.922968 0.193536 0.221066
H34   H     H_    0.145224 0.983511 0.396360 0.103882
H35   H     H_    0.025220 0.971525 0.124271 0.256314
H36   H     H_    0.028400 0.757196 0.726723 0.116423
H37   H     H_    0.054469 0.670148 0.890735 0.098782
H38   H     H_    0.738602 0.471010 0.901953 0.233987
H39   H     H_    0.635887 0.408070 0.813005 0.249318
H40   H     H_    0.702657 0.357696 0.826175 0.249642
H41   H     H_    0.431034 0.666534 0.289693 0.253565
H42   H     H_    0.457031 0.671350 0.392225 0.241005
H43   H     H_    0.457578 0.587762 0.311528 0.230242
H44   H     H_    0.968864 0.274105 0.281677 0.103803
H45   H     H_    0.273478 0.906282 0.270479 0.183223
H46   H     H_    0.961982 0.305631 0.079429 0.286786
H47   H     H_    0.054225 0.313866 0.069724 0.209216
H48   H     H_    0.009656 0.239329 0.102687 0.217359
H49   H     H_    0.228457 0.672244 0.235849 0.231320
H50   H     H_    0.335839 0.715516 0.309136 0.239609
H51   H     H_    0.301784 0.670109 0.196940 0.248863
H52   H     H_    0.156051 0.038515 0.125478 0.253822
H53   H     H_    0.148978 0.136252 0.135475 0.229673
H54   H     H_    0.250051 0.139035 0.183355 0.252386
H55   H     H_    0.316785 0.284259 0.289506 0.273526
H56   H     H_    0.169576 0.758409 0.199403 0.180895
H57   H     H_    0.213021 0.276422 0.244451 0.218226
H58   H     H_    0.284301 0.347560 0.351488 0.220278
H59   H     H_    0.488303 0.379317 0.611901 0.046029
H60   H     H_    0.145055 0.265724 0.682287 0.063181
H61   H     H_    0.025450 0.350163 0.629307 0.087071
H62   H     H_    0.727789 0.602790 0.613520 0.139972
H63   H     H_    0.263243 0.456238 0.423977 0.173074
H64   H     H_    0.119919 0.372139 0.387855 0.172608
O1    O     O_R   0.051710 0.091600 0.643330 -0.640719
O2    O     O_R   0.856640 0.448280 0.908400 -0.614119
O3    O     O_R   0.051720 0.460120 0.908370 -0.601662
O4    O     O_R   0.948270 0.091620 0.539910 -0.515666
O5    O     O_R   0.948290 0.356670 0.908380 -0.623203
O6    O     O_R   0.143340 0.551720 0.091580 -0.622956
O7    O     O_R   0.039910 0.448270 0.091590 -0.614846
O8    O     O_R   0.051690 0.643330 0.091600 -0.654623
O9    O     O_R   0.948270 0.539880 0.091610 -0.565872
O10   O     O_R   0.143340 0.091610 0.551710 -0.644284
O11   O     O_R   0.039890 0.091630 0.448290 -0.549206
O12   O     O_R   0.591640 0.448340 0.539940 -0.625369
O13   O     O_R   0.051730 0.908380 0.460090 -0.566933
O14   O     O_R   0.948290 0.908400 0.356670 -0.661254
O15   O     O_R   0.960110 0.908370 0.551710 -0.596889
O16   O     O_R   0.856660 0.908390 0.448290 -0.576587
O17   O     O_R   0.591600 0.551770 0.643360 -0.573122
O18   O     O_2   0.648941 0.996851 0.653246 -0.670195
O19   O     O_2   0.753690 0.942494 0.479061 -0.526618
O20   O     O_2   0.775347 0.481870 0.246460 -0.512058
O21   O     O_2   0.575178 0.397320 0.284440 -0.567746
O22   O     O_2   0.980475 0.087491 0.297391 -0.534463
O23   O     O_R   0.408370 0.460150 0.551730 -0.611450
O24   O     O_2   0.016457 0.736706 0.422767 -0.560960
O25   O     O_2   0.328622 0.072334 0.354078 -0.559200
O26   O     O_2   0.848050 0.529083 0.160455 -0.487920
O27   O     O_2   0.911586 0.792336 0.665331 -0.557625
O28   O     O_2   0.073121 0.794491 0.849939 -0.583116
O29   O     O_2   0.010388 0.559313 0.786700 -0.597433
O30   O     O_2   0.917026 0.300983 0.188916 -0.534292
O31   O     O_2   0.537505 0.466771 0.732054 -0.583177
O32   O     O_2   0.101830 0.265452 0.570309 -0.562230
O33   O     O_2   0.929836 0.229913 0.550524 -0.501542
O34   O     O_R   0.408410 0.356720 0.448320 -0.612989
O35   O     O_R   0.408360 0.551760 0.460120 -0.626909
O36   O     O_R   0.408400 0.448330 0.356700 -0.619959
O37   O     O_R   0.591600 0.643380 0.551740 -0.618155
O38   O     O_R   0.591640 0.539950 0.448320 -0.608319
O39   O     O_R   0.960070 0.551730 0.908390 -0.638253
Zn1   Zn    Zn3+2 0.069070 0.999990 0.569050 1.034233
Zn2   Zn    Zn3+2 0.930930 0.000010 0.430950 1.116472
Zn3   Zn    Zn3+2 0.499980 0.569110 0.569080 1.018013
Zn4   Zn    Zn3+2 0.500030 0.430990 0.430980 1.030226
Zn5   Zn    Zn3+2 0.069050 0.569070 0.999980 0.958133
Zn6   Zn    Zn3+2 0.930930 0.430930 0.000000 1.009035

loop_
_geom_bond_atom_site_label_1
_geom_bond_atom_site_label_2
_ccdc_geom_bond_type
C67   H64   S    
C76   C104  S    
C38   C40   A    
C55   C56   A    
C25   C31   A    
C27   C29   A    
C42   C93   S    
C41   C42   A    
O5    Zn6   S    
C93   O26   D    
C56   C98   S    
O34   Zn4   S    
C75   C101  S    
C44   O12   A    
O1    Zn1   S    
O16   Zn2   S    
C5    O31   D    
C17   C79   A    
C54   C60   A    
C27   C33   S    
C21   O13   A    
C12   C13   A    
C80   H3    S    
C101  H41   S    
C26   C27   A    
C62   C63   A    
C49   C65   S    
C66   H63   S    
C82   O18   D    
C9    C61   S    
C5    H59   S    
C3    H53   S    
C36   C37   A    
C3    C69   S    
C68   C102  S    
C18   C19   A    
C5    C72   S    
C102  O30   D    
C30   C31   A    
C4    H55   S    
C15   C16   A    
C20   C87   S    
C63   C95   S    
C95   H29   S    
C12   C84   S    
C60   C62   A    
C34   C35   A    
C73   C74   A    
C85   H15   S    
C28   C79   A    
C2    C50   A    
C103  H46   S    
C102  H44   S    
C54   C55   A    
O38   Zn4   S    
C43   C53   S    
C96   O27   D    
C49   O39   A    
C84   H13   S    
O10   Zn1   S    
C48   O37   A    
C33   O15   A    
C3    H54   S    
C8    C14   A    
C39   C72   A    
C23   C89   S    
O35   Zn3   S    
C70   C71   A    
C1    C15   S    
C22   C88   S    
C104  H49   S    
C29   C30   A    
C46   O23   A    
C9    O11   A    
C103  H47   S    
C44   O17   A    
C17   C61   A    
C66   C67   A    
C7    H61   S    
C46   O34   A    
C59   C60   A    
C13   C14   A    
O15   Zn1   S    
C69   C78   A    
C2    C6    S    
C88   O20   D    
C86   H17   S    
C87   H20   S    
C85   H16   S    
C97   H33   S    
C95   H30   S    
C96   H31   S    
C89   H22   S    
C21   O14   A    
C45   C57   A    
C101  H42   S    
C18   C85   S    
C74   C75   A    
C13   C19   A    
C98   O28   D    
C8    C81   S    
C81   H7    S    
C2    C94   A    
O13   Zn1   S    
C24   C25   A    
C47   C74   S    
O4    Zn2   S    
C100  H40   S    
O2    Zn6   S    
C78   C79   A    
C28   C39   A    
C44   C62   S    
C58   C59   A    
C83   C94   A    
C10   C82   S    
O14   Zn2   S    
C67   C68   A    
C98   H36   S    
C35   C36   A    
C32   C34   A    
C80   H5    S    
O12   Zn4   S    
C92   H26   S    
C75   C76   A    
C32   H34   S    
C37   C38   A    
O9    Zn6   S    
C14   C15   A    
C81   H8    S    
C64   C100  S    
C23   C24   A    
C57   C97   S    
C99   O29   D    
C33   O16   A    
C47   O35   A    
C11   H1    S    
C76   C77   A    
C45   C90   S    
C52   O7    A    
C29   C86   S    
C103  H48   S    
C68   C70   A    
C7    C16   S    
C41   C91   S    
C6    H60   S    
C92   O25   D    
C84   H11   S    
C32   C38   A    
C31   C48   S    
O39   Zn5   S    
O6    Zn5   S    
C37   C43   A    
C42   C43   A    
C20   C22   A    
C80   C94   S    
C52   C77   S    
C52   O6    A    
C71   C77   A    
C71   C73   A    
C90   O22   D    
O11   Zn2   S    
C30   H23   S    
C101  H43   S    
C84   H10   S    
O17   Zn3   S    
C99   H37   S    
C8    C10   A    
C58   C99   S    
C82   H9    S    
C17   C45   A    
C55   C96   S    
C6    O32   D    
C100  H39   S    
C53   O9    A    
C95   H28   S    
C87   H18   S    
C11   C12   A    
C24   H12   S    
C91   H25   S    
C4    C78   S    
C91   O24   D    
C80   H4    S    
C1    O4    A    
C83   H2    S    
C90   H24   S    
C28   C46   S    
C57   C69   A    
C64   C65   A    
C51   O3    A    
C25   C26   A    
C7    O33   D    
C100  H38   S    
C59   C65   A    
C87   H19   S    
O3    Zn5   S    
C66   C73   A    
C49   O2    A    
C21   C40   S    
C20   C26   A    
O37   Zn3   S    
C19   C51   S    
O36   Zn4   S    
C1    O1    A    
C3    H52   S    
C56   C58   A    
C47   O36   A    
C4    H58   S    
C4    H57   S    
C104  H51   S    
C85   H14   S    
C34   C92   S    
C72   C83   A    
C51   O5    A    
C10   C11   A    
C36   H56   S    
O23   Zn3   S    
C63   C64   A    
O8    Zn5   S    
C86   O19   D    
C39   C50   A    
C81   H6    S    
C88   H21   S    
C16   C18   A    
C48   O38   A    
O7    Zn6   S    
C50   C61   A    
C89   O21   D    
C22   C23   A    
C40   C41   A    
C35   H45   S    
C97   H32   S    
C104  H50   S    
C93   H27   S    
C97   H35   S    
C9    O10   A    
C54   H62   S    
C53   O8    A    
C70   C103  S    
