data_mof_unit_19234.cif
_audit_creation_date              2012-12-10T19:29:34-0500
_audit_creation_method            fapswitch 2.2
_symmetry_space_group_name_H-M    P1
_symmetry_Int_Tables_number       1
_space_group_crystal_system       triclinic
_cell_length_a                    22.244699
_cell_length_b                    22.270663
_cell_length_c                    14.986497
_cell_angle_alpha                 89.783072
_cell_angle_beta                  89.681478
_cell_angle_gamma                 90.015792
_cell_volume                      7424.20521692

loop_
_atom_site_label
_atom_site_type_symbol
_atom_type_description
_atom_site_fract_x
_atom_site_fract_y
_atom_site_fract_z
_atom_type_partial_charge
C1    C     C_R   0.419153 0.918564 0.500265 0.884607
C2    C     C_1   0.661963 0.836089 0.500295 0.160100
C3    C     C_3   0.553930 0.408577 0.450815 -0.990549
C4    C     C_3   0.597659 0.710050 0.573911 0.106039
C5    C     C_3   0.548276 0.732144 0.636946 -0.300020
C6    C     C_3   0.486275 0.726722 0.594700 -0.924419
C7    C     C_3   0.334807 0.330295 0.351547 0.187232
C8    C     C_3   0.396829 0.357838 0.334871 -0.376345
C9    C     C_3   0.392219 0.419985 0.292244 -0.906584
C10   C     C_3   0.370966 0.732384 0.338422 0.096602
C11   C     C_3   0.406525 0.762422 0.263050 -0.286792
C12   C     C_3   0.472065 0.742167 0.262734 -0.896306
C13   C     C_1   0.664515 0.161594 0.496226 0.207275
C14   C     C_3   0.716050 0.280810 0.719830 0.149319
C15   C     C_3   0.671209 0.288324 0.796518 -0.374382
C16   C     C_3   0.696817 0.327787 0.870161 -0.813723
C17   C     C_3   0.097623 0.210012 0.573595 0.105905
C18   C     C_3   0.048200 0.232085 0.636573 -0.298214
C19   C     C_3   0.986230 0.226694 0.594222 -0.926609
C20   C     C_3   0.834692 0.830163 0.351269 0.187821
C21   C     C_3   0.896712 0.857674 0.334447 -0.375234
C22   C     C_3   0.892091 0.919807 0.291779 -0.908253
C23   C     C_3   0.870725 0.232567 0.337947 0.088915
C24   C     C_1   0.340167 0.834031 0.500444 0.155359
C25   C     C_3   0.906141 0.262562 0.262387 -0.272300
C26   C     C_3   0.971681 0.242309 0.261832 -0.899021
C27   C     C_3   0.215780 0.780987 0.719730 0.149158
C28   C     C_3   0.170886 0.788450 0.796361 -0.370873
C29   C     C_3   0.196395 0.827968 0.870015 -0.814724
C30   C     C_1   0.832460 0.658404 0.502016 0.209622
C31   C     C_1   0.161978 0.336105 0.500304 0.160016
C32   C     C_1   0.164532 0.661578 0.496239 0.207062
C33   C     C_1   0.840152 0.334046 0.500385 0.154823
C34   C     C_1   0.499975 0.999897 0.190063 0.407689
C35   C     C_1   0.499949 0.999887 0.809944 0.410744
C36   C     C_1   0.999988 0.499890 0.190063 0.407693
C37   C     C_R   0.581121 0.081221 0.499634 0.887115
C38   C     C_1   0.999950 0.499876 0.809945 0.410867
C39   C     C_3   0.457085 0.962913 0.970584 0.468772
C40   C     C_3   0.542749 0.036622 0.029430 0.474788
C41   C     C_3   0.510442 0.944304 0.030265 0.468959
C42   C     C_3   0.489392 0.055229 0.969779 0.477252
C43   C     C_3   0.945142 0.485840 0.970566 0.476179
C44   C     C_3   0.054722 0.513654 0.029459 0.478935
C45   C     C_3   0.984583 0.445414 0.030490 0.462981
C46   C     C_3   0.015283 0.554079 0.969563 0.474325
C47   C     C_3   0.699774 0.729909 0.555009 0.331505
C48   C     C_R   0.581378 0.919091 0.499966 0.881188
C49   C     C_3   0.291143 0.261642 0.448710 0.263697
C50   C     C_3   0.282519 0.746857 0.418462 0.331238
C51   C     C_3   0.724851 0.246554 0.575290 0.265244
C52   C     C_3   0.199750 0.229884 0.554898 0.331410
C53   C     C_3   0.791084 0.761584 0.448606 0.263484
C54   C     C_3   0.782403 0.246959 0.418319 0.332277
C55   C     C_3   0.224778 0.746609 0.575279 0.265189
C56   C     C_3   0.220800 0.194411 0.472327 0.244001
C57   C     C_3   0.770617 0.796222 0.531874 0.235847
C58   C     C_3   0.778406 0.192590 0.482064 0.246751
C59   C     C_R   0.418417 0.080754 0.500117 0.888167
C60   C     C_3   0.228256 0.800178 0.510656 0.249489
C61   C     C_3   0.720762 0.694368 0.472467 0.244053
C62   C     C_3   0.270612 0.296212 0.532006 0.235978
C63   C     C_3   0.278442 0.692552 0.482313 0.246291
C64   C     C_3   0.728250 0.300185 0.510774 0.249033
C65   C     C_1   0.371861 0.122778 0.500795 -0.126642
C66   C     C_1   0.625316 0.874468 0.499953 -0.148239
C67   C     C_1   0.626129 0.124885 0.498223 -0.128922
C68   C     C_1   0.376378 0.872822 0.500805 -0.152993
C69   C     C_1   0.871856 0.622774 0.500799 -0.126689
C70   C     C_R   0.919152 0.418565 0.500263 0.884649
C71   C     C_1   0.125325 0.374477 0.499957 -0.148528
C72   C     C_1   0.126138 0.624877 0.498225 -0.128969
C73   C     C_1   0.876371 0.372830 0.500784 -0.153609
C74   C     C_3   0.265176 0.237566 0.585885 0.522756
C75   C     C_3   0.725832 0.753324 0.417434 0.404549
C76   C     C_3   0.714873 0.259622 0.430546 0.520950
C77   C     C_3   0.292317 0.733383 0.563277 0.385249
C78   C     C_3   0.765224 0.737621 0.585869 0.522308
C79   C     C_3   0.225916 0.253412 0.417411 0.403891
C80   C     C_3   0.214976 0.759539 0.430476 0.520505
C81   C     C_R   0.081122 0.581220 0.499634 0.887172
C82   C     C_3   0.792375 0.233344 0.563079 0.384873
C83   C     C_3   0.286207 0.202766 0.502849 -0.234760
C84   C     C_3   0.705203 0.788868 0.501076 -0.284480
C85   C     C_3   0.710976 0.205738 0.495004 -0.232504
C86   C     C_3   0.295860 0.787833 0.498648 -0.273324
C87   C     C_3   0.786193 0.702753 0.502861 -0.234435
C88   C     C_3   0.205223 0.288887 0.501082 -0.284052
C89   C     C_3   0.210997 0.705718 0.495040 -0.232224
C90   C     C_3   0.795840 0.287856 0.498559 -0.273370
C91   C     C_3   0.446564 0.018385 0.030350 0.480125
C92   C     C_R   0.081380 0.419092 0.499966 0.881155
C93   C     C_3   0.553273 0.981149 0.969678 0.479954
C94   C     C_3   0.960507 0.540188 0.030109 0.482925
C95   C     C_3   0.039359 0.459307 0.969915 0.477614
C96   C     C_3   0.499923 0.999785 0.090267 -0.520483
C97   C     C_3   0.499917 0.999764 0.909754 -0.520432
C98   C     C_3   0.999949 0.499770 0.090270 -0.520061
C99   C     C_3   0.999922 0.499742 0.909755 -0.520950
C100  C     C_3   0.155766 0.141010 0.381425 0.168657
C101  C     C_3   0.120033 0.082350 0.379287 -0.371297
C102  C     C_3   0.067695 0.086044 0.314164 -0.927775
C103  C     C_R   0.918416 0.580754 0.500117 0.888210
C104  C     C_3   0.851052 0.843822 0.597695 0.155754
C105  C     C_3   0.882643 0.904586 0.603015 -0.361752
C106  C     C_3   0.943798 0.898845 0.647888 -0.937959
C107  C     C_3   0.853161 0.121222 0.501999 0.150173
C108  C     C_3   0.879998 0.064800 0.459891 -0.359600
C109  C     C_3   0.941900 0.050541 0.497799 -0.994430
C110  C     C_3   0.143123 0.860277 0.525575 0.153371
C111  C     C_3   0.122227 0.901578 0.450068 -0.278220
C112  C     C_3   0.054046 0.908632 0.450039 -0.990657
C113  C     C_3   0.655652 0.640875 0.381803 0.168565
C114  C     C_1   0.332469 0.158413 0.502005 0.209524
C115  C     C_3   0.619966 0.582182 0.379815 -0.371827
C116  C     C_3   0.567510 0.585821 0.314897 -0.927690
C117  C     C_3   0.350987 0.343752 0.598081 0.156085
C118  C     C_3   0.382580 0.404507 0.603570 -0.362656
C119  C     C_3   0.443677 0.398730 0.648604 -0.937055
C120  C     C_3   0.353146 0.621176 0.502604 0.150085
C121  C     C_3   0.380036 0.564730 0.460643 -0.359510
C122  C     C_3   0.441881 0.550481 0.498757 -0.994401
C123  C     C_3   0.643126 0.360251 0.526069 0.153754
C124  C     C_3   0.622116 0.401580 0.450668 -0.278579
F1    F     F_    0.608843 0.961770 0.939748 -0.550130
F2    F     F_    0.785451 0.727372 0.671664 -0.600697
F3    F     F_    0.833003 0.222280 0.630645 -0.682350
F4    F     F_    0.174881 0.770958 0.362337 -0.617441
F5    F     F_    0.521360 0.886541 0.060153 -0.568445
F6    F     F_    0.478443 0.112996 0.939957 -0.551782
F7    F     F_    0.412478 0.924526 0.941608 -0.565871
F8    F     F_    0.587354 0.075012 0.058400 -0.550424
F9    F     F_    0.968604 0.388840 0.060633 -0.577145
F10   F     F_    0.031277 0.610661 0.939505 -0.558596
F11   F     F_    0.888087 0.471349 0.941554 -0.559900
F12   F     F_    0.390994 0.037761 0.060285 -0.550834
F13   F     F_    0.111779 0.528137 0.058470 -0.550717
F14   F     F_    0.080414 0.417191 0.940220 -0.551072
F15   F     F_    0.919450 0.582303 0.059800 -0.547167
F16   F     F_    0.705235 0.763675 0.331848 -0.645384
F17   F     F_    0.285334 0.227245 0.671697 -0.599359
F18   F     F_    0.332874 0.722384 0.630961 -0.681334
F19   F     F_    0.674693 0.271103 0.362540 -0.616291
F20   F     F_    0.205388 0.263836 0.331807 -0.646974
H1    H     H_    0.178556 0.147621 0.315863 0.212838
H2    H     H_    0.888935 0.922927 0.534548 0.227220
H3    H     H_    0.892718 0.244832 0.401953 0.107864
H4    H     H_    0.885406 0.251133 0.197301 0.262157
H5    H     H_    0.904427 0.312117 0.270823 0.248832
H6    H     H_    0.993329 0.252823 0.326579 0.248374
H7    H     H_    0.996487 0.266076 0.207762 0.314962
H8    H     H_    0.974404 0.193254 0.249534 0.259066
H9    H     H_    0.226851 0.826388 0.692765 0.170152
H10   H     H_    0.257305 0.759736 0.746140 0.217157
H11   H     H_    0.128958 0.809221 0.770557 0.232743
H12   H     H_    0.159544 0.743628 0.824704 0.273632
H13   H     H_    0.854336 0.936498 0.641624 0.257161
H14   H     H_    0.237888 0.807575 0.897754 0.284828
H15   H     H_    0.162753 0.832414 0.924600 0.282170
H16   H     H_    0.206946 0.873442 0.843521 0.271229
H17   H     H_    0.938240 0.882746 0.717686 0.288994
H18   H     H_    0.966300 0.943327 0.648976 0.269845
H19   H     H_    0.972762 0.866806 0.610723 0.262793
H20   H     H_    0.845513 0.112744 0.574391 0.207378
H21   H     H_    0.885778 0.158682 0.493368 0.133638
H22   H     H_    0.849449 0.026132 0.472420 0.236480
H23   H     H_    0.884249 0.071377 0.386553 0.235268
H24   H     H_    0.973904 0.087467 0.482329 0.267383
H25   H     H_    0.123859 0.178701 0.392786 0.130189
H26   H     H_    0.959171 0.008631 0.467152 0.278892
H27   H     H_    0.939059 0.044130 0.571222 0.280565
H28   H     H_    0.127769 0.879150 0.590339 0.151962
H29   H     H_    0.121203 0.815408 0.518892 0.153501
H30   H     H_    0.143187 0.946558 0.457841 0.226718
H31   H     H_    0.136938 0.882812 0.384951 0.277955
H32   H     H_    0.031893 0.864109 0.444578 0.278600
H33   H     H_    0.040351 0.936761 0.392319 0.273644
H34   H     H_    0.039008 0.931022 0.512297 0.269020
H35   H     H_    0.678366 0.647469 0.316180 0.212742
H36   H     H_    0.150307 0.044990 0.359298 0.244874
H37   H     H_    0.623730 0.678547 0.393197 0.130545
H38   H     H_    0.650241 0.544848 0.359717 0.244322
H39   H     H_    0.602021 0.572146 0.447646 0.230678
H40   H     H_    0.535275 0.620943 0.336729 0.255857
H41   H     H_    0.543610 0.542061 0.313507 0.270241
H42   H     H_    0.583995 0.596457 0.246550 0.289563
H43   H     H_    0.379592 0.313204 0.557094 0.151187
H44   H     H_    0.346278 0.324903 0.666583 0.217791
H45   H     H_    0.388960 0.422887 0.535144 0.227335
H46   H     H_    0.354229 0.436401 0.642143 0.256724
H47   H     H_    0.101962 0.072324 0.447048 0.230347
H48   H     H_    0.438028 0.382601 0.718373 0.289225
H49   H     H_    0.466188 0.443205 0.649796 0.269765
H50   H     H_    0.472678 0.366699 0.611487 0.262821
H51   H     H_    0.345389 0.612737 0.574982 0.207199
H52   H     H_    0.385784 0.658624 0.494040 0.133507
H53   H     H_    0.349464 0.526071 0.473118 0.236536
H54   H     H_    0.384391 0.571270 0.387310 0.235387
H55   H     H_    0.473913 0.587392 0.483340 0.267351
H56   H     H_    0.459187 0.508554 0.468207 0.278869
H57   H     H_    0.438939 0.544106 0.572180 0.280616
H58   H     H_    0.035481 0.121234 0.335824 0.255797
H59   H     H_    0.627855 0.379091 0.590896 0.152163
H60   H     H_    0.621208 0.315379 0.519409 0.153384
H61   H     H_    0.643050 0.446571 0.458452 0.226653
H62   H     H_    0.636771 0.382867 0.385489 0.277926
H63   H     H_    0.531809 0.364037 0.445361 0.278624
H64   H     H_    0.540146 0.436721 0.393161 0.273572
H65   H     H_    0.538944 0.430922 0.513136 0.269043
H66   H     H_    0.589825 0.661951 0.558265 0.164893
H67   H     H_    0.594314 0.736597 0.511075 0.105004
H68   H     H_    0.549143 0.705406 0.699710 0.256576
H69   H     H_    0.043727 0.042322 0.312732 0.270307
H70   H     H_    0.556716 0.780000 0.653673 0.242784
H71   H     H_    0.484287 0.752841 0.531457 0.241380
H72   H     H_    0.451781 0.744596 0.641318 0.325785
H73   H     H_    0.476000 0.678895 0.581040 0.262795
H74   H     H_    0.307550 0.363134 0.390505 0.167540
H75   H     H_    0.312268 0.322598 0.286555 0.208392
H76   H     H_    0.420900 0.361820 0.399349 0.226089
H77   H     H_    0.423408 0.327957 0.290415 0.260164
H78   H     H_    0.369092 0.417139 0.226903 0.289765
H79   H     H_    0.438017 0.438578 0.281376 0.269835
H80   H     H_    0.084318 0.096617 0.245868 0.289573
H81   H     H_    0.366944 0.450894 0.336709 0.261894
H82   H     H_    0.372919 0.682880 0.329800 0.175908
H83   H     H_    0.392835 0.744626 0.402531 0.107235
H84   H     H_    0.385910 0.751036 0.197862 0.260432
H85   H     H_    0.404796 0.811970 0.271556 0.245308
H86   H     H_    0.493580 0.752586 0.327613 0.249169
H87   H     H_    0.496987 0.766006 0.208851 0.317011
H88   H     H_    0.474806 0.693131 0.250289 0.259476
H89   H     H_    0.727185 0.326203 0.692895 0.170447
H90   H     H_    0.757554 0.259480 0.746172 0.216205
H91   H     H_    0.879620 0.813248 0.556695 0.150957
H92   H     H_    0.629299 0.309164 0.770773 0.232993
H93   H     H_    0.659815 0.243512 0.824852 0.270249
H94   H     H_    0.738293 0.307323 0.897844 0.283227
H95   H     H_    0.663210 0.332273 0.924786 0.282267
H96   H     H_    0.707425 0.373250 0.843676 0.272644
H97   H     H_    0.089790 0.161923 0.557879 0.164720
H98   H     H_    0.094333 0.236591 0.510782 0.104787
H99   H     H_    0.049016 0.205318 0.699312 0.256791
H100  H     H_    0.056637 0.279931 0.653364 0.243938
H101  H     H_    0.984295 0.252836 0.530996 0.241608
H102  H     H_    0.846417 0.825021 0.666237 0.217350
H103  H     H_    0.951710 0.244564 0.640800 0.325368
H104  H     H_    0.975952 0.178874 0.580507 0.263176
H105  H     H_    0.807477 0.863035 0.390230 0.166974
H106  H     H_    0.812097 0.822436 0.286328 0.208722
H107  H     H_    0.920845 0.861669 0.398872 0.225864
H108  H     H_    0.923236 0.827765 0.289962 0.260678
H109  H     H_    0.868897 0.916948 0.226492 0.289525
H110  H     H_    0.937887 0.938373 0.280797 0.270141
H111  H     H_    0.866876 0.950747 0.336274 0.261712
H112  H     H_    0.872650 0.183060 0.329356 0.176346
N1    N     N_1   0.500020 0.000000 0.268010 -0.093270
N2    N     N_1   0.499980 1.000000 0.731990 -0.092725
N3    N     N_1   0.000020 0.500000 0.268010 -0.093406
N4    N     N_1   0.999980 0.500000 0.731990 -0.092760
O1    O     O_R   0.438390 0.938390 0.574460 -0.600561
O2    O     O_R   0.561600 0.061610 0.574480 -0.601405
O3    O     O_R   0.561600 0.938390 0.574480 -0.604410
O4    O     O_R   0.438400 0.061610 0.425520 -0.597437
O5    O     O_R   0.938400 0.438390 0.425520 -0.612890
O6    O     O_R   0.061600 0.561610 0.574480 -0.600841
O7    O     O_R   0.061600 0.438390 0.574480 -0.604191
O8    O     O_R   0.938400 0.561610 0.425520 -0.597145
O9    O     O_3   0.199271 0.136882 0.449198 -0.611646
O10   O     O_3   0.793489 0.851992 0.560527 -0.615395
O11   O     O_3   0.797987 0.134051 0.460344 -0.613137
O12   O     O_R   0.561610 0.061610 0.425540 -0.594975
O13   O     O_3   0.206669 0.858831 0.526041 -0.620057
O14   O     O_3   0.699232 0.636814 0.449478 -0.611731
O15   O     O_3   0.293464 0.351958 0.560794 -0.615717
O16   O     O_3   0.298038 0.633992 0.460754 -0.613045
O17   O     O_3   0.706673 0.358820 0.526343 -0.619911
O18   O     O_3   0.653744 0.715676 0.616852 -0.555695
O19   O     O_3   0.342170 0.274665 0.395742 -0.618706
O20   O     O_3   0.310480 0.751233 0.333856 -0.560031
O21   O     O_3   0.690226 0.243697 0.654337 -0.616391
O22   O     O_3   0.153675 0.215600 0.616638 -0.555157
O23   O     O_R   0.561610 0.938390 0.425540 -0.602775
O24   O     O_3   0.842070 0.774557 0.395525 -0.617952
O25   O     O_3   0.810237 0.251431 0.333632 -0.559393
O26   O     O_3   0.190050 0.743814 0.654232 -0.615691
O27   O     O_R   0.438390 0.061610 0.574460 -0.598464
O28   O     O_R   0.938390 0.438390 0.574460 -0.601032
O29   O     O_R   0.061610 0.561610 0.425540 -0.595443
O30   O     O_R   0.061610 0.438390 0.425540 -0.603141
O31   O     O_R   0.938390 0.561610 0.574460 -0.598677
O32   O     O_R   0.438400 0.938390 0.425520 -0.613026
Zn1   Zn    Zn3+2 0.500000 0.000000 0.599450 1.049152
Zn2   Zn    Zn3+2 0.500000 0.000000 0.400550 1.046976
Zn3   Zn    Zn3+2 1.000000 0.500000 0.599450 1.049091
Zn4   Zn    Zn3+2 1.000000 0.500000 0.400550 1.046640

loop_
_geom_bond_atom_site_label_1
_geom_bond_atom_site_label_2
_ccdc_geom_bond_type
C18   H99   S    
C27   H9    S    
O32   Zn2   S    
C46   C99   S    
C107  H21   S    
C3    H65   S    
C44   F13   S    
C94   F15   S    
O1    Zn1   S    
C124  H61   S    
C111  H30   S    
C4    O18   S    
C65   C114  T    
C105  C106  S    
C2    C84   S    
C1    C68   S    
C35   N2    T    
C100  C101  S    
C64   C90   S    
C40   C93   S    
C117  O15   S    
C51   C85   S    
C21   H108  S    
C102  H80   S    
C123  C124  S    
C32   C72   T    
C94   C98   S    
C117  C118  S    
C109  H26   S    
C54   O25   S    
C104  O10   S    
C92   O30   A    
C101  C102  S    
C4    H67   S    
C39   F7    S    
C123  H60   S    
C56   C83   S    
O30   Zn4   S    
C3    H64   S    
C38   C99   S    
C122  H57   S    
C28   C29   S    
C43   C99   S    
C54   C90   S    
C52   C74   S    
C45   C98   S    
C58   C82   S    
C54   C58   S    
C5    C6    S    
C55   C77   S    
C118  H45   S    
C95   C99   S    
C75   C84   S    
C39   C97   S    
C41   C96   S    
C49   O19   S    
O23   Zn2   S    
C115  C116  S    
C110  O13   S    
C50   O20   S    
C43   C94   S    
C4    H66   S    
C108  C109  S    
C25   H5    S    
C18   C19   S    
C106  H17   S    
C80   C89   S    
C63   C77   S    
C104  H102  S    
C37   O2    A    
C104  C105  S    
C22   H109  S    
C115  H38   S    
C61   C87   S    
C100  H1    S    
C36   C98   S    
C91   C96   S    
C77   F18   S    
C92   O7    A    
C44   C98   S    
C9    H78   S    
C104  H91   S    
C41   C93   S    
C71   C92   S    
C32   C89   S    
C16   H95   S    
C19   H103  S    
C8    C9    S    
C15   H92   S    
C28   H11   S    
C53   C87   S    
C107  C108  S    
C36   N3    T    
C12   H88   S    
C31   C88   S    
C37   O12   A    
C122  H55   S    
C74   C83   S    
C72   C81   S    
C47   O18   S    
C7    H75   S    
C27   H10   S    
C40   C42   S    
C40   F8    S    
C17   H97   S    
C11   H85   S    
C21   C22   S    
C118  C119  S    
C50   C63   S    
C7    H74   S    
C83   C114  S    
C53   C75   S    
O4    Zn2   S    
C40   C96   S    
C7    O19   S    
C56   O9    S    
C39   C91   S    
C79   C88   S    
C48   O23   A    
C44   C46   S    
C19   H104  S    
C120  O16   S    
C29   H16   S    
C124  H62   S    
C100  O9    S    
C69   C103  S    
C14   O21   S    
O3    Zn1   S    
C82   F3    S    
C105  H13   S    
C57   C84   S    
C120  H51   S    
C52   O22   S    
C60   O13   S    
C6    H71   S    
C107  O11   S    
O29   Zn4   S    
C59   O4    A    
C7    C8    S    
C119  H48   S    
C29   H15   S    
C117  H43   S    
C42   C97   S    
C55   C60   S    
C110  C111  S    
C91   F12   S    
C53   C57   S    
C11   H84   S    
C52   C56   S    
C80   F4    S    
C2    C66   T    
C25   C26   S    
C103  O8    A    
C24   C68   T    
C62   C88   S    
C58   O11   S    
C55   O26   S    
C61   C75   S    
O27   Zn1   S    
C34   N1    T    
C50   C80   S    
O6    Zn3   S    
C119  H49   S    
O8    Zn4   S    
O31   Zn3   S    
C59   O27   A    
C20   H106  S    
C8    H76   S    
C109  H24   S    
C46   F10   S    
C6    H73   S    
C9    H79   S    
C102  H69   S    
C103  O31   A    
C79   F20   S    
C46   C94   S    
N4    Zn3   S    
C52   C88   S    
C64   O17   S    
C61   O14   S    
C26   H6    S    
C28   H12   S    
C63   C89   S    
C70   C73   S    
C17   C18   S    
C64   C76   S    
O2    Zn1   S    
C105  H2    S    
C42   F6    S    
C120  H52   S    
C106  H19   S    
C107  H20   S    
C110  H28   S    
O7    Zn3   S    
C43   C45   S    
C51   C82   S    
C121  H53   S    
C121  C122  S    
N1    Zn2   S    
C1    O1    A    
C17   O22   S    
C23   O25   S    
C33   C73   T    
O5    Zn4   S    
C112  H32   S    
C108  H23   S    
N3    Zn4   S    
C70   O28   A    
C37   C67   S    
C81   O6    A    
C54   C76   S    
C1    O32   A    
C113  H37   S    
C109  H27   S    
C78   F2    S    
C78   C87   S    
C93   C97   S    
C14   H90   S    
C30   C69   T    
C3    C124  S    
C19   H101  S    
C12   H87   S    
C112  H34   S    
C21   H107  S    
C13   C67   T    
C110  H29   S    
C18   H100  S    
C5    H68   S    
C108  H22   S    
C26   H7    S    
C95   F14   S    
C60   C86   S    
C49   C62   S    
C48   O3    A    
C111  C112  S    
C60   C80   S    
C100  H25   S    
C14   C15   S    
C57   C78   S    
C74   F17   S    
C62   C74   S    
C51   C64   S    
C111  H31   S    
C23   H112  S    
C101  H47   S    
C117  H44   S    
C38   N4    T    
C113  O14   S    
C77   C86   S    
C81   O29   A    
C115  H39   S    
C11   C12   S    
C123  O17   S    
C12   H86   S    
C29   H14   S    
C53   O24   S    
C43   F11   S    
C39   C41   S    
C116  H41   S    
C15   H93   S    
C47   C61   S    
C45   F9    S    
C58   C85   S    
C82   C90   S    
C123  H59   S    
C75   F16   S    
C119  H50   S    
C122  H56   S    
C49   C83   S    
C113  H35   S    
C26   H8    S    
C102  H58   S    
C56   C79   S    
C55   C89   S    
C101  H36   S    
C23   H3    S    
C33   C90   S    
C59   C65   S    
C27   O26   S    
C41   F5    S    
C118  H46   S    
N2    Zn1   S    
C20   H105  S    
C10   H83   S    
C116  H42   S    
C57   O10   S    
O28   Zn3   S    
C15   C16   S    
C116  H40   S    
C31   C71   T    
C3    H63   S    
C22   H111  S    
C25   H4    S    
C62   O15   S    
C106  H18   S    
C17   H98   S    
C93   F1    S    
C121  H54   S    
C22   H110  S    
C5    H70   S    
C10   C11   S    
C50   C86   S    
C70   O5    A    
C16   H94   S    
C47   C84   S    
C76   F19   S    
C49   C79   S    
C63   O16   S    
C4    C5    S    
C23   C25   S    
C6    H72   S    
C20   C21   S    
C16   H96   S    
C13   C85   S    
C27   C28   S    
C10   H82   S    
C48   C66   S    
C44   C95   S    
C120  C121  S    
C51   O21   S    
C9    H81   S    
C20   O24   S    
C47   C78   S    
C10   O20   S    
C30   C87   S    
C35   C97   S    
C24   C86   S    
C76   C85   S    
C14   H89   S    
C34   C96   S    
C8    H77   S    
C42   C91   S    
O12   Zn2   S    
C112  H33   S    
C113  C115  S    
C45   C95   S    
