data_mof_unit_19199.cif
_audit_creation_date              2013-03-05T16:35:52-0500
_audit_creation_method            fapswitch 2.2
_symmetry_space_group_name_H-M    P1
_symmetry_Int_Tables_number       1
_space_group_crystal_system       triclinic
_cell_length_a                    23.562993
_cell_length_b                    9.084051
_cell_length_c                    7.777547
_cell_angle_alpha                 90.043067
_cell_angle_beta                  90.000018
_cell_angle_gamma                 89.999968
_cell_volume                      1664.76347773

loop_
_atom_site_label
_atom_site_type_symbol
_atom_site_description
_atom_site_fract_x
_atom_site_fract_y
_atom_site_fract_z
_atom_type_partial_charge
O1    O     O_R   0.500000 0.288390 0.642760 -0.582932
O2    O     O_R   0.500000 0.711610 0.357240 -0.582932
O3    O     O_R   0.500000 0.711610 0.642760 -0.562202
O4    O     O_R   0.500000 0.288390 0.357240 -0.562202
C1    C     C_R   0.500000 0.220004 0.499955 0.852753
C2    C     C_R   0.500000 0.779996 0.500045 0.852753
O5    O     O_R   0.417880 0.500000 0.642820 -0.549663
O6    O     O_R   0.582120 0.500000 0.357180 -0.549705
O7    O     O_R   0.582120 0.500000 0.642820 -0.549705
O8    O     O_R   0.417880 0.500000 0.357180 -0.549662
C3    C     C_R   0.208830 0.500003 0.500002 -0.093605
C4    C     C_R   0.791166 0.500004 0.500001 -0.093657
C5    C     C_R   0.390670 0.500000 0.500000 0.952852
C6    C     C_R   0.609329 0.500000 0.500000 0.952952
Cu1   Cu    Cu3+1 0.500000 0.500000 0.669080 1.126604
Cu2   Cu    Cu3+1 0.500000 0.500000 0.330920 1.126603
C7    C     C_R   0.297773 0.585858 0.620917 0.245973
C8    C     C_R   0.702221 0.414004 0.379223 0.245909
C9    C     C_R   0.297773 0.414146 0.379083 0.245974
C10   C     C_R   0.702221 0.586001 0.620777 0.245909
C11   C     C_R   0.328113 0.500002 0.500000 -0.398502
C12   C     C_R   0.671884 0.500001 0.500000 -0.398450
C13   C     C_R   0.880357 0.623296 0.446706 0.761490
C14   C     C_R   0.119641 0.376700 0.553271 0.761508
C15   C     C_R   0.880356 0.376711 0.553302 0.761490
C16   C     C_R   0.119641 0.623305 0.446737 0.761507
N1    N     N_R   0.852075 0.500004 0.500003 -0.440393
N2    N     N_R   0.147921 0.500003 0.500003 -0.440365
C17   C     C_R   0.940026 0.373362 0.553475 -0.227305
C18   C     C_R   0.059971 0.626649 0.446549 -0.227290
C19   C     C_R   0.940026 0.626644 0.446535 -0.227308
C20   C     C_R   0.059971 0.373357 0.553461 -0.227290
C21   C     C_R   0.969983 0.500003 0.500005 -0.156335
C22   C     C_R   0.030013 0.500003 0.500005 -0.156326
C23   C     C_R   0.970423 0.247500 0.605644 0.628542
C24   C     C_R   0.029574 0.752510 0.394376 0.628540
C25   C     C_R   0.970423 0.752507 0.394366 0.628543
C26   C     C_R   0.029574 0.247496 0.605634 0.628538
C27   C     C_1   0.500000 0.065384 0.499938 -0.083395
C28   C     C_1   0.500000 0.934616 0.500062 -0.083395
C29   C     C_R   0.238488 0.584571 0.620582 0.625835
C30   C     C_R   0.761506 0.415291 0.379556 0.625842
C31   C     C_R   0.238487 0.415434 0.379420 0.625834
C32   C     C_R   0.761506 0.584716 0.620446 0.625842
N3    N     N_1   0.500000 0.500000 0.076820 0.002911
N4    N     N_1   0.500000 0.500000 0.923180 0.002912
O9    O     O_2   0.850575 0.741586 0.393218 -0.354886
O10   O     O_2   0.149423 0.258396 0.606706 -0.354954
O11   O     O_2   0.850575 0.258422 0.606789 -0.354888
O12   O     O_2   0.149423 0.741610 0.393301 -0.354953
F1    F     F_    0.943308 0.123044 0.656799 -0.502833
F2    F     F_    0.056688 0.876968 0.343228 -0.502847
F3    F     F_    0.943309 0.876963 0.343212 -0.502833
F4    F     F_    0.056688 0.123037 0.656782 -0.502847
F5    F     F_    0.209375 0.666066 0.737543 -0.528846
F6    F     F_    0.790619 0.333658 0.262723 -0.528813
F7    F     F_    0.209374 0.333940 0.262460 -0.528846
F8    F     F_    0.790617 0.666351 0.737279 -0.528812
Cl1   Cl    Cl    0.332236 0.701990 0.770173 -0.407133
Cl2   Cl    Cl    0.667752 0.297701 0.230163 -0.407186
Cl3   Cl    Cl    0.332235 0.298015 0.229826 -0.407131
Cl4   Cl    Cl    0.667751 0.702303 0.769835 -0.407188

loop_
_geom_bond_atom_site_label_1
_geom_bond_atom_site_label_2
_geom_bond_distance
_ccdc_geom_bond_type
Cu2   N3    1.976274 S    
O4    Cu2   1.933299 S    
C4    C30   1.398944 A    
O7    C6    1.282533 A    
C19   C21   1.412580 A    
C3    C31   1.398917 A    
O1    Cu1   1.932993 S    
C13   N1    1.367853 A    
C15   N1    1.367851 A    
O2    Cu2   1.932992 S    
C17   C23   1.409099 A    
C16   N2    1.367839 A    
C24   F2    1.358435 S    
C18   C24   1.409097 A    
O3    C2    1.272397 A    
C25   F3    1.358436 S    
C6    C12   1.473978 S    
C16   O12   1.349376 S    
O5    Cu1   1.945744 S    
C21   C22   1.414484 A    
O7    Cu1   1.945742 S    
C5    C11   1.474033 S    
C4    C32   1.398946 A    
O8    Cu2   1.945744 S    
N3    N4    1.194943 T    
C23   F1    1.358439 S    
O2    C2    1.272191 A    
C27   C28   1.187912 T    
C3    N2    1.435179 S    
C7    Cl1   1.765797 S    
O1    C1    1.272191 A    
C8    Cl2   1.765794 S    
C24   C25   1.393758 A    
C10   C32   1.396986 A    
C9    Cl3   1.765795 S    
C16   C18   1.406333 A    
C20   C26   1.409094 A    
C8    C30   1.396988 A    
C19   C25   1.409099 A    
C10   Cl4   1.765794 S    
C15   O11   1.349378 S    
C13   C19   1.406326 A    
C7    C29   1.396990 A    
C13   O9    1.349383 S    
C18   C22   1.412583 A    
C4    N1    1.435201 S    
Cu1   Cu2   2.630056 S    
C14   O10   1.349374 S    
C17   C21   1.412579 A    
O5    C5    1.282548 A    
C2    C28   1.404571 S    
O3    Cu1   1.933298 S    
C15   C17   1.406331 A    
O6    Cu2   1.945742 S    
C3    C29   1.398917 A    
C32   F8    1.358360 S    
C14   C20   1.406337 A    
C1    C27   1.404571 S    
C31   F7    1.358351 S    
C23   C26   1.393763 A    
C29   F5    1.358351 S    
O6    C6    1.282534 A    
C9    C31   1.396991 A    
Cu1   N4    1.976274 S    
C30   F6    1.358358 S    
C20   C22   1.412581 A    
C8    C12   1.415118 A    
C7    C11   1.415158 A    
C14   N2    1.367840 A    
C10   C12   1.415118 A    
O4    C1    1.272397 A    
C9    C11   1.415158 A    
O8    C5    1.282549 A    
C26   F4    1.358439 S    
