data_mof_unit_25641.cif
_audit_creation_date              2012-12-10T18:46:17-0500
_audit_creation_method            fapswitch 2.2
_symmetry_space_group_name_H-M    P1
_symmetry_Int_Tables_number       1
_space_group_crystal_system       triclinic
_cell_length_a                    9.860175
_cell_length_b                    10.764037
_cell_length_c                    13.333342
_cell_angle_alpha                 91.652211
_cell_angle_beta                  71.090427
_cell_angle_gamma                 89.950764
_cell_volume                      1338.13034874

loop_
_atom_site_label
_atom_site_type_symbol
_atom_type_description
_atom_site_fract_x
_atom_site_fract_y
_atom_site_fract_z
_atom_type_partial_charge
C1    C     C_R   0.504699 0.739485 0.490710 0.914905
C2    C     C_R   0.374841 0.490342 0.819622 -0.217664
C3    C     C_R   0.630488 0.938169 0.491315 -0.171159
C4    C     C_R   0.421459 0.493736 0.703304 0.987230
C5    C     C_R   0.618112 0.064179 0.509572 0.626669
C6    C     C_R   0.502810 0.127590 0.495008 -0.176160
C7    C     C_R   0.398627 0.064988 0.463596 -0.290772
C8    C     C_R   0.403547 0.937221 0.453471 -0.005854
C9    C     C_R   0.514057 0.872202 0.476254 -0.212323
C10   C     C_R   0.952551 0.408156 0.447038 -0.035099
C11   C     C_R   0.094087 0.405848 0.451214 -0.093084
C12   C     C_R   0.453702 0.495144 0.974632 -0.182186
C13   C     C_R   0.046988 0.591318 0.553848 -0.095321
C14   C     C_R   0.901805 0.587588 0.557603 0.649113
C15   C     C_R   0.499672 0.259988 0.500755 0.945643
C16   C     C_R   0.578810 0.491801 0.296284 0.885186
C17   C     C_R   0.800369 0.410564 0.008931 0.625620
C18   C     C_R   0.625228 0.467492 0.180402 -0.259269
C19   C     C_R   0.244028 0.548394 0.881179 -0.258848
C20   C     C_R   0.227672 0.593001 0.983378 0.571245
C21   C     C_R   0.333875 0.571914 0.028127 0.571864
C22   C     C_1   0.888385 0.459369 0.156967 0.384813
C23   C     C_R   0.475409 0.453680 0.869489 -0.112532
C24   C     C_1   0.301650 0.877460 0.410995 0.261874
C25   C     C_1   0.911273 0.312242 0.385819 0.352782
C26   C     C_1   0.091395 0.692894 0.607917 0.343384
C27   C     C_1   0.382116 0.397440 0.184318 0.302187
C28   C     C_1   0.124651 0.565311 0.842664 0.449297
C29   C     C_1   0.770214 0.884279 0.476950 0.421658
C30   C     C_R   0.555785 0.462576 0.022959 0.004221
C31   C     C_R   0.692174 0.417772 0.961911 -0.093956
C32   C     C_R   0.711600 0.371764 0.859314 -0.205285
C33   C     C_R   0.598968 0.378726 0.817650 0.682638
C34   C     C_R   0.518427 0.455872 0.132073 0.042173
C35   C     C_R   0.770304 0.448284 0.115888 -0.170015
F1    F     F_    0.720957 0.124333 0.539479 -0.621789
F2    F     F_    0.805178 0.670567 0.620072 -0.650761
F3    F     F_    0.933218 0.367132 0.951827 -0.676051
F4    F     F_    0.320738 0.629978 0.122748 -0.619972
F5    F     F_    0.110729 0.662549 0.038408 -0.621003
F6    F     F_    0.609328 0.307477 0.729705 -0.622543
H1    H     H_    0.314586 0.115540 0.445459 0.186722
H2    H     H_    0.165192 0.328733 0.415701 0.160371
H3    H     H_    0.809621 0.323155 0.814215 0.220754
N1    N     N_R   0.142790 0.500030 0.500030 -0.131637
N2    N     N_R   0.857180 0.499940 0.500010 -0.153394
N3    N     N_1   0.983870 0.469066 0.189010 -0.144123
N4    N     N_1   0.220806 0.829883 0.376215 -0.123728
N5    N     N_1   0.879856 0.234901 0.335598 -0.186014
N6    N     N_1   0.125280 0.775523 0.651713 -0.169999
N7    N     N_1   0.273734 0.349015 0.222073 -0.216892
N8    N     N_1   0.026401 0.577582 0.814410 -0.167802
N9    N     N_1   0.883698 0.843901 0.463427 -0.148305
O1    O     O_R   0.385370 0.683250 0.500010 -0.625881
O2    O     O_R   0.614700 0.683220 0.500010 -0.586024
O3    O     O_R   0.328400 0.499990 0.653620 -0.639063
O4    O     O_R   0.557730 0.499960 0.653620 -0.531057
O5    O     O_R   0.385300 0.316780 0.499990 -0.649499
O6    O     O_R   0.614630 0.316750 0.499990 -0.543881
O7    O     O_R   0.442270 0.500040 0.346380 -0.595526
O8    O     O_R   0.671600 0.500010 0.346380 -0.642755
Zn1   Zn    Zn3+2 0.346870 0.500020 0.500000 0.987898
Zn2   Zn    Zn3+2 0.653130 0.499980 0.500000 1.068977

loop_
_geom_bond_atom_site_label_1
_geom_bond_atom_site_label_2
_ccdc_geom_bond_type
C4    O4    A    
O5    Zn1   S    
C2    C4    S    
C1    O1    A    
C11   H2    S    
C6    C7    A    
C3    C9    A    
C28   N8    T    
C18   C35   A    
N1    Zn1   S    
O6    Zn2   S    
C31   C32   A    
C21   F4    S    
N2    Zn2   S    
C33   F6    S    
C32   C33   A    
O8    Zn2   S    
C22   N3    T    
C32   H3    S    
C7    C8    A    
C14   N2    A    
C13   C14   A    
C4    O3    A    
C14   F2    S    
C13   N1    A    
C22   C35   S    
C18   C34   A    
C12   C23   A    
C30   C31   A    
C29   N9    T    
C20   F5    S    
C10   C25   S    
O7    Zn1   S    
C8    C24   S    
C27   N7    T    
O4    Zn2   S    
O3    Zn1   S    
C17   F3    S    
C26   N6    T    
C27   C34   S    
C1    O2    A    
C5    C6    A    
C17   C31   A    
C15   O5    A    
C25   N5    T    
C13   C26   S    
C11   N1    A    
C10   C11   A    
C30   C34   A    
C19   C28   S    
C24   N4    T    
C5    F1    S    
C3    C5    A    
C10   N2    A    
C1    C9    S    
C20   C21   A    
C16   C18   S    
C16   O8    A    
C7    H1    S    
C2    C23   A    
C3    C29   S    
C15   O6    A    
C17   C35   A    
C12   C30   A    
C6    C15   S    
C2    C19   A    
C16   O7    A    
O1    Zn1   S    
C12   C21   A    
C19   C20   A    
C8    C9    A    
C23   C33   A    
O2    Zn2   S    
