data_mof_unit_49335.cif
_audit_creation_date              2012-12-10T16:54:28-0500
_audit_creation_method            fapswitch 2.2
_symmetry_space_group_name_H-M    P1
_symmetry_Int_Tables_number       1
_space_group_crystal_system       triclinic
_cell_length_a                    15.067718
_cell_length_b                    10.950155
_cell_length_c                    9.751077
_cell_angle_alpha                 89.734446
_cell_angle_beta                  90.416987
_cell_angle_gamma                 90.367171
_cell_volume                      1608.77513512

loop_
_atom_site_label
_atom_site_type_symbol
_atom_type_description
_atom_site_fract_x
_atom_site_fract_y
_atom_site_fract_z
_atom_type_partial_charge
C1    C     C_R   0.501203 0.265845 0.500166 0.838138
C2    C     C_R   0.187547 0.388883 0.536500 0.169383
C3    C     C_R   0.232761 0.496858 0.499953 -0.124291
C4    C     C_R   0.329319 0.498317 0.499809 0.844802
C5    C     C_R   0.187383 0.605809 0.474266 0.151062
C6    C     C_2   0.492361 0.937414 0.398419 0.240809
C7    C     C_2   0.524809 0.863896 0.498249 0.008273
C8    C     C_2   0.518299 0.066059 0.393148 0.293912
C9    C     C_2   0.494208 0.134453 0.500364 -0.429307
C10   C     C_2   0.433550 0.463174 0.921363 -0.089535
C11   C     C_2   0.441924 0.442737 0.073198 0.519994
C12   C     C_R   0.906640 0.611874 0.476774 -0.051933
C13   C     C_R   0.502723 0.734485 0.499723 0.907019
C14   C     C_R   0.670549 0.500289 0.500491 0.871903
C15   C     C_R   0.812754 0.607787 0.465445 0.331319
C16   C     C_R   0.766807 0.500730 0.502225 -0.198221
C17   C     C_R   0.811557 0.394811 0.543659 0.160413
C18   C     C_R   0.904631 0.394018 0.541941 0.029122
C19   C     C_R   0.952638 0.501547 0.509583 -0.063535
C20   C     C_3   0.568564 0.916134 0.734157 -0.635500
C21   C     C_3   0.594380 0.035015 0.171468 -0.587403
C22   C     C_3   0.503050 0.704596 0.070365 -0.521321
C23   C     C_R   0.950028 0.285763 0.569558 -0.160011
C24   C     C_3   0.751196 0.266070 0.723958 -0.623778
C25   C     C_3   0.268293 0.206853 0.468963 -0.461616
C26   C     C_3   0.256949 0.786621 0.568940 -0.607038
C27   C     C_R   0.041878 0.280294 0.568670 0.366793
C28   C     C_R   0.093012 0.387193 0.539449 -0.020518
C29   C     C_R   0.046850 0.498149 0.509259 -0.033946
C30   C     C_R   0.094518 0.606417 0.478426 0.035449
C31   C     C_R   0.048915 0.715242 0.453657 -0.193667
C32   C     C_R   0.957134 0.720312 0.456045 0.424623
Cl1   Cl    Cl    0.748784 0.729207 0.395582 -0.575398
Cl2   Cl    Cl    0.366479 0.337458 0.143179 -0.595786
Cl3   Cl    Cl    0.083122 0.132083 0.600718 -0.605897
Cl4   Cl    Cl    0.914257 0.869968 0.446623 -0.483449
Cl5   Cl    Cl    0.402189 0.895321 0.291744 -0.674011
Cu1   Cu    Cu3+1 0.500020 0.500020 0.638630 0.958373
Cu2   Cu    Cu3+1 0.499980 0.499980 0.361370 1.025894
H1    H     H_    0.461831 0.092524 0.588271 0.152904
H2    H     H_    0.617306 0.176833 0.309142 0.246441
H3    H     H_    0.633879 0.086939 0.094869 0.213874
H4    H     H_    0.534849 0.998242 0.117967 0.261053
H5    H     H_    0.635731 0.959464 0.212830 0.242154
H6    H     H_    0.608833 0.604661 0.149211 0.303040
H7    H     H_    0.509429 0.728888 0.960369 0.203696
H8    H     H_    0.533200 0.779282 0.131579 0.238192
H9    H     H_    0.431385 0.696688 0.095439 0.257391
H10   H     H_    0.706019 0.271092 0.522082 0.233408
H11   H     H_    0.708255 0.337728 0.767915 0.234637
H12   H     H_    0.370533 0.442291 0.872238 0.186431
H13   H     H_    0.816131 0.266640 0.778572 0.239522
H14   H     H_    0.719085 0.175712 0.740708 0.226340
H15   H     H_    0.225214 0.247300 0.670915 0.303988
H16   H     H_    0.211405 0.178427 0.403241 0.271977
H17   H     H_    0.299531 0.124147 0.513806 0.214858
H18   H     H_    0.317820 0.254261 0.404434 0.253665
H19   H     H_    0.288050 0.706971 0.382425 0.301764
H20   H     H_    0.305589 0.736821 0.634095 0.212624
H21   H     H_    0.196336 0.805003 0.629472 0.255267
H22   H     H_    0.286535 0.875610 0.538259 0.255766
H23   H     H_    0.561533 0.493492 0.889236 0.233542
H24   H     H_    0.913786 0.202006 0.590228 0.235412
H25   H     H_    0.084779 0.799496 0.433989 0.234143
H26   H     H_    0.636608 0.970456 0.556207 0.285077
H27   H     H_    0.575729 0.012699 0.767140 0.208695
H28   H     H_    0.613677 0.859012 0.797544 0.252113
H29   H     H_    0.498882 0.886794 0.752874 0.225582
N1    N     N_2   0.499020 0.498660 0.846910 -0.306517
N2    N     N_2   0.499000 0.498630 0.153040 -0.122465
N3    N     N_2   0.592615 0.904994 0.591145 -0.408509
N4    N     N_2   0.568152 0.115771 0.280768 -0.372036
N5    N     N_2   0.549767 0.591593 0.097341 -0.393661
N6    N     N_2   0.763166 0.286262 0.578428 -0.428803
N7    N     N_2   0.239644 0.286805 0.577621 -0.447086
N8    N     N_2   0.235166 0.716356 0.447701 -0.421858
O1    O     O_R   0.500020 0.321960 0.617040 -0.574603
O2    O     O_R   0.499980 0.321920 0.382900 -0.529305
O3    O     O_R   0.370270 0.499990 0.617090 -0.584357
O4    O     O_R   0.370240 0.499950 0.382940 -0.548567
O5    O     O_R   0.500020 0.678080 0.617100 -0.577094
O6    O     O_R   0.499980 0.678040 0.382960 -0.548818
O7    O     O_R   0.629760 0.500050 0.617060 -0.583815
O8    O     O_R   0.629730 0.500010 0.382910 -0.577180

loop_
_geom_bond_atom_site_label_1
_geom_bond_atom_site_label_2
_ccdc_geom_bond_type
C24   H13   S    
C22   H9    S    
Cu1   O7    S    
C1    O1    A    
C20   H28   S    
C25   H17   S    
C14   O8    A    
C11   N2    D    
H19   N8    S    
C32   Cl4   S    
C20   H27   S    
C28   C29   A    
C26   H22   S    
Cu2   O8    S    
C4    O4    A    
C7    N3    S    
C30   C31   A    
Cu1   O3    S    
C15   C16   A    
C13   O5    A    
H6    N5    S    
C18   C19   A    
C21   H4    S    
C8    C9    D    
C26   N8    S    
C20   N3    S    
C23   C27   A    
C26   H20   S    
C23   H24   S    
C22   H8    S    
Cu1   N1    S    
C12   C32   A    
C1    O2    A    
C25   H18   S    
C14   O7    A    
C10   H12   S    
C24   H11   S    
C8    N4    S    
C21   N4    S    
C18   C23   A    
Cu2   O2    S    
C1    C9    S    
C4    O3    A    
C16   C17   A    
C6    C8    S    
C27   Cl3   S    
C24   H14   S    
H26   N3    S    
C13   O6    A    
C9    H1    S    
C21   H3    S    
H23   N1    S    
C25   N7    S    
C29   C30   A    
C21   H5    S    
C31   C32   A    
C12   C15   A    
N2    N5    S    
C17   C18   A    
C6    Cl5   S    
H2    N4    S    
C22   H7    S    
Cu1   O5    S    
C17   N6    S    
C14   C16   S    
C3    C4    S    
C19   C29   A    
C5    C30   A    
C31   H25   S    
C20   H29   S    
C11   Cl2   S    
C25   H16   S    
Cu2   O6    S    
C3    C5    A    
C6    C7    D    
Cu1   O1    S    
Cu2   O4    S    
C5    N8    S    
C2    C3    A    
C24   N6    S    
Cu1   Cu2   S    
C12   C19   A    
Cu2   N2    S    
C10   C11   S    
H15   N7    S    
C10   N1    D    
C7    C13   S    
C27   C28   A    
H10   N6    S    
C2    C28   A    
C22   N5    S    
C26   H21   S    
C15   Cl1   S    
C2    N7    S    
