data_mof_unit_36249.cif
_audit_creation_date              2012-12-10T17:37:21-0500
_audit_creation_method            fapswitch 2.2
_symmetry_space_group_name_H-M    P1
_symmetry_Int_Tables_number       1
_space_group_crystal_system       triclinic
_cell_length_a                    12.342852
_cell_length_b                    13.023731
_cell_length_c                    15.854242
_cell_angle_alpha                 77.323063
_cell_angle_beta                  101.043422
_cell_angle_gamma                 116.058412
_cell_volume                      2220.48536115

loop_
_atom_site_label
_atom_site_type_symbol
_atom_type_description
_atom_site_fract_x
_atom_site_fract_y
_atom_site_fract_z
_atom_type_partial_charge
C1    C     C_R   0.854773 0.285120 0.507040 0.830914
C2    C     C_3   0.996884 0.497569 0.916763 0.030214
C3    C     C_3   0.089546 0.597492 0.023386 -0.248944
C4    C     C_3   0.999650 0.499548 0.083418 0.019619
C5    C     C_3   0.981152 0.590855 0.952406 -0.195128
C6    C     C_3   0.892425 0.493220 0.013672 0.308499
C7    C     C_1   0.997182 0.497967 0.825110 0.008223
C8    C     C_1   0.000622 0.499861 0.175100 -0.005190
C9    C     C_R   0.272645 0.045347 0.451141 0.217848
C10   C     C_R   0.226756 0.839147 0.479219 -0.181846
C11   C     C_R   0.812690 0.073054 0.549886 0.229152
C12   C     C_R   0.999304 0.499487 0.659980 0.823842
C13   C     C_R   0.731131 0.958156 0.564505 -0.222748
C14   C     C_R   0.606856 0.924900 0.544036 0.195382
C15   C     C_R   0.562063 0.007311 0.495847 0.075019
C16   C     C_R   0.646349 0.124267 0.474865 0.000982
C17   C     C_R   0.435803 0.980226 0.472972 0.037830
C18   C     C_R   0.395417 0.069653 0.447571 0.055443
C19   C     C_R   0.479101 0.180568 0.418547 -0.187104
C20   C     C_R   0.600682 0.203278 0.423705 -0.173513
C21   C     C_R   0.348281 0.867339 0.473332 -0.258388
C22   C     C_R   0.189945 0.929351 0.475339 0.189592
C23   C     C_R   0.144628 0.714684 0.489444 0.814066
C24   C     C_R   0.771889 0.159662 0.507867 -0.168691
C25   C     C_R   0.343822 0.323817 0.640859 0.178237
C26   C     C_R   0.752531 0.641303 0.378870 0.447232
C27   C     C_R   0.658533 0.677826 0.359040 -0.313331
C28   C     C_R   0.560224 0.626146 0.407045 -0.221388
C29   C     C_R   0.553040 0.535856 0.476391 0.007930
C30   C     C_R   0.654930 0.506528 0.498787 0.178399
C31   C     C_R   0.448632 0.474367 0.524061 -0.111310
C32   C     C_R   0.449396 0.387182 0.596434 0.053300
C33   C     C_R   0.556021 0.367775 0.621925 0.227029
C34   C     C_R   0.000479 0.500196 0.340078 0.819153
C35   C     C_R   0.651747 0.421866 0.571137 -0.209452
C36   C     C_R   0.342607 0.496302 0.502198 0.033176
C37   C     C_R   0.246168 0.355202 0.617823 0.028454
C38   C     C_3   0.014563 0.407777 0.046442 0.216018
C39   C     C_3   0.906317 0.399431 0.976528 -0.238078
C40   C     C_1   0.997978 0.498653 0.749575 -0.144744
C41   C     C_1   0.000930 0.499973 0.250613 -0.172905
C42   C     C_3   0.103139 0.503905 0.986799 0.296127
Cu1   Cu    Cu3+1 0.098270 0.475420 0.519690 0.963109
Cu2   Cu    Cu3+1 0.901730 0.524580 0.480310 0.948694
H1    H     H_    0.831490 0.319049 0.956640 0.188927
H2    H     H_    0.374561 0.800316 0.468177 0.205455
H3    H     H_    0.764016 0.894381 0.600049 0.183750
H4    H     H_    0.657478 0.284930 0.388882 0.179700
H5    H     H_    0.167764 0.311103 0.653622 0.171579
H6    H     H_    0.334112 0.559441 0.448030 0.127180
H7    H     H_    0.491105 0.658532 0.387556 0.144757
H8    H     H_    0.660316 0.745033 0.304465 0.153749
H9    H     H_    0.723647 0.395221 0.592157 0.233208
H10   H     H_    0.965857 0.665664 0.912350 0.174320
H11   H     H_    0.164372 0.677848 0.043312 0.160102
H12   H     H_    0.451358 0.249699 0.389359 0.178100
N1    N     N_R   0.246280 0.438200 0.549540 -0.192866
N2    N     N_R   0.754330 0.561180 0.450980 -0.208843
O1    O     O_R   0.972510 0.318130 0.524770 -0.526862
O2    O     O_R   0.806530 0.359650 0.491510 -0.616363
O3    O     O_R   0.082970 0.479240 0.637550 -0.576914
O4    O     O_R   0.916990 0.520750 0.604290 -0.593342
O5    O     O_R   0.193470 0.640350 0.508490 -0.582736
O6    O     O_R   0.027490 0.681870 0.475230 -0.561067
O7    O     O_R   0.083010 0.479250 0.395710 -0.583290
O8    O     O_R   0.917030 0.520760 0.362450 -0.546724
Br1   Br    Br    0.975392 0.101009 0.600296 -0.617359
N3    N     N_2   0.529347 0.811308 0.580333 -0.452417
H13   H     H_    0.561264 0.749492 0.582530 0.256316
C43   C     C_3   0.489316 0.804725 0.662143 -0.613452
H14   H     H_    0.422788 0.715145 0.682373 0.231151
H15   H     H_    0.444380 0.864072 0.655500 0.238273
H16   H     H_    0.567775 0.827793 0.713253 0.231948
Br2   Br    Br    0.589980 0.279578 0.730391 -0.505102
N4    N     N_2   0.331715 0.226175 0.706202 -0.380685
H17   H     H_    0.277839 0.213795 0.753147 0.259631
C44   C     C_3   0.300759 0.120263 0.673201 -0.565863
H18   H     H_    0.306795 0.052769 0.728078 0.234558
H19   H     H_    0.364174 0.133769 0.626555 0.241514
H20   H     H_    0.206940 0.088763 0.640409 0.240739
N5    N     N_2   0.845071 0.687470 0.322497 -0.391919
H21   H     H_    0.892410 0.775660 0.318000 0.224077
C45   C     C_3   0.804210 0.653902 0.236646 -0.613844
H22   H     H_    0.883986 0.681700 0.200867 0.235281
H23   H     H_    0.744636 0.695752 0.199057 0.204244
H24   H     H_    0.753829 0.558432 0.241399 0.255959
N6    N     N_2   0.032934 0.310364 0.100580 -0.430620
H25   H     H_    0.979269 0.273875 0.150987 0.257457
C46   C     C_3   0.030091 0.225032 0.054310 -0.681831
H26   H     H_    0.053354 0.158844 0.101215 0.227464
H27   H     H_    0.097311 0.265704 0.006241 0.238968
H28   H     H_    0.937982 0.181581 0.020521 0.229127
Br3   Br    Br    0.739860 0.486903 0.034361 -0.534100
N7    N     N_2   0.217145 0.510886 0.969036 -0.425395
H29   H     H_    0.207298 0.451079 0.931780 0.249847
C47   C     C_3   0.307905 0.520315 0.043152 -0.630975
H30   H     H_    0.394317 0.534552 0.021239 0.242281
H31   H     H_    0.278303 0.439620 0.091031 0.244089
H32   H     H_    0.324765 0.594874 0.074757 0.223843
N8    N     N_2   0.076743 0.906062 0.502745 -0.416984
H33   H     H_    0.043707 0.836339 0.550872 0.268160
C48   C     C_3   0.986058 0.926886 0.437560 -0.625364
H34   H     H_    0.898284 0.849822 0.441468 0.212262
H35   H     H_    0.013448 0.947547 0.370941 0.213530
H36   H     H_    0.971963 0.000142 0.450319 0.256659
N9    N     N_2   0.237093 0.138351 0.440666 -0.431442
H37   H     H_    0.180203 0.131225 0.483486 0.300498
C49   C     C_3   0.209302 0.186628 0.352125 -0.683921
H38   H     H_    0.110192 0.162157 0.337591 0.226437
H39   H     H_    0.238996 0.156390 0.303993 0.226038
H40   H     H_    0.256409 0.282383 0.344680 0.238380

loop_
_geom_bond_atom_site_label_1
_geom_bond_atom_site_label_2
_ccdc_geom_bond_type
C19   H12   S    
N6    H25   S    
C3    C42   S    
C35   H9    S    
Cu2   O8    S    
C19   C20   A    
C4    C8    S    
C34   O8    A    
N5    H21   S    
Cu1   O5    S    
C44   H18   S    
C10   C22   A    
C26   C27   A    
C30   C35   A    
C16   C20   A    
Cu2   O2    S    
C38   C42   S    
C1    O1    A    
C38   C39   S    
C28   H7    S    
C9    C22   A    
N9    H37   S    
C15   C16   A    
C47   H32   S    
C11   C24   A    
C12   O4    A    
C49   H38   S    
C48   H36   S    
C18   C19   A    
N4    C44   S    
C2    C7    S    
C25   C37   A    
C3    H11   S    
C2    C39   S    
C31   C32   A    
Cu2   N2    S    
N3    H13   S    
C47   H31   S    
C7    C40   T    
C43   H14   S    
C46   H27   S    
Cu1   O1    S    
C39   H1    S    
C25   C32   A    
C23   O5    A    
C16   C24   A    
C13   C14   A    
C48   H34   S    
C34   C41   S    
C34   O7    A    
N5    C45   S    
C11   Br1   S    
C44   H19   S    
C10   C21   A    
C22   N8    S    
C5    H10   S    
C8    C41   T    
C4    C6    S    
C36   N1    A    
C1    O2    A    
C13   H3    S    
Cu2   O4    S    
C9    N9    S    
C17   C21   A    
C25   N4    S    
C12   C40   S    
C48   H35   S    
N4    H17   S    
C29   C30   A    
C37   H5    S    
C33   Br2   S    
C45   H22   S    
C14   C15   A    
Cu1   O7    S    
C6    Br3   S    
C6    C39   S    
C47   H30   S    
C43   H16   S    
N8    C48   S    
C17   C18   A    
C46   H28   S    
N7    C47   S    
C26   N2    A    
C20   H4    S    
C23   O6    A    
C45   H23   S    
C4    C38   S    
C26   N5    S    
N6    C46   S    
Cu1   Cu2   S    
C2    C5    S    
C3    C4    S    
Cu2   O6    S    
C36   H6    S    
C27   H8    S    
Cu1   O3    S    
C21   H2    S    
C44   H20   S    
C15   C17   A    
C28   C29   A    
C42   N7    S    
C3    C5    S    
C10   C23   S    
C49   H40   S    
C38   N6    S    
C32   C33   A    
C29   C31   A    
C12   O3    A    
C11   C13   A    
C5    C6    S    
N9    C49   S    
C2    C42   S    
C30   N2    A    
N8    H33   S    
C33   C35   A    
C49   H39   S    
N7    H29   S    
Cu1   N1    S    
C9    C18   A    
C45   H24   S    
C1    C24   S    
N3    C43   S    
C27   C28   A    
C14   N3    S    
C31   C36   A    
C43   H15   S    
C46   H26   S    
C37   N1    A    
