data_mof_unit_15820.cif
_audit_creation_date              2012-12-11T15:52:17-0500
_audit_creation_method            fapswitch 2.2
_symmetry_space_group_name_H-M    P1
_symmetry_Int_Tables_number       1
_space_group_crystal_system       triclinic
_cell_length_a                    11.021709
_cell_length_b                    11.024577
_cell_length_c                    18.819899
_cell_angle_alpha                 89.903236
_cell_angle_beta                  90.181438
_cell_angle_gamma                 119.712312
_cell_volume                      1986.13296646

loop_
_atom_site_label
_atom_site_type_symbol
_atom_type_description
_atom_site_fract_x
_atom_site_fract_y
_atom_site_fract_z
_atom_type_partial_charge
C1    C     C_R   0.519064 0.449859 0.144855 0.555535
C2    C     C_R   0.573453 0.110676 0.139150 0.533807
C3    C     C_R   0.880282 0.459200 0.139322 0.547286
C4    C     C_R   0.458064 0.519606 0.852298 0.557033
C5    C     C_R   0.060561 0.542081 0.851820 0.600132
C6    C     C_R   0.481019 0.939279 0.851758 0.577374
C7    C     C_3   0.758011 0.063688 0.552449 0.106965
C8    C     C_3   0.970512 0.704214 0.543991 0.156788
C9    C     C_3   0.304795 0.251361 0.544051 0.105841
C10   C     C_3   0.932991 0.686139 0.466034 0.140623
C11   C     C_3   0.770688 0.080121 0.472206 0.159164
C12   C     C_3   0.308882 0.240212 0.463907 0.160011
C13   C     C_R   0.518239 0.457174 0.353299 0.542156
C14   C     C_R   0.544817 0.064401 0.354554 0.560049
C15   C     C_R   0.941378 0.483004 0.352862 0.545344
C16   C     C_R   0.454367 0.522216 0.644567 0.553671
C17   C     C_R   0.125711 0.578645 0.638912 0.576152
C18   C     C_R   0.479760 0.937455 0.646286 0.549980
C19   C     C_R   0.508976 0.011168 0.919374 0.013041
C20   C     C_R   0.984661 0.497037 0.918454 0.020475
C21   C     C_R   0.501185 0.495419 0.921622 -0.010408
C22   C     C_R   0.921169 0.484666 0.064158 -0.053766
C23   C     C_R   0.553993 0.059363 0.065992 -0.040263
C24   C     C_R   0.489212 0.464209 0.070227 -0.030129
C25   C     C_R   0.399283 0.975750 0.965972 0.042220
C26   C     C_R   0.017868 0.421654 0.965938 0.040445
C27   C     C_R   0.575549 0.608929 0.966727 0.044617
C28   C     C_R   0.983848 0.413847 0.036574 0.009498
C29   C     C_R   0.421462 0.005143 0.037263 0.035085
C30   C     C_R   0.571363 0.592439 0.039249 0.029363
C31   C     C_R   0.669982 0.086589 0.019781 -0.056846
C32   C     C_R   0.896917 0.574559 0.017406 -0.044319
C33   C     C_R   0.405705 0.344135 0.025196 -0.049163
C34   C     C_R   0.906944 0.559132 0.942782 0.002847
C35   C     C_R   0.646845 0.084872 0.945134 -0.002359
C36   C     C_R   0.431432 0.359984 0.950604 -0.014829
C37   C     C_3   0.269977 0.839819 0.977014 -0.230901
C38   C     C_3   0.154549 0.429992 0.981314 -0.232750
C39   C     C_3   0.571907 0.741842 0.971876 -0.224857
C40   C     C_3   0.119708 0.427980 0.059209 -0.237223
C41   C     C_3   0.293458 0.869886 0.055903 -0.230861
C42   C     C_3   0.559668 0.719540 0.051166 -0.272110
C43   C     C_R   0.496243 0.998114 0.576670 0.039966
C44   C     C_R   0.097053 0.558820 0.563001 0.040165
C45   C     C_R   0.479069 0.513657 0.569895 0.046532
C46   C     C_R   0.022438 0.520618 0.418532 -0.013233
C47   C     C_R   0.521738 0.028965 0.428915 0.029607
C48   C     C_R   0.489530 0.496594 0.421815 -0.011642
C49   C     C_R   0.627254 0.072768 0.545732 0.063949
C50   C     C_R   0.070125 0.653030 0.526860 0.006360
C51   C     C_R   0.372771 0.404662 0.532440 0.002242
C52   C     C_R   0.036080 0.636190 0.456202 0.043325
C53   C     C_R   0.638993 0.087468 0.473471 0.056216
C54   C     C_R   0.375424 0.396449 0.460340 0.059791
C55   C     C_R   0.389351 0.971682 0.459822 -0.177947
C56   C     C_R   0.070485 0.437238 0.450668 -0.157421
C57   C     C_R   0.587269 0.618905 0.456863 -0.145125
C58   C     C_R   0.105290 0.454829 0.523442 -0.115629
C59   C     C_R   0.376901 0.957294 0.533674 -0.111042
C60   C     C_R   0.581678 0.627977 0.531094 -0.130242
Cr1   Cr    Cr6+3 0.769160 0.541570 0.250690 1.040917
Cr2   Cr    Cr6+3 0.458430 0.227590 0.250690 1.058098
Cr3   Cr    Cr6+3 0.772410 0.230840 0.250690 1.069499
Cr4   Cr    Cr6+3 0.541570 0.769160 0.749310 1.041312
Cr5   Cr    Cr6+3 0.227590 0.458430 0.749310 1.049000
Cr6   Cr    Cr6+3 0.230840 0.772410 0.749310 1.042716
H1    H     H_    0.280016 0.749336 0.960036 0.088742
H2    H     H_    0.246119 0.529120 0.964035 0.094927
H3    H     H_    0.477378 0.734733 0.947221 0.108849
H4    H     H_    0.100313 0.333884 0.088507 0.233857
H5    H     H_    0.211831 0.885537 0.081692 0.206470
H6    H     H_    0.649088 0.798195 0.081682 0.220649
H7    H     H_    0.178764 0.842465 0.954370 0.236959
H8    H     H_    0.155224 0.334349 0.963665 0.230497
H9    H     H_    0.672561 0.832869 0.955239 0.231391
H10   H     H_    0.188057 0.528144 0.087070 0.123219
H11   H     H_    0.317898 0.796974 0.085011 0.114075
H12   H     H_    0.456038 0.694405 0.072548 0.116515
H13   H     H_    0.296676 0.936553 0.427267 0.154915
H14   H     H_    0.070894 0.353108 0.421442 0.179139
H15   H     H_    0.673530 0.700875 0.427991 0.182495
H16   H     H_    0.128553 0.381814 0.549719 0.169445
H17   H     H_    0.273946 0.907253 0.556744 0.138143
H18   H     H_    0.659453 0.721003 0.557859 0.135724
H19   H     H_    0.744188 0.962439 0.572033 0.147979
H20   H     H_    0.023183 0.814134 0.563610 0.127962
H21   H     H_    0.197898 0.203541 0.567219 0.146467
H22   H     H_    0.823278 0.604926 0.454364 0.161710
H23   H     H_    0.860637 0.177281 0.452359 0.170138
H24   H     H_    0.377444 0.200801 0.443896 0.178590
O1    O     O_R   0.911480 0.572650 0.170990 -0.464953
O2    O     O_R   0.427350 0.338830 0.170990 -0.471902
O3    O     O_R   0.661170 0.088520 0.170990 -0.450782
O4    O     O_R   0.572650 0.911480 0.829010 -0.489746
O5    O     O_R   0.338830 0.427350 0.829010 -0.493020
O6    O     O_R   0.088520 0.661170 0.829010 -0.505322
O7    O     O_R   0.640340 0.528970 0.175680 -0.460601
O8    O     O_R   0.471030 0.111370 0.175680 -0.496233
O9    O     O_R   0.888630 0.359660 0.175680 -0.499288
O10   O     O_R   0.528970 0.640340 0.824320 -0.489574
O11   O     O_R   0.111370 0.471030 0.824320 -0.488201
O12   O     O_R   0.359660 0.888630 0.824320 -0.498369
O13   O     O_R   0.909980 0.572450 0.331530 -0.525023
O14   O     O_R   0.427550 0.337530 0.331530 -0.490155
O15   O     O_R   0.662470 0.090020 0.331530 -0.471144
O16   O     O_R   0.572450 0.909980 0.668470 -0.537526
O17   O     O_R   0.337530 0.427550 0.668470 -0.537241
O18   O     O_R   0.090020 0.662470 0.668470 -0.480038
O19   O     O_R   0.638950 0.528780 0.324500 -0.516718
O20   O     O_R   0.471220 0.110170 0.324500 -0.513669
O21   O     O_R   0.889830 0.361050 0.324500 -0.500302
O22   O     O_R   0.528780 0.638950 0.675500 -0.520707
O23   O     O_R   0.110170 0.471220 0.675500 -0.474936
O24   O     O_R   0.361050 0.889830 0.675500 -0.524917
O25   O     O_3   0.666667 0.333333 0.250560 -0.311526
O26   O     O_3   0.333333 0.666667 0.749440 -0.308385
C61   C     C_2   0.802978 0.090562 0.045193 0.586221
O27   O     O_2   0.904297 0.134111 0.006495 -0.467173
O28   O     O_R   0.810469 0.030842 0.109187 -0.682532
H25   H     H_    0.906286 0.043615 0.119231 0.325736
C62   C     C_2   0.903646 0.707251 0.042791 0.589550
O29   O     O_2   0.973533 0.815789 0.010086 -0.456645
O30   O     O_R   0.837252 0.713372 0.104054 -0.653743
H26   H     H_    0.862551 0.811946 0.117646 0.328753
C63   C     C_2   0.282336 0.210121 0.052252 0.610900
O31   O     O_2   0.236919 0.102634 0.018254 -0.464815
O32   O     O_R   0.208706 0.206715 0.113088 -0.683892
H27   H     H_    0.135866 0.108478 0.127205 0.326210
C64   C     C_2   0.839098 0.606016 0.888764 0.604640
O33   O     O_2   0.840869 0.717191 0.894260 -0.463665
O34   O     O_R   0.776872 0.522248 0.829045 -0.621884
H28   H     H_    0.737365 0.564857 0.794714 0.345564
C65   C     C_2   0.760671 0.150475 0.891558 0.626000
O35   O     O_2   0.766699 0.244008 0.854194 -0.464288
O36   O     O_R   0.846441 0.093554 0.876491 -0.607881
H29   H     H_    0.915543 0.145384 0.837058 0.343517
C66   C     C_2   0.379271 0.240845 0.899876 0.625174
O37   O     O_2   0.463334 0.229567 0.862292 -0.489001
O38   O     O_R   0.235999 0.154992 0.887718 -0.613918
H30   H     H_    0.215446 0.081554 0.850067 0.343153
O39   O     O_3   0.863610 0.180390 0.587520 -0.709909
H31   H     H_    0.844801 0.161441 0.639036 0.353283
O40   O     O_3   0.858759 0.608066 0.585892 -0.665445
H32   H     H_    0.828518 0.663430 0.614782 0.324834
O41   O     O_3   0.395239 0.215092 0.578345 -0.711791
H33   H     H_    0.370865 0.205742 0.629506 0.348825
O42   O     O_3   0.977404 0.814762 0.432484 -0.773395
H34   H     H_    0.927401 0.794019 0.386348 0.348269
O43   O     O_3   0.752048 0.959351 0.438177 -0.724574
H35   H     H_    0.844648 0.965023 0.439679 0.349595
O44   O     O_3   0.175502 0.175884 0.433341 -0.725380
H36   H     H_    0.138339 0.074380 0.439635 0.358997

loop_
_geom_bond_atom_site_label_1
_geom_bond_atom_site_label_2
_ccdc_geom_bond_type
C45   C60   A    
Cr4   O26   S    
C55   C59   A    
C61   O27   D    
Cr6   O12   S    
C44   C58   A    
O42   H34   S    
C9    C51   S    
Cr5   O11   S    
C10   C52   S    
C35   C65   S    
O41   H33   S    
C18   C43   S    
C17   O23   A    
O30   H26   S    
C5    C20   S    
C7    H19   S    
C48   C54   A    
C6    C19   S    
C66   O38   S    
C10   H22   S    
Cr6   O26   S    
C23   C29   A    
C12   H24   S    
Cr1   O13   S    
Cr1   O1    S    
C59   H17   S    
C58   H16   S    
C41   H11   S    
Cr4   O22   S    
C45   C51   A    
O40   H32   S    
C46   C52   A    
C33   C36   A    
C3    O1    A    
Cr3   O9    S    
C31   C61   S    
C13   O19   A    
C16   O17   A    
C25   C37   S    
Cr2   O8    S    
C11   O43   S    
C14   O15   A    
C34   C64   S    
C27   C39   S    
C6    O4    A    
Cr2   O2    S    
Cr1   O25   S    
C50   C52   A    
O44   H36   S    
C39   H9    S    
Cr3   O15   S    
C36   C66   S    
C8    H20   S    
C11   C53   S    
C43   C59   A    
C10   O42   S    
C47   C53   A    
Cr3   O25   S    
O36   H29   S    
C21   C27   A    
Cr1   O19   S    
C22   C28   A    
C27   C30   A    
C37   C41   S    
C12   O44   S    
C18   O24   A    
C33   C63   S    
C39   C42   S    
Cr2   O14   S    
C25   C29   A    
C5    O11   A    
Cr6   O6    S    
C15   O21   A    
C48   C57   A    
C7    C49   S    
C17   O18   A    
C1    O7    A    
C21   C36   A    
C26   C38   S    
C57   C60   A    
C40   H10   S    
C23   C31   A    
C7    C11   S    
C18   O16   A    
C4    O5    A    
C55   H13   S    
C11   H23   S    
Cr2   O20   S    
Cr5   O5    S    
O28   H25   S    
C42   H6    S    
C39   H3    S    
Cr1   O7    S    
C13   O14   A    
C62   O29   D    
C22   C32   A    
C38   H2    S    
C42   H12   S    
C1    O2    A    
C4    O10   A    
C63   O31   D    
Cr5   O26   S    
C31   C35   A    
O34   H28   S    
C8    C50   S    
C7    O39   S    
C5    O6    A    
C16   O22   A    
C47   C55   A    
C64   O33   D    
C38   H8    S    
C44   C50   A    
C14   O20   A    
C37   H7    S    
Cr6   O24   S    
C29   C41   S    
Cr5   O23   S    
C32   C62   S    
C2    O3    A    
C43   C49   A    
Cr6   O18   S    
C16   C45   S    
C13   C48   S    
O38   H30   S    
Cr4   O16   S    
C14   C47   S    
C66   O37   D    
Cr3   O3    S    
C40   H4    S    
C26   C28   A    
C24   C33   A    
C56   H14   S    
C41   H5    S    
C51   C54   A    
C61   O28   S    
C17   C44   S    
C20   C34   A    
Cr2   O25   S    
C19   C35   A    
O43   H35   S    
C9    H21   S    
C38   C40   S    
C4    C21   S    
C60   H18   S    
C65   O35   D    
C20   C26   A    
C49   C53   A    
C37   H1    S    
C9    O41   S    
C56   C58   A    
C8    O40   S    
C57   H15   S    
C6    O12   A    
Cr3   O21   S    
C19   C25   A    
C9    C12   S    
C24   C30   A    
C62   O30   S    
Cr4   O4    S    
C3    O9    A    
Cr4   O10   S    
C2    O8    A    
C1    C24   S    
C8    C10   S    
C46   C56   A    
C2    C23   S    
C63   O32   S    
C65   O36   S    
C28   C40   S    
C30   C42   S    
C3    C22   S    
C15   C46   S    
C15   O13   A    
O39   H31   S    
Cr5   O17   S    
C12   C54   S    
O32   H27   S    
C32   C34   A    
C64   O34   S    
