data_mof_unit_42035.cif
_audit_creation_date              2012-10-26T21:04:54-0400
_audit_creation_method            fapswitch 2.2
_symmetry_space_group_name_H-M    P1
_symmetry_Int_Tables_number       1
_space_group_crystal_system       triclinic
_cell_length_a                    11.686692
_cell_length_b                    12.476164
_cell_length_c                    13.046444
_cell_angle_alpha                 117.095813
_cell_angle_beta                  75.057536
_cell_angle_gamma                 101.869048
_cell_volume                      1627.56514938

loop_
_atom_site_label
_atom_site_type_symbol
_atom_type_description
_atom_site_fract_x
_atom_site_fract_y
_atom_site_fract_z
_atom_type_partial_charge
Br1   Br    Br    0.219714 0.872360 0.714242 -0.368872
Br2   Br    Br    0.312692 0.469112 0.722051 -0.413809
Br3   Br    Br    0.684448 0.697095 0.317356 -0.547544
Br4   Br    Br    0.580745 0.986785 0.102439 -0.499504
Br5   Br    Br    0.602750 0.510268 0.752231 -0.341959
Br6   Br    Br    0.672823 0.795704 0.836066 -0.375281
Br7   Br    Br    0.781554 0.134990 0.288073 -0.351409
C1    C     C_R   0.508549 0.855573 0.284782 0.621687
C2    C     C_R   0.330858 0.494176 0.163043 -0.091607
C3    C     C_R   0.365953 0.615703 0.191546 0.304801
C4    C     C_R   0.715736 0.001289 0.500708 0.577880
C5    C     C_R   0.531426 0.342411 0.880343 0.274596
C6    C     C_R   0.385452 0.194255 0.924442 0.228251
C7    C     C_R   0.510736 0.775241 0.156927 -0.021821
C8    C     C_R   0.725706 0.376167 0.381565 0.258869
C9    C     C_R   0.328008 0.750323 0.637224 0.280955
C10   C     C_R   0.292448 0.657303 0.672195 -0.104125
C11   C     C_R   0.359726 0.562551 0.630991 0.188234
C12   C     C_R   0.470207 0.225965 0.841822 0.027186
C13   C     C_R   0.464231 0.555396 0.545090 -0.000416
C14   C     C_R   0.504758 0.658113 0.515524 0.130024
C15   C     C_R   0.534249 0.453865 0.491323 -0.015248
C16   C     C_R   0.487256 0.144667 0.715053 0.582839
C17   C     C_R   0.654892 0.472721 0.442631 -0.042125
C18   C     C_R   0.700646 0.584162 0.441954 -0.063754
C19   C     C_R   0.623998 0.660094 0.450635 0.171326
C20   C     C_R   0.489791 0.333038 0.478144 0.435278
C21   C     C_R   0.680578 0.263908 0.381757 0.311482
C22   C     C_R   0.283991 0.000298 0.501551 0.564411
C23   C     C_R   0.565175 0.817470 0.069957 0.142947
C24   C     C_1   0.837693 0.003202 0.501698 0.056402
C25   C     C_1   0.939951 0.003142 0.502814 0.006171
C26   C     C_1   0.059319 0.001959 0.503771 -0.011615
C27   C     C_1   0.161723 0.000710 0.503496 0.030161
C28   C     C_R   0.344693 0.284678 0.033716 -0.128314
C29   C     C_3   0.397467 0.025216 0.942097 -0.047683
C30   C     C_3   0.835430 0.370419 0.207680 -0.103725
C31   C     C_3   0.337608 0.260682 0.379162 -0.094449
C32   C     C_3   0.721596 0.368577 0.908003 -0.096201
C33   C     C_3   0.208241 0.719823 0.239218 -0.109488
C34   C     C_R   0.596261 0.734717 0.952801 0.209722
C35   C     C_R   0.571846 0.609147 0.919747 0.208066
C36   C     C_R   0.508483 0.564826 0.005094 -0.023988
C37   C     C_R   0.464174 0.652006 0.119879 -0.039410
C38   C     C_R   0.476319 0.438918 0.980065 0.035338
C39   C     C_R   0.384876 0.406180 0.059640 -0.089143
Cu1   Cu    Cu3+1 0.526510 0.098270 0.475420 1.141958
Cu2   Cu    Cu3+1 0.473490 0.901730 0.524580 1.114926
H1    H     H_    0.794055 0.598352 0.405750 0.196937
H2    H     H_    0.927490 0.381202 0.160343 0.160601
H3    H     H_    0.241086 0.229537 0.386500 0.163004
H4    H     H_    0.386156 0.183372 0.309285 0.138876
H5    H     H_    0.353262 0.337213 0.353770 0.093172
H6    H     H_    0.699900 0.293097 0.935457 0.102245
H7    H     H_    0.713307 0.457180 0.986129 0.142586
H8    H     H_    0.816051 0.367115 0.862696 0.174797
H9    H     H_    0.157662 0.634334 0.186529 0.132135
H10   H     H_    0.249782 0.771697 0.186235 0.119586
H11   H     H_    0.142711 0.774706 0.313660 0.151989
H12   H     H_    0.212363 0.661789 0.737715 0.176574
H13   H     H_    0.256946 0.469033 0.220605 0.140341
H14   H     H_    0.276377 0.259971 0.095562 0.142315
H15   H     H_    0.361849 0.928867 0.916783 0.180733
H16   H     H_    0.382497 0.071282 0.039564 0.124466
H17   H     H_    0.494519 0.027454 0.904377 0.165026
H18   H     H_    0.784468 0.436729 0.208098 0.121248
H19   H     H_    0.796227 0.276922 0.157699 0.171038
N1    N     N_R   0.566700 0.246290 0.438210 -0.252506
N2    N     N_R   0.434010 0.754320 0.561170 -0.224403
O1    O     O_R   0.533340 0.972510 0.318140 -0.454934
O2    O     O_3   0.840453 0.391329 0.322514 -0.539173
O3    O     O_3   0.369292 0.297504 0.488546 -0.494281
O4    O     O_3   0.650122 0.354195 0.829491 -0.520186
O5    O     O_3   0.294642 0.698238 0.283967 -0.548307
O6    O     O_R   0.488570 0.806530 0.359650 -0.423363
O7    O     O_R   0.685190 0.083000 0.479260 -0.462070
O8    O     O_R   0.640410 0.917020 0.520770 -0.479841
O9    O     O_R   0.511430 0.193470 0.640350 -0.436401
O10   O     O_R   0.466660 0.027490 0.681860 -0.464314
O11   O     O_R   0.359590 0.082980 0.479230 -0.467596
O12   O     O_R   0.314810 0.917000 0.520740 -0.439764
O13   O     O_3   0.336963 0.076429 0.897332 -0.512552

loop_
_geom_bond_atom_site_label_1
_geom_bond_atom_site_label_2
_ccdc_geom_bond_type
C14   C19   A    
Br2   C11   S    
C34   C35   A    
Cu2   N2    S    
Br5   C35   S    
C24   C25   T    
C38   C39   A    
C22   O11   A    
C2    H13   S    
Cu2   O10   S    
C21   N1    A    
Cu1   O7    S    
C6    C28   A    
C4    O7    A    
C32   H6    S    
C31   H4    S    
Cu2   O12   S    
C20   N1    A    
C4    O8    A    
C32   H7    S    
Cu1   Cu2   S    
C29   O13   S    
C9    C10   A    
Br6   C34   S    
C23   C34   A    
C29   H15   S    
C2    C3    A    
C4    C24   S    
C2    C39   A    
C33   H11   S    
C5    O4    S    
Cu2   O6    S    
Cu1   O11   S    
C7    C23   A    
C10   C11   A    
C31   O3    S    
C33   H10   S    
C6    C12   A    
C3    C37   A    
C17   C18   A    
C29   H17   S    
C31   H3    S    
C18   C19   A    
C6    O13   S    
C1    O6    A    
Br7   C21   S    
C14   N2    A    
Cu2   O8    S    
C12   C16   S    
C36   C37   A    
C22   C27   S    
Cu1   O1    S    
C22   O12   A    
C32   H8    S    
C30   H18   S    
C26   C27   T    
Br1   C9    S    
C36   C38   A    
C8    C17   A    
C13   C15   A    
C15   C20   A    
C30   O2    S    
C15   C17   A    
C35   C36   A    
Cu1   N1    S    
C7    C37   A    
C1    C7    S    
C33   H9    S    
Br3   C19   S    
C9    N2    A    
C5    C38   A    
C8    O2    S    
C1    O1    A    
C25   C26   S    
C30   H2    S    
C3    O5    S    
C8    C21   A    
C31   H5    S    
C30   H19   S    
C5    C12   A    
C33   O5    S    
C28   H14   S    
C11   C13   A    
C32   O4    S    
C16   O9    A    
C18   H1    S    
C10   H12   S    
C13   C14   A    
Cu1   O9    S    
C16   O10   A    
C29   H16   S    
C28   C39   A    
Br4   C23   S    
C20   O3    S    
