data_mof_unit_53238.cif
_audit_creation_date              2012-10-26T20:42:52-0400
_audit_creation_method            fapswitch 2.2
_symmetry_space_group_name_H-M    P1
_symmetry_Int_Tables_number       1
_space_group_crystal_system       triclinic
_cell_length_a                    10.811476
_cell_length_b                    9.524034
_cell_length_c                    15.096364
_cell_angle_alpha                 90.127693
_cell_angle_beta                  90.816495
_cell_angle_gamma                 90.08444
_cell_volume                      1554.29201025

loop_
_atom_site_label
_atom_site_type_symbol
_atom_type_description
_atom_site_fract_x
_atom_site_fract_y
_atom_site_fract_z
_atom_type_partial_charge
C1    C     C_R   0.262201 0.500064 0.502246 0.566872
C2    C     C_R   0.128311 0.500305 0.503811 0.034541
C3    C     C_R   0.421061 0.074091 0.445731 0.029445
C4    C     C_R   0.578850 0.926154 0.554141 0.032118
C5    C     C_R   0.578892 0.074826 0.554197 0.029424
C6    C     C_R   0.421053 0.925253 0.445743 0.034515
C7    C     C_R   0.497863 0.499821 0.328973 0.576673
C8    C     C_R   0.503254 0.500000 0.670705 0.573338
C9    C     C_R   0.616053 0.520361 0.813531 0.105086
C10   C     C_R   0.392166 0.458033 0.184033 0.115228
C11   C     C_R   0.503883 0.499192 0.766944 -0.010691
C12   C     C_R   0.737905 0.500084 0.500627 0.552253
C13   C     C_R   0.498299 0.500773 0.232299 0.012193
C14   C     C_R   0.392880 0.473953 0.811006 0.033277
C15   C     C_R   0.607058 0.540036 0.188552 0.028164
C16   C     C_R   0.392535 0.475203 0.904069 -0.028518
C17   C     C_R   0.610788 0.531528 0.095347 -0.027842
C18   C     C_R   0.504130 0.498509 0.952513 -0.006847
C19   C     C_R   0.501304 0.502303 0.046357 0.000853
C20   C     C_R   0.618124 0.516690 0.907555 0.031075
C21   C     C_R   0.389011 0.475891 0.091117 0.006574
C22   C     C_R   0.281025 0.460984 0.949459 -0.079766
C23   C     C_R   0.277510 0.464747 0.041208 0.062738
C24   C     C_R   0.722312 0.548901 0.050450 -0.113028
C25   C     C_3   0.754005 0.692703 0.747120 -0.267732
C26   C     C_3   0.219399 0.431318 0.289231 -0.245482
C27   C     C_2   0.277077 0.448949 0.758779 0.560239
C28   C     C_2   0.719197 0.577870 0.241465 0.566478
C29   C     C_2   0.153739 0.476835 0.080572 0.588959
C30   C     C_2   0.855031 0.523671 0.922150 0.611978
C31   C     C_R   0.728892 0.533443 0.958792 0.071152
C32   C     C_R   0.063933 0.373373 0.511728 -0.141179
C33   C     C_R   0.936152 0.627348 0.495456 -0.129277
C34   C     C_R   0.936064 0.373318 0.510838 -0.130542
C35   C     C_R   0.064000 0.627368 0.496164 -0.116079
C36   C     C_R   0.871757 0.500251 0.502283 0.020715
Cu1   Cu    Cu3+1 0.500000 0.640660 0.500000 0.997968
Cu2   Cu    Cu3+1 0.500000 0.359340 0.500000 0.983599
H1    H     H_    0.193737 0.453658 0.913714 0.178175
H2    H     H_    0.357822 0.868918 0.402278 0.112743
H3    H     H_    0.741210 0.480158 0.712287 0.259524
H4    H     H_    0.846860 0.718358 0.774842 0.196928
H5    H     H_    0.685097 0.765055 0.776635 0.153536
H6    H     H_    0.756412 0.710002 0.674577 0.128794
H7    H     H_    0.265606 0.289513 0.188020 0.271726
H8    H     H_    0.123234 0.431570 0.262715 0.178395
H9    H     H_    0.246278 0.540338 0.307545 0.158134
H10   H     H_    0.219553 0.363374 0.348378 0.147294
H11   H     H_    0.138238 0.315908 0.726769 0.338026
H12   H     H_    0.807678 0.567004 0.087087 0.178356
H13   H     H_    0.886217 0.518209 0.288959 0.338720
H14   H     H_    0.983758 0.393044 0.094113 0.355465
H15   H     H_    0.976785 0.411216 0.851166 0.351589
H16   H     H_    0.112126 0.274204 0.518169 0.135495
H17   H     H_    0.888026 0.726547 0.488912 0.146284
H18   H     H_    0.887854 0.274074 0.516798 0.137062
H19   H     H_    0.112170 0.726590 0.489948 0.136983
H20   H     H_    0.357863 0.129913 0.402239 0.117807
H21   H     H_    0.642020 0.870901 0.597466 0.094297
H22   H     H_    0.642151 0.131138 0.597655 0.111633
N1    N     N_R   0.500000 0.852070 0.500000 -0.222563
N2    N     N_R   0.500000 0.147930 0.500000 -0.228267
N3    N     N_2   0.725823 0.546829 0.764948 -0.487973
N4    N     N_2   0.302299 0.370623 0.225431 -0.516184
O1    O     O_R   0.319640 0.618740 0.499990 -0.504759
O2    O     O_R   0.215353 0.320475 0.765697 -0.689919
O3    O     O_2   0.726574 0.693245 0.276796 -0.484631
O4    O     O_R   0.815172 0.480708 0.251212 -0.706527
O5    O     O_2   0.128018 0.580449 0.124538 -0.493453
O6    O     O_R   0.064816 0.373201 0.063625 -0.672962
O7    O     O_2   0.931578 0.614801 0.939317 -0.497296
O8    O     O_R   0.888147 0.406406 0.871928 -0.654003
O9    O     O_R   0.680360 0.381260 0.500010 -0.513236
O10   O     O_R   0.680360 0.618740 0.500010 -0.504879
O11   O     O_R   0.319640 0.381260 0.499990 -0.519089
O12   O     O_R   0.499970 0.618800 0.370260 -0.486209
O13   O     O_R   0.500030 0.381200 0.629740 -0.498866
O14   O     O_R   0.500030 0.618800 0.629740 -0.485264
O15   O     O_R   0.499970 0.381200 0.370260 -0.479764
O16   O     O_2   0.236267 0.540831 0.710137 -0.509589

loop_
_geom_bond_atom_site_label_1
_geom_bond_atom_site_label_2
_ccdc_geom_bond_type
C2    C35   A    
C33   H17   S    
Cu1   O10   S    
C34   H18   S    
C12   O10   A    
C3    C6    A    
C25   H5    S    
C30   O7    D    
C23   C29   S    
C6    N1    A    
C28   O4    S    
C18   C19   A    
C6    H2    S    
C30   C31   S    
C11   C14   A    
Cu2   O15   S    
C33   C36   A    
C2    C32   A    
C1    C2    S    
C25   N3    S    
C26   N4    S    
C33   C35   A    
Cu1   O1    S    
C1    O1    A    
C14   C27   S    
C12   C36   S    
C18   C20   A    
C26   H10   S    
C12   O9    A    
C8    O14   A    
C25   H6    S    
C32   H16   S    
C29   O5    D    
Cu2   O11   S    
C10   C21   A    
C24   H12   S    
C17   C24   A    
H11   O2    S    
C1    O11   A    
C28   O3    D    
C27   O16   D    
C4    N1    A    
C32   C34   A    
Cu1   Cu2   S    
C9    C20   A    
C30   O8    S    
C9    C11   A    
C26   H9    S    
Cu1   O12   S    
C21   C23   A    
C8    O13   A    
C14   C16   A    
H3    N3    S    
C7    O15   A    
C29   O6    S    
C3    N2    A    
C15   C17   A    
C16   C22   A    
C5    H22   S    
C19   C21   A    
C9    N3    S    
C10   N4    S    
C4    C5    A    
C10   C13   A    
C25   H4    S    
Cu1   N1    S    
C7    O12   A    
Cu2   O13   S    
Cu1   O14   S    
H7    N4    S    
C35   H19   S    
C13   C15   A    
C24   C31   A    
C27   O2    S    
C15   C28   S    
C8    C11   S    
C22   H1    S    
C4    H21   S    
C17   C19   A    
C5    N2    A    
C34   C36   A    
H13   O4    S    
H14   O6    S    
C26   H8    S    
C3    H20   S    
C7    C13   S    
C16   C18   A    
C22   C23   A    
H15   O8    S    
C20   C31   A    
Cu2   N2    S    
Cu2   O9    S    
