data_mof_unit_14072.cif
_audit_creation_date              2013-03-05T15:46:52-0500
_audit_creation_method            fapswitch 2.2
_symmetry_space_group_name_H-M    P1
_symmetry_Int_Tables_number       1
_space_group_crystal_system       triclinic
_cell_length_a                    15.003358
_cell_length_b                    15.078387
_cell_length_c                    15.030165
_cell_angle_alpha                 108.689936
_cell_angle_beta                  108.757505
_cell_angle_gamma                 110.223409
_cell_volume                      2640.75756304

loop_
_atom_site_label
_atom_site_type_symbol
_atom_site_description
_atom_site_fract_x
_atom_site_fract_y
_atom_site_fract_z
_atom_type_partial_charge
C1    C     C_R   0.253544 0.066575 0.973834 -0.160259
C2    C     C_R   0.800207 0.999135 0.091610 -0.202971
H1    H     H_    0.234020 0.111258 0.934602 0.161002
H2    H     H_    0.826371 0.971087 0.147563 0.156577
N1    N     N_R   0.293810 0.002730 0.945950 -0.087280
N2    N     N_R   0.706190 0.997270 0.054050 -0.075167
C3    C     C_R   0.774624 0.219509 0.311843 -0.187768
C4    C     C_R   0.200320 0.786452 0.698627 -0.154371
H3    H     H_    0.804273 0.197604 0.371723 0.186991
H4    H     H_    0.170364 0.808679 0.638936 0.176585
N3    N     N_R   0.706160 0.152130 0.208910 -0.052259
N4    N     N_R   0.293840 0.847870 0.791090 -0.065881
C5    C     C_R   0.407211 0.886862 0.195900 0.674322
C6    C     C_R   0.585858 0.012068 0.775028 0.585715
N5    N     N_R   0.443140 0.945920 0.152090 -0.142694
N6    N     N_R   0.556860 0.054080 0.847910 -0.154514
C7    C     C_R   0.589292 0.290692 0.983127 -0.093472
C8    C     C_R   0.411915 0.686284 0.943415 -0.160760
H5    H     H_    0.669489 0.335052 0.994801 0.143917
H6    H     H_    0.329403 0.620100 0.895359 0.149739
N7    N     N_R   0.556830 0.208940 0.002760 -0.040856
N8    N     N_R   0.443170 0.791060 0.997240 -0.041413
C9    C     C_R   0.583933 0.996012 0.300013 0.522629
C10   C     C_R   0.409542 0.952963 0.686051 0.512853
N9    N     N_R   0.556790 0.002750 0.208910 -0.133744
N10   N     N_R   0.443210 0.997250 0.791090 -0.142164
C11   C     C_R   0.410084 0.207822 0.902949 -0.104894
C12   C     C_R   0.594101 0.781306 0.031103 -0.095025
H7    H     H_    0.326504 0.181550 0.851244 0.094456
H8    H     H_    0.678445 0.805065 0.059932 0.151035
N11   N     N_R   0.443180 0.152110 0.945950 -0.041753
N12   N     N_R   0.556820 0.847890 0.054050 -0.060530
C13   C     C_R   0.771509 0.314374 0.223681 0.298492
C14   C     C_R   0.200511 0.699134 0.793334 0.295793
N13   N     N_R   0.706170 0.208950 0.152090 -0.089932
N14   N     N_R   0.293830 0.791050 0.847910 -0.072295
C15   C     C_R   0.262313 0.983607 0.072986 0.590520
C16   C     C_R   0.806104 0.094169 0.006310 0.686414
N15   N     N_R   0.293800 0.945910 0.002760 -0.084613
N16   N     N_R   0.706200 0.054090 0.997240 -0.106278
C17   C     C_R   0.231851 0.055395 0.053059 -0.055818
C18   C     C_R   0.861290 0.054283 0.057468 -0.074229
C19   C     C_R   0.811283 0.321117 0.323361 -0.051274
C20   C     C_R   0.142750 0.693977 0.699383 -0.066248
C21   C     C_R   0.491358 0.921924 0.294256 -0.332243
C22   C     C_R   0.497883 0.957797 0.672184 -0.237418
C23   C     C_R   0.500907 0.294298 0.924012 0.030042
C24   C     C_R   0.505944 0.679042 0.967068 0.030998
Ni1   Ni    Ni4+2 0.369690 0.999990 0.869700 0.180230
Ni2   Ni    Ni4+2 0.630310 0.000010 0.130300 0.205455
Ni3   Ni    Ni4+2 0.369670 0.869670 0.000000 0.299566
Ni4   Ni    Ni4+2 0.630330 0.130330 0.000000 0.202209
H9    H     H_    0.125176 0.067558 0.437125 0.112948
H10   H     H_    0.908982 0.916776 0.415750 0.112834
C25   C     C_R   0.296627 0.177703 0.545366 -0.083686
C26   C     C_R   0.737774 0.801477 0.314294 -0.065635
H11   H     H_    0.319709 0.151995 0.484646 0.112297
H12   H     H_    0.717349 0.830139 0.376233 0.122959
C27   C     C_R   0.376535 0.258645 0.650596 -0.160055
C28   C     C_R   0.656127 0.715217 0.212320 -0.140028
H13   H     H_    0.461061 0.296500 0.669976 0.128886
H14   H     H_    0.572641 0.678012 0.195977 0.119114
C29   C     C_R   0.346906 0.292693 0.729477 0.097003
C30   C     C_R   0.682736 0.676579 0.132179 0.065287
C31   C     C_R   0.236557 0.245278 0.701794 -0.163952
C32   C     C_R   0.792074 0.723734 0.156093 -0.084883
H15   H     H_    0.212291 0.272764 0.761066 0.140104
H16   H     H_    0.814054 0.693559 0.095644 0.174751
C33   C     C_R   0.156991 0.163574 0.596833 -0.127173
C34   C     C_R   0.873194 0.810871 0.257754 -0.096125
H17   H     H_    0.072032 0.127068 0.575870 0.131464
H18   H     H_    0.957132 0.847779 0.275436 0.142879
C35   C     C_R   0.186920 0.130286 0.518492 -0.112444
C36   C     C_R   0.846038 0.849812 0.336800 -0.104831
C37   C     C_R   0.431934 0.486688 0.851882 -0.213887
C38   C     C_R   0.595893 0.487171 0.006087 -0.189970
H19   H     H_    0.370146 0.487899 0.790826 0.135452
H20   H     H_    0.657799 0.488837 0.069737 0.176769
C39   C     C_R   0.512949 0.582237 0.947459 0.085417
C40   C     C_R   0.509737 0.389698 0.915869 0.056748
C41   C     C_R   0.597469 0.582755 0.024877 0.028500
C42   C     C_R   0.429322 0.389283 0.834846 0.030190
C43   C     C_R   0.881003 0.508289 0.450470 -0.096592
C44   C     C_R   0.058516 0.504645 0.582764 -0.114435
H21   H     H_    0.811237 0.508477 0.399234 0.155804
H22   H     H_    0.128688 0.503704 0.632329 0.127388
C45   C     C_R   0.962813 0.601306 0.544664 -0.150016
C46   C     C_R   0.978704 0.413281 0.488544 -0.180521
H23   H     H_    0.958508 0.674936 0.566376 0.130467
H24   H     H_    0.987088 0.341957 0.465964 0.126724
C47   C     C_R   0.050971 0.598350 0.609390 0.180219
C48   C     C_R   0.891291 0.415951 0.422167 0.169128
C49   C     C_R   0.594072 0.945198 0.559911 0.358405
C50   C     C_R   0.388450 0.843080 0.381975 0.311858
C51   C     C_R   0.582443 0.915610 0.458013 -0.288570
C52   C     C_R   0.398388 0.842814 0.476523 -0.220010
H25   H     H_    0.655069 0.936922 0.450797 0.218575
H26   H     H_    0.325017 0.802688 0.479214 0.226592
C53   C     C_R   0.484509 0.886710 0.374181 0.002127
C54   C     C_R   0.498812 0.911708 0.570263 0.000022
C55   C     C_R   0.049641 0.962418 0.019981 -0.211281
C56   C     C_R   0.050661 0.156868 0.104696 -0.225304
H27   H     H_    0.047942 0.886562 0.983909 0.204728
H28   H     H_    0.049568 0.231698 0.136620 0.175674
C57   C     C_R   0.957865 0.959413 0.020582 0.336371
C58   C     C_R   0.143757 0.159370 0.104452 0.348327
C59   C     C_R   0.958673 0.057289 0.063016 0.018343
C60   C     C_R   0.142148 0.061312 0.062141 -0.041956
Br1   Br    Br    0.741078 0.051693 0.672172 -0.482714
Br2   Br    Br    0.242780 0.800463 0.284215 -0.460050
Br3   Br    Br    0.832999 0.818392 0.954165 -0.609945
Br4   Br    Br    0.269829 0.295798 0.161770 -0.559639
O1    O     O_3   0.316261 0.783945 0.129945 -0.534551
C61   C     C_3   0.343403 0.702613 0.129809 -0.019714
H29   H     H_    0.426327 0.724231 0.140451 0.052727
H30   H     H_    0.284734 0.627726 0.051679 0.181673
H31   H     H_    0.335693 0.682542 0.192629 0.149806
O2    O     O_3   0.663017 0.980799 0.797696 -0.558549
C62   C     C_3   0.613563 0.871219 0.773362 -0.126100
H32   H     H_    0.568568 0.816004 0.685226 0.137445
H33   H     H_    0.558856 0.853683 0.808546 0.098837
H34   H     H_    0.678335 0.853924 0.808545 0.211128
O3    O     O_3   0.686744 0.060087 0.387592 -0.633622
C63   C     C_3   0.687317 0.145686 0.463239 -0.218847
H35   H     H_    0.631643 0.116422 0.494104 0.165778
H36   H     H_    0.665234 0.195038 0.428735 0.128990
H37   H     H_    0.770671 0.199598 0.532902 0.199084
O4    O     O_3   0.307659 0.919257 0.607148 -0.623651
C64   C     C_3   0.274413 0.994303 0.642353 -0.206072
H38   H     H_    0.336408 0.077228 0.668286 0.150829
H39   H     H_    0.257628 0.993498 0.708923 0.122955
H40   H     H_    0.197778 0.971406 0.574445 0.180160
Br5   Br    Br    0.825845 0.432738 0.197049 -0.643703
Br6   Br    Br    0.137201 0.621245 0.855685 -0.525848
O5    O     O_3   0.249937 0.945537 0.143201 -0.574685
C65   C     C_3   0.284449 0.032210 0.243143 -0.183057
H41   H     H_    0.216437 0.046388 0.242328 0.154657
H42   H     H_    0.356472 0.108353 0.266918 0.103913
H43   H     H_    0.309830 0.010674 0.307067 0.184976
O6    O     O_3   0.842691 0.153064 0.959053 -0.571850
C66   C     C_3   0.841814 0.250257 0.999424 -0.110306
H44   H     H_    0.894963 0.298600 0.088133 0.141110
H45   H     H_    0.758011 0.235383 0.975823 0.116193
H46   H     H_    0.875346 0.298510 0.964124 0.202225

loop_
_geom_bond_atom_site_label_1
_geom_bond_atom_site_label_2
_geom_bond_distance
_ccdc_geom_bond_type
C43   C45   1.377570 A    
C29   C31   1.404727 A    
C9    C21   1.404510 A    
C17   C60   1.425238 S    
C45   C47   1.392419 A    
C11   H7    1.079755 S    
C32   H16   1.082921 S    
O4    C64   1.409071 S    
C61   H29   1.112630 S    
O5    C65   1.416438 S    
C6    C22   1.389834 A    
C58   Br4   1.917760 S    
C3    N3    1.315267 A    
C43   C48   1.398041 A    
C57   C59   1.401560 A    
N6    Ni4   1.892437 S    
N8    N12   1.398350 A    
C1    N1    1.331808 A    
C38   H20   1.084222 S    
C24   C39   1.441810 S    
C44   H22   1.084563 S    
C16   C18   1.367366 A    
C25   C27   1.400070 A    
C66   H45   1.106437 S    
C56   H28   1.083739 S    
C51   C53   1.396860 A    
N5    N9    1.398352 A    
C14   Br6   1.914792 S    
C28   H14   1.082578 S    
C33   H17   1.082842 S    
O2    C62   1.415965 S    
C7    H5    1.076339 S    
N15   Ni3   1.877095 S    
H10   C36   1.082409 S    
C46   C48   1.392025 A    
C6    O2    1.380275 S    
C52   H26   1.078580 S    
C34   C36   1.397111 A    
C15   O5    1.385043 S    
C33   C35   1.398963 A    
C44   C47   1.395215 A    
N5    Ni3   1.892434 S    
N4    N14   1.390068 A    
C18   C59   1.420282 S    
C14   N14   1.321054 A    
C64   H40   1.108132 S    
C55   C60   1.396191 A    
C57   Br3   1.926232 S    
C55   H27   1.084609 S    
N6    N10   1.398352 A    
N1    Ni1   1.858088 S    
C2    N2    1.326449 A    
C23   C40   1.446813 S    
N11   Ni1   1.882665 S    
C65   H43   1.106215 S    
N4    Ni1   1.883074 S    
C62   H33   1.114449 S    
C55   C57   1.365003 A    
C49   C51   1.382583 A    
C27   H13   1.083668 S    
C26   C36   1.397925 A    
C29   C42   1.474967 S    
C11   N11   1.341612 A    
C13   C19   1.377135 A    
C7    C23   1.368906 A    
O3    C63   1.415705 S    
C14   C20   1.359084 A    
O6    C66   1.401663 S    
C40   C42   1.408434 A    
C21   C53   1.478522 S    
N10   Ni1   1.858173 S    
C39   C41   1.414369 A    
C9    O3    1.376320 S    
C31   H15   1.083627 S    
N16   Ni4   1.877094 S    
C50   Br2   1.925399 S    
C7    N7    1.324506 A    
C26   C28   1.398128 A    
C1    H1    1.080474 S    
C30   C32   1.405837 A    
C2    H2    1.081950 S    
N9    Ni2   1.858171 S    
N7    N11   1.398348 A    
C12   N12   1.315359 A    
C4    N4    1.334339 A    
C56   C59   1.400039 A    
N2    Ni2   1.858089 S    
C50   C52   1.381841 A    
C37   H19   1.084985 S    
C49   C54   1.419952 A    
N12   Ni2   1.882665 S    
N14   Ni3   1.892991 S    
C63   H37   1.109331 S    
C65   H42   1.115576 S    
C43   H21   1.083389 S    
C46   H24   1.083808 S    
C3    C19   1.365992 A    
C25   H11   1.082796 S    
N2    N16   1.389947 A    
C66   H46   1.109037 S    
C5    C21   1.376996 A    
C63   H36   1.113448 S    
O1    C61   1.419149 S    
C62   H34   1.106846 S    
C11   C23   1.373617 A    
C3    H3    1.073136 S    
N1    N15   1.389947 A    
C22   C54   1.472407 S    
C12   C24   1.368777 A    
C6    N6    1.357511 A    
C8    N8    1.339781 A    
H9    C35   1.082902 S    
C38   C40   1.397033 A    
C10   N10   1.331081 A    
C65   H41   1.109746 S    
C8    C24   1.391889 A    
C38   C41   1.367046 A    
C1    C17   1.375582 A    
C61   H30   1.107741 S    
C62   H32   1.110478 S    
C51   H25   1.076383 S    
C37   C42   1.391729 A    
C27   C29   1.404801 A    
C19   C48   1.413130 S    
C28   C30   1.403577 A    
C10   C22   1.387839 A    
C5    N5    1.337673 A    
C64   H38   1.109476 S    
C12   H8    1.073271 S    
C15   N15   1.334977 A    
N3    Ni2   1.883074 S    
C66   H44   1.111935 S    
C16   N16   1.349077 A    
C32   C34   1.397880 A    
C44   C46   1.362273 A    
C58   C60   1.397841 A    
C50   C53   1.423411 A    
C2    C18   1.357849 A    
C31   C33   1.399294 A    
C52   C54   1.396048 A    
N3    N13   1.390068 A    
C13   N13   1.339308 A    
C26   H12   1.079141 S    
C56   C58   1.385374 A    
C8    H6    1.076562 S    
C9    N9    1.345460 A    
C15   C17   1.389972 A    
C4    C20   1.369040 A    
C20   C47   1.408633 S    
C30   C41   1.482773 S    
C61   H31   1.107085 S    
C25   C35   1.399021 A    
C13   Br5   1.916229 S    
C4    H4    1.075522 S    
N13   Ni4   1.892988 S    
C10   O4    1.382763 S    
C45   H23   1.083609 S    
C16   O6    1.382892 S    
N8    Ni3   1.877316 S    
C34   H18   1.082454 S    
C37   C39   1.398805 A    
N7    Ni4   1.877317 S    
C5    O1    1.390319 S    
C49   Br1   1.926573 S    
C63   H35   1.110499 S    
C64   H39   1.110140 S    
