data_mof_unit_5653.cif
_audit_creation_date              2012-10-26T21:06:38-0400
_audit_creation_method            fapswitch 2.2
_symmetry_space_group_name_H-M    P1
_symmetry_Int_Tables_number       1
_space_group_crystal_system       triclinic
_cell_length_a                    15.87211
_cell_length_b                    10.762553
_cell_length_c                    9.544674
_cell_angle_alpha                 90.093968
_cell_angle_beta                  89.918678
_cell_angle_gamma                 90.448668
_cell_volume                      1630.40965323

loop_
_atom_site_label
_atom_site_type_symbol
_atom_type_description
_atom_site_fract_x
_atom_site_fract_y
_atom_site_fract_z
_atom_type_partial_charge
C1    C     C_R   0.499057 0.262567 0.499799 0.571937
C2    C     C_R   0.554059 0.575560 0.074106 0.219397
C3    C     C_R   0.339951 0.499742 0.499992 0.551232
C4    C     C_R   0.660049 0.500250 0.500006 0.550991
C5    C     C_3   0.971816 0.418241 0.595507 0.189250
C6    C     C_3   0.028160 0.581080 0.404010 0.175236
C7    C     C_3   0.027003 0.385333 0.467641 0.149508
C8    C     C_3   0.972955 0.613714 0.532057 0.197815
C9    C     C_1   0.250504 0.499441 0.499738 0.079175
C10   C     C_1   0.749495 0.500376 0.500231 0.080182
C11   C     C_3   0.028515 0.532153 0.626686 0.175444
C12   C     C_R   0.500942 0.737433 0.500201 0.572249
C13   C     C_3   0.971476 0.466974 0.372692 0.117875
C14   C     C_3   0.083577 0.499403 0.498823 -0.099566
C15   C     C_3   0.916434 0.499845 0.500742 -0.090229
C16   C     C_1   0.175130 0.499299 0.499076 0.115760
C17   C     C_1   0.824870 0.500287 0.500759 0.121324
C18   C     C_R   0.432457 0.062648 0.436020 0.051688
C19   C     C_R   0.567545 0.937352 0.563971 0.051234
C20   C     C_R   0.433502 0.933092 0.436579 0.102724
C21   C     C_R   0.566501 0.066908 0.563404 0.102568
C22   C     C_R   0.500778 0.871262 0.500496 0.026380
C23   C     C_R   0.499222 0.128738 0.499500 0.026004
C24   C     C_R   0.446089 0.424924 0.074803 0.019363
C25   C     C_R   0.553910 0.575077 0.925197 0.020125
C26   C     C_R   0.445939 0.424442 0.925895 0.218846
Cu1   Cu    Cu3+1 0.500000 0.500020 0.640660 1.032368
Cu2   Cu    Cu3+1 0.500000 0.499980 0.359340 1.030779
H1    H     H_    0.402950 0.364951 0.131364 0.116736
H2    H     H_    0.335804 0.184708 0.448963 0.259138
H3    H     H_    0.616463 0.822065 0.710366 0.245466
H4    H     H_    0.664198 0.815295 0.551018 0.258640
H5    H     H_    0.309509 0.887969 0.425168 0.297053
H6    H     H_    0.360892 0.888126 0.269407 0.273143
H7    H     H_    0.690493 0.112021 0.574741 0.293345
H8    H     H_    0.639146 0.111876 0.730535 0.272632
H9    H     H_    0.401052 0.252775 0.883714 0.217284
H10   H     H_    0.327765 0.365826 0.883678 0.252774
H11   H     H_    0.598939 0.747231 0.116285 0.216740
H12   H     H_    0.597047 0.635052 0.868635 0.117756
H13   H     H_    0.672231 0.634186 0.116324 0.252750
H14   H     H_    0.969372 0.098225 0.464629 0.389502
H15   H     H_    0.986506 0.933531 0.659176 0.376374
H16   H     H_    0.982152 0.178730 0.866441 0.391772
H17   H     H_    0.015912 0.824105 0.137716 0.383089
H18   H     H_    0.053951 0.419928 0.120763 0.391050
H19   H     H_    0.986748 0.700636 0.899937 0.384916
H20   H     H_    0.383544 0.177935 0.289619 0.244617
N1    N     N_R   0.500020 0.500030 0.852070 -0.208243
N2    N     N_R   0.499980 0.499970 0.147930 -0.207987
N3    N     N_3   0.362063 0.125155 0.374344 -0.582278
N4    N     N_3   0.637940 0.874846 0.625639 -0.587302
N5    N     N_3   0.365537 0.863251 0.374946 -0.561720
N6    N     N_3   0.634479 0.136748 0.624998 -0.562097
N7    N     N_3   0.389084 0.344018 0.852510 -0.539989
N8    N     N_3   0.610911 0.655989 0.147490 -0.540674
O1    O     O_R   0.500000 0.319660 0.618740 -0.453628
O2    O     O_2   0.112480 0.182279 0.548118 -0.223272
O3    O     O_3   0.987395 0.139978 0.377143 -0.395018
O4    O     O_2   0.887330 0.815983 0.450961 -0.208914
O5    O     O_2   0.873158 0.752309 0.696369 -0.281735
O6    O     O_3   0.013462 0.858970 0.618567 -0.428109
O7    O     O_2   0.881168 0.383472 0.830127 -0.163464
O8    O     O_2   0.873218 0.220235 0.651017 -0.296049
O9    O     O_3   0.009874 0.237278 0.800662 -0.414370
O10   O     O_2   0.118037 0.789563 0.359405 -0.202008
O11   O     O_2   0.126475 0.627565 0.179330 -0.253994
O12   O     O_R   0.500000 0.680340 0.381260 -0.453767
O13   O     O_3   0.989208 0.757761 0.194686 -0.418396
O14   O     O_2   0.864515 0.319139 0.231441 -0.200082
O15   O     O_2   0.884939 0.529905 0.141246 -0.177178
O16   O     O_3   0.003722 0.368230 0.100144 -0.361289
O17   O     O_2   0.120622 0.468191 0.850966 -0.197761
O18   O     O_2   0.128510 0.685284 0.776582 -0.234612
O19   O     O_3   0.992405 0.609197 0.904505 -0.381440
O20   O     O_R   0.499990 0.319630 0.381170 -0.521774
O21   O     O_R   0.500010 0.680370 0.618830 -0.521521
O22   O     O_R   0.379080 0.500000 0.618760 -0.460556
O23   O     O_R   0.620920 0.500000 0.381240 -0.461706
O24   O     O_R   0.379080 0.499970 0.381190 -0.499319
O25   O     O_R   0.620920 0.500030 0.618810 -0.497742
O26   O     O_2   0.127729 0.247013 0.304030 -0.229092
S1    S     S_3+6 0.066948 0.235321 0.424157 0.117570
S2    S     S_3+6 0.933140 0.763847 0.575036 0.088243
S3    S     S_3+6 0.930402 0.312423 0.722384 0.113102
S4    S     S_3+6 0.069116 0.691417 0.281457 0.113658
S5    S     S_3+6 0.928052 0.421142 0.207595 0.161793
S6    S     S_3+6 0.070959 0.574679 0.793212 0.138285

loop_
_geom_bond_atom_site_label_1
_geom_bond_atom_site_label_2
_ccdc_geom_bond_type
C7    S1    S    
H2    N3    S    
H3    N4    S    
Cu1   O22   S    
C26   N7    S    
O17   S6    D    
C12   O12   A    
Cu2   O12   S    
C9    C16   T    
O3    S1    S    
C5    C11   S    
C25   H12   S    
C21   N6    S    
C11   C14   S    
O14   S5    D    
C10   C17   T    
C12   C22   S    
Cu2   O23   S    
C24   H1    S    
H4    N4    S    
C2    N2    A    
Cu2   N2    S    
C19   N4    S    
H20   N3    S    
C4    O25   A    
H18   O16   S    
C5    S3    S    
O7    S3    D    
H7    N6    S    
C24   N2    A    
H16   O9    S    
C3    O24   A    
C18   N3    S    
C7    C14   S    
H5    N5    S    
H10   N7    S    
H17   O13   S    
C18   C23   A    
Cu1   O25   S    
C19   C22   A    
C4    O23   A    
Cu1   O1    S    
C26   N1    A    
C5    C7    S    
C6    C8    S    
H13   N8    S    
C3    C9    S    
C1    O1    A    
C6    C14   S    
H11   N8    S    
C11   S6    S    
C12   O21   A    
C13   S5    S    
O15   S5    D    
C20   C22   A    
C1    C23   S    
C8    C15   S    
C13   C15   S    
C14   C16   S    
C4    C10   S    
Cu2   O20   S    
O8    S3    D    
O16   S5    S    
C15   C17   S    
O6    S2    S    
O11   S4    D    
C19   C21   A    
C8    S2    S    
C1    O20   A    
C24   C26   A    
C20   N5    S    
Cu1   O21   S    
O5    S2    D    
H14   O3    S    
O10   S4    D    
O9    S3    S    
C6    S4    S    
C21   C23   A    
H19   O19   S    
C2    N8    S    
O2    S1    D    
C6    C13   S    
O4    S2    D    
C8    C11   S    
C2    C25   A    
C18   C20   A    
Cu2   O24   S    
C25   N1    A    
C5    C15   S    
H8    N6    S    
H9    N7    S    
O19   S6    S    
C7    C13   S    
H6    N5    S    
O26   S1    D    
Cu1   Cu2   S    
O18   S6    D    
C3    O22   A    
O13   S4    S    
Cu1   N1    S    
H15   O6    S    
