data_mof_unit_45764.cif
_audit_creation_date              2012-12-11T16:57:10-0500
_audit_creation_method            fapswitch 2.2
_symmetry_space_group_name_H-M    P1
_symmetry_Int_Tables_number       1
_space_group_crystal_system       triclinic
_cell_length_a                    14.464724
_cell_length_b                    16.239327
_cell_length_c                    6.949375
_cell_angle_alpha                 90.000079
_cell_angle_beta                  98.975227
_cell_angle_gamma                 90.0
_cell_volume                      1612.40283157

loop_
_atom_site_label
_atom_site_type_symbol
_atom_type_description
_atom_site_fract_x
_atom_site_fract_y
_atom_site_fract_z
_atom_type_partial_charge
O1    O     O_R   0.584990 0.413650 0.534420 -0.536552
O2    O     O_R   0.584990 0.586350 0.534420 -0.536553
O3    O     O_R   0.596190 0.585230 0.208380 -0.516854
O4    O     O_R   0.596190 0.414770 0.208380 -0.516855
O5    O     O_R   0.415010 0.586420 0.976930 -0.546923
O6    O     O_R   0.415010 0.413580 0.976930 -0.546923
C1    C     C_R   0.618299 0.614764 0.384223 0.731251
C2    C     C_R   0.618299 0.385236 0.384222 0.731251
O7    O     O_3   0.440560 0.500000 0.319140 -0.386988
V1    V     V_3+5 0.511030 0.500000 0.068070 1.513922
O8    O     O_R   0.403810 0.414840 0.643540 -0.548904
O9    O     O_R   0.403810 0.585160 0.643540 -0.548904
C3    C     C_R   0.381574 0.385978 0.805756 0.737451
C4    C     C_R   0.381574 0.614021 0.805756 0.737451
V2    V     V_3+5 0.488970 0.500000 0.560620 1.452183
O10   O     O_3   0.559440 0.500000 0.859420 -0.329386
H1    H     H_    0.188336 0.806218 0.806141 0.155222
H2    H     H_    0.188336 0.193782 0.806142 0.155222
H3    H     H_    0.318875 0.693257 0.101726 0.150113
H4    H     H_    0.318875 0.306743 0.101726 0.150113
C5    C     C_2   0.312403 0.681932 0.796213 -0.334202
C6    C     C_2   0.312403 0.318068 0.796212 -0.334202
C7    C     C_2   0.287921 0.715772 0.958844 -0.124823
C8    C     C_2   0.287921 0.284228 0.958844 -0.124822
H5    H     H_    0.225559 0.795350 0.254158 0.124473
H6    H     H_    0.225559 0.204650 0.254158 0.124473
C9    C     C_2   0.194670 0.818057 0.111431 -0.337712
C10   C     C_2   0.194670 0.181943 0.111431 -0.337712
C11   C     C_2   0.219274 0.783909 0.949227 -0.117746
C12   C     C_2   0.219274 0.216091 0.949227 -0.117745
H7    H     H_    0.281482 0.704996 0.653832 0.127583
H8    H     H_    0.281482 0.295004 0.653832 0.127582
C13   C     C_R   0.749965 0.691885 0.592251 0.145526
C14   C     C_R   0.749964 0.308114 0.592251 0.145527
C15   C     C_R   0.688848 0.682613 0.415700 -0.137405
C16   C     C_R   0.688848 0.317387 0.415700 -0.137406
C17   C     C_R   0.697982 0.740026 0.267312 -0.123158
C18   C     C_R   0.697985 0.259976 0.267311 -0.123158
H9    H     H_    0.651549 0.736480 0.129919 0.126302
H10   H     H_    0.651553 0.263522 0.129917 0.126307
C19   C     C_R   0.763174 0.805524 0.298529 -0.177362
C20   C     C_R   0.763176 0.194477 0.298528 -0.177364
H11   H     H_    0.765969 0.849772 0.183363 0.124074
H12   H     H_    0.765974 0.150230 0.183361 0.124077
C21   C     C_R   0.819552 0.817030 0.481132 -0.111887
C22   C     C_R   0.819552 0.182970 0.481132 -0.111890
C23   C     C_R   0.812347 0.758012 0.624133 0.080421
C24   C     C_R   0.812345 0.241987 0.624134 0.080425
C25   C     C_3   0.793974 0.771146 0.826225 -0.455068
C26   C     C_3   0.793971 0.228852 0.826225 -0.455071
C27   C     C_3   0.727814 0.698186 0.794145 0.115276
C28   C     C_3   0.727812 0.301813 0.794145 0.115274
H13   H     H_    0.757327 0.830399 0.841610 0.137519
H14   H     H_    0.757323 0.169600 0.841606 0.137517
H15   H     H_    0.857615 0.760772 0.935655 0.213521
H16   H     H_    0.857612 0.239226 0.935658 0.213521
H17   H     H_    0.653254 0.713739 0.797610 0.074379
H18   H     H_    0.653251 0.286262 0.797608 0.074378
O11   O     O_R   0.921430 0.915960 0.371040 -0.536400
O12   O     O_R   0.921430 0.084040 0.371040 -0.536400
O13   O     O_R   0.910450 0.087500 0.697310 -0.543371
O14   O     O_R   0.910450 0.912500 0.697310 -0.543371
O15   O     O_R   0.091710 0.087460 0.928430 -0.540195
O16   O     O_R   0.091710 0.912540 0.928430 -0.540195
C29   C     C_R   0.886993 0.113401 0.518735 0.703061
C30   C     C_R   0.886993 0.886599 0.518735 0.703061
O17   O     O_3   0.065970 0.000000 0.586140 -0.371876
V3    V     V_3+5 0.995640 1.000000 0.837400 1.409306
O18   O     O_R   0.103020 0.915700 0.261710 -0.541703
O19   O     O_R   0.103020 0.084300 0.261710 -0.541703
C31   C     C_R   0.125336 0.885929 0.100343 0.760282
C32   C     C_R   0.125337 0.114071 0.100343 0.760282
V4    V     V_3+5 0.017940 1.000000 0.344880 1.404151
O20   O     O_3   0.947330 1.000000 0.046180 -0.375398
Br1   Br    Br    0.775891 0.604674 0.950081 -0.434142
Br2   Br    Br    0.775891 0.395325 0.950082 -0.434143

loop_
_geom_bond_atom_site_label_1
_geom_bond_atom_site_label_2
_ccdc_geom_bond_type
C9    C11   D    
O1    C2    A    
H1    C11   S    
V4    O20   S    
O2    C1    A    
O4    C2    A    
C23   C25   S    
C5    H7    S    
C26   H14   S    
C6    H8    S    
C7    C11   S    
C4    C5    S    
C15   C17   A    
C27   Br1   S    
C18   C20   A    
O3    C1    A    
O11   C30   A    
C20   C22   A    
V3    O20   S    
V2    O10   S    
O12   V4    S    
C2    C16   S    
O16   C31   A    
O18   C31   A    
O8    V2    S    
H4    C8    S    
C25   C27   S    
C26   C28   S    
O18   V4    S    
O1    V2    S    
O7    V1    S    
O11   V4    S    
C24   C26   S    
C19   H11   S    
C10   C32   S    
C20   H12   S    
H6    C10   S    
C21   C23   A    
C22   C24   A    
O14   C30   A    
O17   V3    S    
C22   C29   S    
C25   H15   S    
C26   H16   S    
H3    C7    S    
O9    V2    S    
O19   V4    S    
O2    V2    S    
O5    C4    A    
C28   H18   S    
C27   H17   S    
O17   V4    S    
O9    C4    A    
O12   C29   A    
C5    C7    D    
H2    C12   S    
C13   C23   A    
C6    C8    D    
C14   C24   A    
O4    V1    S    
O16   V3    S    
C9    C31   S    
O15   V3    S    
C1    C15   S    
C28   Br2   S    
O6    V1    S    
C13   C27   S    
C14   C28   S    
O14   V3    S    
C16   C18   A    
O7    V2    S    
O5    V1    S    
C17   H9    S    
O3    V1    S    
V1    O10   S    
O6    C3    A    
C18   H10   S    
O8    C3    A    
O13   V3    S    
C25   H13   S    
C10   C12   D    
C13   C15   A    
C3    C6    S    
C14   C16   A    
C17   C19   A    
C8    C12   S    
O13   C29   A    
O15   C32   A    
C21   C30   S    
C19   C21   A    
O19   C32   A    
H5    C9    S    
