data_mof_unit_12192.cif
_audit_creation_date              2012-12-10T18:32:44-0500
_audit_creation_method            fapswitch 2.2
_symmetry_space_group_name_H-M    P1
_symmetry_Int_Tables_number       1
_space_group_crystal_system       triclinic
_cell_length_a                    15.006715
_cell_length_b                    15.495118
_cell_length_c                    15.742401
_cell_angle_alpha                 90.070737
_cell_angle_beta                  105.005755
_cell_angle_gamma                 82.314832
_cell_volume                      3501.87530899

loop_
_atom_site_label
_atom_site_type_symbol
_atom_type_description
_atom_site_fract_x
_atom_site_fract_y
_atom_site_fract_z
_atom_type_partial_charge
C1    C     C_R   0.442004 0.662328 0.488115 0.887374
C2    C     C_R   0.593325 0.245811 0.535923 -0.057663
C3    C     C_R   0.291893 0.869965 0.515312 -0.212215
C4    C     C_R   0.501252 0.500604 0.661696 0.888877
C5    C     C_R   0.317845 0.783164 0.498587 -0.274126
C6    C     C_R   0.473060 0.814803 0.502249 0.389115
C7    C     C_R   0.452067 0.897852 0.533626 -0.028384
C8    C     C_R   0.358342 0.927673 0.532592 0.116459
C9    C     C_R   0.520410 0.954085 0.559892 0.073852
C10   C     C_R   0.490957 0.044214 0.560137 0.054783
C11   C     C_R   0.396798 0.073373 0.557799 -0.225842
C12   C     C_3   0.439237 0.587848 0.033804 0.368783
C13   C     C_R   0.332265 0.014993 0.547474 -0.207853
C14   C     C_R   0.616861 0.923290 0.587510 -0.154361
C15   C     C_R   0.682473 0.980618 0.599443 -0.278493
C16   C     C_R   0.558215 0.337871 0.514515 0.861347
C17   C     C_R   0.653300 0.069510 0.582151 0.179794
C18   C     C_R   0.556969 0.101709 0.561913 0.088549
C19   C     C_R   0.718704 0.126568 0.583146 -0.201637
C20   C     C_R   0.688817 0.214628 0.560359 -0.199527
C21   C     C_R   0.528671 0.189309 0.537031 -0.260810
C22   C     C_R   0.842254 0.639760 0.627649 -0.323695
C23   C     C_3   0.494961 0.501596 0.081444 0.185622
C24   C     C_R   0.753003 0.617152 0.605884 0.064778
C25   C     C_R   0.794389 0.508654 0.511080 -0.072744
C26   C     C_R   0.886410 0.528612 0.530033 -0.002650
C27   C     C_R   0.909400 0.595575 0.590069 0.178780
C28   C     C_R   0.498470 0.499971 0.338188 0.893171
C29   C     C_R   0.955460 0.485165 0.491628 0.083588
C30   C     C_R   0.046810 0.510020 0.513974 0.083584
C31   C     C_R   0.066608 0.576147 0.575258 -0.239861
C32   C     C_R   0.999013 0.617989 0.612260 -0.214764
C33   C     C_R   0.936110 0.418013 0.431486 -0.238035
C34   C     C_3   0.450168 0.423233 0.035606 -0.631281
C35   C     C_R   0.003330 0.376936 0.393617 -0.211603
C36   C     C_R   0.092116 0.401150 0.413753 0.181254
C37   C     C_R   0.115238 0.467888 0.474042 -0.005722
C38   C     C_R   0.158257 0.359027 0.373762 -0.320734
C39   C     C_R   0.246732 0.383315 0.393517 0.014270
C40   C     C_3   0.444247 0.588856 0.936430 -0.493080
C41   C     C_R   0.206485 0.489506 0.491019 -0.055261
C42   C     C_3   0.601704 0.495302 0.978682 0.220675
C43   C     C_3   0.597745 0.493770 0.076271 -0.451855
C44   C     C_1   0.494857 0.500104 0.248375 -0.191394
C45   C     C_3   0.456857 0.422289 0.938306 0.323265
C46   C     C_3   0.500808 0.503181 0.917232 0.105256
C47   C     C_3   0.407844 0.733454 0.066868 0.093231
C48   C     C_3   0.452313 0.811531 0.107395 -0.830757
C49   C     C_3   0.543533 0.812104 0.390292 0.105004
C50   C     C_3   0.635110 0.785322 0.366553 -0.782358
C51   C     C_3   0.289526 0.445216 0.881764 0.143223
C52   C     C_3   0.224802 0.472088 0.791429 -0.829984
C53   C     C_1   0.493457 0.500596 0.172683 -0.008039
C54   C     C_1   0.503530 0.503509 0.826385 0.054446
C55   C     C_1   0.503643 0.502528 0.751119 -0.160274
C56   C     C_R   0.408772 0.755003 0.492808 -0.171680
H1    H     H_    0.373309 0.599152 0.891092 0.143919
H2    H     H_    0.476441 0.645887 0.922204 0.204244
H3    H     H_    0.372308 0.140522 0.567354 0.151875
H4    H     H_    0.642669 0.855008 0.602289 0.195533
H5    H     H_    0.792600 0.102814 0.599979 0.135192
H6    H     H_    0.017124 0.668627 0.658662 0.140090
H7    H     H_    0.231056 0.539166 0.535297 0.126575
H8    H     H_    0.298753 0.351124 0.363384 0.132914
H9    H     H_    0.985404 0.325843 0.347724 0.142346
H10   H     H_    0.858651 0.691246 0.673387 0.141922
H11   H     H_    0.700342 0.650719 0.634432 0.144065
H12   H     H_    0.365112 0.588274 0.035347 0.032365
H13   H     H_    0.769835 0.458968 0.466854 0.129509
H14   H     H_    0.641143 0.432288 0.966890 0.127512
H15   H     H_    0.133950 0.597548 0.596472 0.136266
H16   H     H_    0.869400 0.395190 0.411805 0.137410
H17   H     H_    0.141679 0.307821 0.327722 0.142658
H18   H     H_    0.632343 0.547064 0.112626 0.227732
H19   H     H_    0.637171 0.431542 0.109363 0.145081
H20   H     H_    0.509005 0.364520 0.936158 0.100846
H21   H     H_    0.378124 0.425917 0.042304 0.175365
H22   H     H_    0.354353 0.721232 0.101282 0.135269
H23   H     H_    0.488613 0.361389 0.070416 0.180963
H24   H     H_    0.373663 0.749601 0.995994 0.132713
H25   H     H_    0.507039 0.824858 0.075270 0.258967
H26   H     H_    0.398576 0.869841 0.098387 0.203233
H27   H     H_    0.484028 0.798299 0.178837 0.248158
H28   H     H_    0.522734 0.883472 0.376258 0.138290
H29   H     H_    0.489755 0.776026 0.348457 0.129704
H30   H     H_    0.656164 0.713858 0.377592 0.267437
H31   H     H_    0.627334 0.802545 0.296364 0.201940
H32   H     H_    0.690394 0.819631 0.408041 0.250725
H33   H     H_    0.629012 0.616238 0.985301 0.361749
H34   H     H_    0.261016 0.038929 0.547489 0.143268
H35   H     H_    0.292605 0.503448 0.922375 0.111207
H36   H     H_    0.258780 0.396405 0.912782 0.148293
H37   H     H_    0.216499 0.414434 0.749565 0.266475
H38   H     H_    0.155310 0.501160 0.798179 0.207036
H39   H     H_    0.254047 0.521016 0.758991 0.246926
H40   H     H_    0.455511 0.213827 0.514694 0.162428
H41   H     H_    0.740030 0.257893 0.561177 0.157981
H42   H     H_    0.755920 0.954973 0.618540 0.147188
H43   H     H_    0.220549 0.891511 0.516664 0.146576
H44   H     H_    0.267144 0.738177 0.490739 0.178774
N1    N     N_R   0.731690 0.552720 0.548990 -0.103448
N2    N     N_R   0.268300 0.447240 0.450950 -0.098890
O1    O     O_R   0.383120 0.605620 0.475300 -0.629582
O2    O     O_3   0.556465 0.791704 0.480301 -0.615924
O3    O     O_3   0.650963 0.561240 0.960182 -0.746506
O4    O     O_3   0.376645 0.406339 0.871355 -0.590508
O5    O     O_R   0.531890 0.639510 0.506740 -0.559611
O6    O     O_R   0.425580 0.483050 0.607130 -0.607372
O7    O     O_R   0.574360 0.516930 0.638570 -0.613383
O8    O     O_R   0.468110 0.360490 0.493260 -0.623065
O9    O     O_R   0.616880 0.394380 0.524700 -0.622178
O10   O     O_R   0.425640 0.483070 0.361430 -0.616992
O11   O     O_R   0.574420 0.516950 0.392870 -0.612033
O12   O     O_3   0.477276 0.660211 0.077255 -0.602902
Zn1   Zn    Zn3+2 0.400660 0.477370 0.479010 0.939725
Zn2   Zn    Zn3+2 0.599340 0.522630 0.520990 0.961551

loop_
_geom_bond_atom_site_label_1
_geom_bond_atom_site_label_2
_ccdc_geom_bond_type
C47   O12   S    
C4    O7    A    
C8    C13   A    
C13   H34   S    
C18   C21   A    
C5    C56   A    
C35   C36   A    
C49   O2    S    
C16   O8    A    
C7    C8    A    
C45   C46   S    
C28   O10   A    
C40   C46   S    
C39   H8    S    
C12   H12   S    
C12   C23   S    
C26   C27   A    
C45   H20   S    
C49   H28   S    
C36   C37   A    
C1    C56   S    
C10   C18   A    
C34   H21   S    
C30   C31   A    
C51   H36   S    
C35   H9    S    
C29   C33   A    
C42   H14   S    
C23   C43   S    
C41   N2    A    
C52   H39   S    
C15   C17   A    
C24   N1    A    
C42   C46   S    
C22   H10   S    
N2    Zn1   S    
C33   H16   S    
C51   H35   S    
C44   C53   T    
C20   H41   S    
C19   C20   A    
C52   H38   S    
O9    Zn2   S    
C6    O2    S    
C2    C16   S    
C9    C10   A    
C1    O1    A    
O7    Zn2   S    
C50   H32   S    
O11   Zn2   S    
C43   H18   S    
C31   H15   S    
C47   H24   S    
C11   H3    S    
C23   C53   S    
C12   O12   S    
C43   H19   S    
C40   H2    S    
C2    C20   A    
C51   C52   S    
C49   H29   S    
C3    C8    A    
C28   O11   A    
C17   C19   A    
C3    C5    A    
C25   C26   A    
C28   C44   S    
C30   C37   A    
C12   C40   S    
O1    Zn1   S    
C9    C14   A    
C29   C30   A    
C34   H23   S    
C4    O6    A    
C47   C48   S    
C5    H44   S    
C23   C34   S    
C46   C54   S    
C2    C21   A    
C17   C18   A    
C52   H37   S    
C34   C45   S    
C50   H31   S    
C1    O5    A    
C22   C27   A    
C4    C55   S    
C22   C24   A    
C25   H13   S    
C42   C43   S    
C41   H7    S    
C15   H42   S    
C45   O4    S    
O6    Zn1   S    
C39   N2    A    
C7    C9    A    
C54   C55   T    
C40   H1    S    
C27   C32   A    
C31   C32   A    
C6    C56   A    
C24   H11   S    
C6    C7    A    
C21   H40   S    
C14   H4    S    
C48   H27   S    
C36   C38   A    
C48   H25   S    
C32   H6    S    
C11   C13   A    
C25   N1    A    
C38   C39   A    
C19   H5    S    
C51   O4    S    
C33   C35   A    
C48   H26   S    
C37   C41   A    
C42   O3    S    
O5    Zn2   S    
C10   C11   A    
C50   H30   S    
C3    H43   S    
C26   C29   A    
C49   C50   S    
H33   O3    S    
N1    Zn2   S    
C14   C15   A    
C47   H22   S    
O8    Zn1   S    
O10   Zn1   S    
C16   O9    A    
C38   H17   S    
