data_mof_unit_56334.cif
_audit_creation_date              2012-12-11T15:53:43-0500
_audit_creation_method            fapswitch 2.2
_symmetry_space_group_name_H-M    P1
_symmetry_Int_Tables_number       1
_space_group_crystal_system       triclinic
_cell_length_a                    6.925122
_cell_length_b                    14.544903
_cell_length_c                    15.970421
_cell_angle_alpha                 90.538741
_cell_angle_beta                  89.740609
_cell_angle_gamma                 89.977076
_cell_volume                      1608.53653976

loop_
_atom_site_label
_atom_site_type_symbol
_atom_type_description
_atom_site_fract_x
_atom_site_fract_y
_atom_site_fract_z
_atom_type_partial_charge
O1    O     O_R   0.361600 0.167310 0.164620 -0.539618
O2    O     O_R   0.638400 0.832690 0.835380 -0.539619
O3    O     O_R   0.691080 0.157570 0.338750 -0.532378
O4    O     O_R   0.308920 0.842430 0.661250 -0.532378
O5    O     O_R   0.861410 0.336420 0.339360 -0.543607
O6    O     O_R   0.138590 0.663580 0.660640 -0.543607
C1    C     C_R   0.521449 0.136755 0.368676 0.783384
C2    C     C_R   0.478551 0.863245 0.631324 0.783384
O7    O     O_R   0.691320 0.156280 0.165240 -0.528117
O8    O     O_R   0.308680 0.843720 0.834760 -0.528117
O9    O     O_R   0.861640 0.335130 0.164600 -0.548231
O10   O     O_R   0.138360 0.664870 0.835400 -0.548231
C3    C     C_R   0.522929 0.132234 0.137404 0.723223
C4    C     C_R   0.477071 0.867766 0.862596 0.723223
O11   O     O_R   0.361370 0.168600 0.339370 -0.505176
O12   O     O_R   0.638630 0.831400 0.660630 -0.505176
O13   O     O_3   0.527990 0.310540 0.251980 -0.390004
O14   O     O_3   0.472010 0.689460 0.748020 -0.390004
V1    V     V_3+5 0.802830 0.240980 0.251990 1.515689
V2    V     V_3+5 0.197170 0.759020 0.748010 1.515689
O15   O     O_R   0.191360 0.346160 0.165220 -0.552541
O16   O     O_R   0.808640 0.653840 0.834780 -0.552541
C5    C     C_R   0.022476 0.368229 0.136009 0.664334
C6    C     C_R   0.977524 0.631771 0.863991 0.664335
O17   O     O_R   0.191130 0.347440 0.338740 -0.538806
O18   O     O_R   0.808870 0.652560 0.661260 -0.538806
C7    C     C_R   0.022066 0.369663 0.367646 0.730144
C8    C     C_R   0.977934 0.630337 0.632354 0.730145
V3    V     V_3+5 0.302840 0.262750 0.251990 1.491738
V4    V     V_3+5 0.697160 0.737250 0.748010 1.491739
O19   O     O_3   0.027820 0.193180 0.251990 -0.337982
O20   O     O_3   0.972180 0.806820 0.748010 -0.337982
C9    C     C_3   0.922169 0.420093 0.524446 -0.106196
C10   C     C_3   0.077831 0.579907 0.475554 -0.106196
C11   C     C_3   0.096617 0.468376 0.566509 -0.137922
C12   C     C_3   0.903383 0.531624 0.433491 -0.137923
H1    H     H_    0.176190 0.442678 0.621753 0.119867
H2    H     H_    0.823809 0.557322 0.378247 0.119867
H3    H     H_    0.858069 0.353724 0.544125 0.143411
H4    H     H_    0.141931 0.646276 0.455875 0.143410
C13   C     C_3   0.988611 0.560713 0.562119 -0.028016
C14   C     C_3   0.011389 0.439287 0.437881 -0.028015
C15   C     C_3   0.813934 0.513227 0.520845 -0.124983
C16   C     C_3   0.186066 0.486773 0.479154 -0.124983
H5    H     H_    0.660353 0.524396 0.538392 0.115240
H6    H     H_    0.339647 0.475604 0.461608 0.115240
C17   C     C_R   0.820365 0.524982 0.967582 -0.148515
C18   C     C_R   0.179635 0.475018 0.032418 -0.148515
H7    H     H_    0.679465 0.543179 0.943736 0.114269
H8    H     H_    0.320535 0.456821 0.056264 0.114269
C19   C     C_R   0.831598 0.461945 0.033233 -0.141001
C20   C     C_R   0.168402 0.538055 0.966767 -0.141002
H9    H     H_    0.698711 0.433404 0.057722 0.115883
H10   H     H_    0.301289 0.566596 0.942278 0.115883
C21   C     C_R   0.011397 0.436052 0.066648 -0.040899
C22   C     C_R   0.988603 0.563948 0.933352 -0.040898
C23   C     C_R   0.659037 0.004216 0.446200 -0.182920
C24   C     C_R   0.340963 0.995784 0.553800 -0.182921
H11   H     H_    0.782182 0.005597 0.404111 0.200540
H12   H     H_    0.217818 0.994403 0.595889 0.200540
C25   C     C_R   0.651641 0.936514 0.507796 0.402259
C26   C     C_R   0.348359 0.063486 0.492204 0.402259
C27   C     C_R   0.491240 0.931911 0.563073 -0.197765
C28   C     C_R   0.508760 0.068089 0.436927 -0.197765
C29   C     C_R   0.655997 0.994333 0.055895 0.171526
C30   C     C_R   0.344003 0.005667 0.944105 0.171526
C31   C     C_R   0.641138 0.932821 0.988249 -0.165601
C32   C     C_R   0.358862 0.067179 0.011751 -0.165601
H13   H     H_    0.750438 0.880026 0.980788 0.155444
H14   H     H_    0.249562 0.119974 0.019211 0.155444
C33   C     C_R   0.486251 0.936835 0.931811 -0.116643
C34   C     C_R   0.513749 0.063165 0.068189 -0.116643
Cl1   Cl    Cl    0.844003 0.856921 0.509410 -0.660432
Cl2   Cl    Cl    0.155996 0.143078 0.490590 -0.660432
I1    I     I_    0.891953 0.971736 0.138174 -0.379598
I2    I     I_    0.108047 0.028263 0.861826 -0.379598

loop_
_geom_bond_atom_site_label_1
_geom_bond_atom_site_label_2
_ccdc_geom_bond_type
C24   C26   A    
C18   C21   A    
C30   C32   A    
O13   V3    S    
C4    C33   S    
C12   C14   S    
O4    C2    A    
V1    O19   S    
C17   H7    S    
O9    V1    S    
C9    H3    S    
C10   H4    S    
C9    C14   S    
C11   H1    S    
O3    C1    A    
C23   H11   S    
O12   V4    S    
C8    C13   S    
O14   V2    S    
O9    C5    A    
C25   C27   A    
O7    C3    A    
C26   C28   A    
C9    C11   S    
O5    C7    A    
O7    V1    S    
O6    C8    A    
O8    V2    S    
C29   C31   A    
O3    V1    S    
O14   V4    S    
C31   C33   A    
C18   H8    S    
C2    O12   A    
C13   C15   S    
C10   C13   S    
C14   C16   S    
C11   C13   S    
C20   H10   S    
O11   V3    S    
O17   V3    S    
C9    C15   S    
C10   C16   S    
O8    C4    A    
C17   C19   A    
C16   H6    S    
C19   C21   A    
C25   Cl1   S    
O15   V3    S    
C19   H9    S    
C30   C33   A    
C32   C34   A    
C30   I2    S    
O10   V2    S    
O1    V3    S    
C23   C25   A    
C11   C16   S    
C15   H5    S    
O18   V4    S    
O15   C5    A    
O16   C6    A    
C6    C22   S    
C23   C28   A    
V2    O20   S    
C24   C27   A    
O16   V4    S    
C5    C21   S    
O5    V1    S    
C3    C34   S    
O17   C7    A    
C29   C34   A    
O6    V2    S    
O10   C6    A    
O18   C8    A    
C29   I1    S    
O2    V4    S    
C12   H2    S    
V3    O19   S    
V4    O20   S    
C7    C14   S    
C1    O11   A    
O13   V1    S    
C10   C12   S    
O2    C4    A    
C1    C28   S    
C2    C27   S    
O4    V2    S    
C18   C20   A    
O1    C3    A    
C32   H14   S    
C26   Cl2   S    
C12   C15   S    
C31   H13   S    
C24   H12   S    
C20   C22   A    
C17   C22   A    
