data_mof_unit_34711.cif
_audit_creation_date              2012-12-10T17:28:32-0500
_audit_creation_method            fapswitch 2.2
_symmetry_space_group_name_H-M    P1
_symmetry_Int_Tables_number       1
_space_group_crystal_system       triclinic
_cell_length_a                    10.615214
_cell_length_b                    11.940734
_cell_length_c                    12.810874
_cell_angle_alpha                 93.799313
_cell_angle_beta                  89.753333
_cell_angle_gamma                 86.944434
_cell_volume                      1617.90014986

loop_
_atom_site_label
_atom_site_type_symbol
_atom_type_description
_atom_site_fract_x
_atom_site_fract_y
_atom_site_fract_z
_atom_type_partial_charge
Br1   Br    Br    0.271222 0.600824 0.194760 -0.548375
Br2   Br    Br    0.728776 0.399175 0.805241 -0.548375
C1    C     C_R   0.500741 0.522656 0.700265 0.938134
C2    C     C_R   0.421072 0.525771 0.129302 0.191838
C3    C     C_R   0.553133 0.468407 0.976947 0.077701
C4    C     C_R   0.446863 0.531588 0.023052 0.077701
C5    C     C_R   0.362076 0.955107 0.423180 -0.336511
C6    C     C_R   0.637924 0.044893 0.576820 -0.336511
C7    C     C_R   0.377958 0.838448 0.428022 0.046467
C8    C     C_R   0.622042 0.161552 0.571977 0.046467
C9    C     C_R   0.562859 0.857791 0.529800 -0.064799
C10   C     C_R   0.437141 0.142209 0.470199 -0.064799
C11   C     C_R   0.551008 0.975453 0.526988 0.092464
C12   C     C_R   0.499260 0.477344 0.299735 0.938134
C13   C     C_R   0.448992 0.024546 0.473012 0.092464
C14   C     C_R   0.739814 0.498821 0.484372 0.902956
C15   C     C_R   0.260186 0.501178 0.515628 0.902957
C16   C     C_R   0.901302 0.291339 0.436555 -0.119191
C17   C     C_R   0.098698 0.708661 0.563444 -0.119191
C18   C     C_R   0.963034 0.190612 0.461160 -0.151750
C19   C     C_R   0.036966 0.809388 0.538839 -0.151751
C20   C     C_R   0.070492 0.192685 0.522700 -0.161034
C21   C     C_R   0.929507 0.807315 0.477299 -0.161034
C22   C     C_R   0.121283 0.295148 0.552689 -0.110515
C23   C     C_R   0.504863 0.462408 0.188663 -0.093421
C24   C     C_R   0.878716 0.704852 0.447310 -0.110514
C25   C     C_R   0.065294 0.397588 0.520490 0.101073
C26   C     C_R   0.934705 0.602412 0.479509 0.101074
C27   C     C_R   0.946770 0.396043 0.473621 0.105160
C28   C     C_R   0.053229 0.603957 0.526378 0.105160
C29   C     C_R   0.124212 0.501177 0.532685 -0.253444
C30   C     C_R   0.875787 0.498823 0.467314 -0.253444
C31   C     C_R   0.495136 0.537591 0.811337 -0.093420
C32   C     C_R   0.370374 0.600541 0.962224 -0.140257
C33   C     C_R   0.629620 0.399453 0.037775 -0.140257
C34   C     C_R   0.394319 0.603017 0.856675 -0.274335
C35   C     C_R   0.605679 0.396981 0.143325 -0.274332
C36   C     C_R   0.578925 0.474226 0.870698 0.191839
H1    H     H_    0.282531 0.990546 0.381431 0.158088
H2    H     H_    0.796941 0.706579 0.397241 0.157805
H3    H     H_    0.669640 0.348278 0.190717 0.160314
H4    H     H_    0.330358 0.651720 0.809283 0.160315
H5    H     H_    0.290288 0.651219 0.994362 0.200480
H6    H     H_    0.709703 0.348771 0.005636 0.200479
H7    H     H_    0.360425 0.181671 0.428132 0.143615
H8    H     H_    0.639575 0.818329 0.571868 0.143615
H9    H     H_    0.689622 0.215325 0.609507 0.183263
H10   H     H_    0.310378 0.784675 0.390493 0.183263
H11   H     H_    0.717469 0.009454 0.618569 0.158088
H12   H     H_    0.818005 0.286881 0.388290 0.141235
H13   H     H_    0.181994 0.713119 0.611709 0.141235
H14   H     H_    0.925669 0.111120 0.434674 0.134024
H15   H     H_    0.074331 0.888880 0.565324 0.134025
H16   H     H_    0.884211 0.885134 0.454200 0.133760
H17   H     H_    0.115789 0.114866 0.545798 0.133760
H18   H     H_    0.203059 0.293421 0.602757 0.157805
N1    N     N_R   0.523130 0.207800 0.519340 -0.111100
N2    N     N_R   0.476870 0.792200 0.480660 -0.111100
O1    O     O_R   0.506170 0.421700 0.658830 -0.590950
O2    O     O_R   0.493830 0.578300 0.341170 -0.590950
O3    O     O_R   0.491330 0.609310 0.646410 -0.630418
O4    O     O_R   0.508670 0.390690 0.353590 -0.630418
O5    O     O_R   0.690650 0.406190 0.506220 -0.611536
O6    O     O_R   0.309350 0.593810 0.493780 -0.611535
O7    O     O_R   0.675800 0.593810 0.493800 -0.629443
O8    O     O_R   0.324200 0.406190 0.506200 -0.629443
Zn1   Zn    Zn3+2 0.509910 0.374730 0.508290 0.958697
Zn2   Zn    Zn3+2 0.490090 0.625270 0.491710 0.958697

loop_
_geom_bond_atom_site_label_1
_geom_bond_atom_site_label_2
_ccdc_geom_bond_type
C10   C13   A    
O5    Zn1   S    
C20   H17   S    
C14   O5    A    
C22   H18   S    
C9    N2    A    
C12   O2    A    
Br2   C36   S    
C24   C26   A    
C31   C36   A    
C22   C25   A    
C28   C29   A    
N2    Zn2   S    
O7    Zn2   S    
C23   C35   A    
Br1   C2    S    
C5    C13   A    
C2    C23   A    
C18   H14   S    
C16   C27   A    
C3    C36   A    
C19   H15   S    
C33   H6    S    
C9    C11   A    
O3    Zn2   S    
C24   H2    S    
C15   O8    A    
C6    C11   A    
O4    Zn1   S    
N1    Zn1   S    
C10   N1    A    
C3    C33   A    
C26   C28   A    
C17   C19   A    
C32   C34   A    
C18   C20   A    
O8    Zn1   S    
C27   C30   A    
C16   C18   A    
C8    N1    A    
C11   C13   A    
C12   C23   S    
C35   H3    S    
C3    C4    A    
C15   C29   S    
C20   C22   A    
C6    H11   S    
C25   C27   A    
O2    Zn2   S    
C1    C31   S    
C1    O3    A    
C25   C29   A    
C12   O4    A    
O6    Zn2   S    
C17   H13   S    
C26   C30   A    
C31   C34   A    
C16   H12   S    
C7    H10   S    
C2    C4    A    
C21   H16   S    
C21   C24   A    
C33   C35   A    
C8    H9    S    
C5    C7    A    
C5    H1    S    
C14   C30   S    
C7    N2    A    
C9    H8    S    
C14   O7    A    
O1    Zn1   S    
C17   C28   A    
C34   H4    S    
C19   C21   A    
C6    C8    A    
C32   H5    S    
C4    C32   A    
C15   O6    A    
C10   H7    S    
C1    O1    A    
