data_mof_unit_7393.cif
_audit_creation_date              2013-03-05T16:07:04-0500
_audit_creation_method            fapswitch 2.2
_symmetry_space_group_name_H-M    P1
_symmetry_Int_Tables_number       1
_space_group_crystal_system       triclinic
_cell_length_a                    10.840578
_cell_length_b                    9.610966
_cell_length_c                    9.060769
_cell_angle_alpha                 89.999655
_cell_angle_beta                  91.558737
_cell_angle_gamma                 90.000198
_cell_volume                      943.677941874

loop_
_atom_site_label
_atom_site_type_symbol
_atom_site_description
_atom_site_fract_x
_atom_site_fract_y
_atom_site_fract_z
_atom_type_partial_charge
O1    O     O_R   0.319640 0.618740 0.499990 -0.565805
O2    O     O_R   0.680360 0.381260 0.500010 -0.565804
O3    O     O_R   0.680360 0.618740 0.500010 -0.565789
O4    O     O_R   0.319640 0.381260 0.499990 -0.565789
C1    C     C_R   0.262338 0.500000 0.500826 0.804311
C2    C     C_R   0.737662 0.500000 0.499174 0.804312
O5    O     O_R   0.500000 0.618760 0.288390 -0.544336
O6    O     O_R   0.500000 0.381240 0.711610 -0.544336
O7    O     O_R   0.500000 0.618760 0.711610 -0.544338
O8    O     O_R   0.500000 0.381240 0.288390 -0.544339
C3    C     C_R   0.499795 0.500000 0.220900 0.844488
C4    C     C_R   0.500205 0.500000 0.779100 0.844488
Cu1   Cu    Cu3+1 0.500000 0.640660 0.500000 1.074813
Cu2   Cu    Cu3+1 0.500000 0.359340 0.500000 1.074813
C5    C     C_1   0.499929 0.500000 0.065625 -0.047959
C6    C     C_1   0.500071 0.500000 0.934374 -0.047959
C7    C     C_R   0.063826 0.373720 0.501466 -0.114935
C8    C     C_R   0.936174 0.626280 0.498534 -0.114935
C9    C     C_R   0.936173 0.373720 0.498535 -0.114945
C10   C     C_R   0.063827 0.626280 0.501465 -0.114945
H1    H     H_    0.111509 0.274844 0.503827 0.204873
H2    H     H_    0.888491 0.725156 0.496173 0.204873
H3    H     H_    0.888490 0.274844 0.496175 0.204874
H4    H     H_    0.111510 0.725156 0.503826 0.204874
C11   C     C_R   0.871644 0.500000 0.498321 -0.046042
C12   C     C_R   0.128356 0.500000 0.501679 -0.046042
C13   C     C_R   0.434570 0.074079 0.394325 0.294377
C14   C     C_R   0.565429 0.925921 0.605675 0.294377
C15   C     C_R   0.565430 0.074079 0.605675 0.294377
C16   C     C_R   0.434570 0.925921 0.394325 0.294378
N1    N     N_R   0.500000 0.852070 0.500000 -0.317388
N2    N     N_R   0.500000 0.147930 0.500000 -0.317388
N3    N     N_R   0.364621 0.145375 0.281829 0.178974
O9    O     O_R   0.247957 0.168209 0.300706 -0.341272
O10   O     O_R   0.406517 0.150067 0.148714 -0.267981
N4    N     N_R   0.635379 0.854625 0.718171 0.178974
O11   O     O_R   0.752043 0.831789 0.699293 -0.341273
O12   O     O_R   0.593482 0.849934 0.851286 -0.267981
N5    N     N_R   0.635389 0.145374 0.718162 0.178967
O13   O     O_R   0.593489 0.150093 0.851273 -0.267987
O14   O     O_R   0.752062 0.168162 0.699289 -0.341278
N6    N     N_R   0.364610 0.854626 0.281839 0.178967
O15   O     O_R   0.406510 0.849905 0.148728 -0.267987
O16   O     O_R   0.247935 0.831843 0.300711 -0.341277

loop_
_geom_bond_atom_site_label_1
_geom_bond_atom_site_label_2
_geom_bond_distance
_ccdc_geom_bond_type
C9    H3    1.081717 S    
O3    Cu1   1.966522 S    
O6    C4    1.294862 A    
O3    C2    1.299437 A    
C15   N5    1.428795 S    
N4    O12   1.301089 A    
N3    O9    1.299491 A    
N5    O14   1.299501 A    
Cu1   Cu2   2.703757 S    
C13   N3    1.428794 S    
C13   C16   1.423940 A    
O5    C3    1.294863 A    
O2    C2    1.299435 A    
C8    C11   1.400816 A    
N6    O16   1.299503 A    
O1    C1    1.299436 A    
C7    C12   1.400816 A    
N4    O11   1.299491 A    
C7    C9    1.383358 A    
C15   N2    1.373585 A    
C8    C10   1.383358 A    
O4    Cu2   1.966522 S    
C16   N1    1.373586 A    
O2    Cu2   1.966521 S    
O7    C4    1.294861 A    
C7    H1    1.081718 S    
C2    C11   1.452680 S    
O1    Cu1   1.966521 S    
O8    C3    1.294859 A    
C9    C11   1.400817 A    
C1    C12   1.452680 S    
C10   H4    1.081718 S    
O5    Cu1   1.928870 S    
C14   N4    1.428794 S    
N6    O15   1.301092 A    
Cu2   N2    2.031855 S    
N5    O13   1.301091 A    
O7    Cu1   1.928865 S    
C14   C15   1.423940 A    
O6    Cu2   1.928868 S    
C4    C6    1.406949 S    
N3    O10   1.301090 A    
C13   N2    1.373589 A    
C8    H2    1.081719 S    
C3    C5    1.406949 S    
Cu1   N1    2.031854 S    
C14   N1    1.373588 A    
C16   N6    1.428795 S    
C5    C6    1.189277 T    
O8    Cu2   1.928867 S    
O4    C1    1.299437 A    
C10   C12   1.400817 A    
