data_mof_unit_17509.cif
_audit_creation_date              2012-12-10T17:19:49-0500
_audit_creation_method            fapswitch 2.2
_symmetry_space_group_name_H-M    P1
_symmetry_Int_Tables_number       1
_space_group_crystal_system       triclinic
_cell_length_a                    21.707243
_cell_length_b                    21.707256
_cell_length_c                    23.542344
_cell_angle_alpha                 90.000175
_cell_angle_beta                  89.999896
_cell_angle_gamma                 89.998938
_cell_volume                      11093.2626891

loop_
_atom_site_label
_atom_site_type_symbol
_atom_type_description
_atom_site_fract_x
_atom_site_fract_y
_atom_site_fract_z
_atom_type_partial_charge
C1    C     C_R   0.379898 0.000001 0.500000 0.875155
C2    C     C_R   0.039085 0.282040 0.461739 0.048971
C3    C     C_R   0.370436 0.219082 0.897836 0.157412
C4    C     C_R   0.218771 0.381149 0.112305 0.158942
C5    C     C_R   0.370440 0.780925 0.102168 0.157412
C6    C     C_R   0.781227 0.618856 0.112302 0.158935
C7    C     C_R   0.629560 0.219076 0.102167 0.157411
C8    C     C_R   0.217771 0.862877 0.407951 -0.148732
C9    C     C_R   0.127772 0.218417 0.397167 -0.172620
C10   C     C_R   0.782229 0.137122 0.407951 -0.148730
C11   C     C_R   0.872250 0.781573 0.397145 -0.172661
C12   C     C_R   0.782235 0.862875 0.592047 -0.148729
C13   C     C_R   0.718494 0.042261 0.464664 0.057678
C14   C     C_R   0.872246 0.218432 0.602846 -0.172668
C15   C     C_R   0.217764 0.137127 0.592045 -0.148726
C16   C     C_R   0.127745 0.781567 0.602857 -0.172675
C17   C     C_R   0.718432 0.372248 0.897149 -0.172661
C18   C     C_R   0.637126 0.717764 0.907954 -0.148729
C19   C     C_R   0.281568 0.627748 0.897146 -0.172672
C20   C     C_R   0.362874 0.282235 0.907954 -0.148729
C21   C     C_R   0.281574 0.372248 0.102851 -0.172656
C22   C     C_R   0.362877 0.717771 0.092049 -0.148732
C23   C     C_R   0.718424 0.627758 0.102847 -0.172654
C24   C     C_R   0.960930 0.717958 0.461729 0.048957
C25   C     C_R   0.637123 0.282229 0.092048 -0.148731
C26   C     C_R   0.186317 0.904402 0.442468 -0.195988
C27   C     C_R   0.090478 0.186951 0.435509 -0.187770
C28   C     C_R   0.813683 0.095598 0.442468 -0.195988
C29   C     C_R   0.909530 0.813042 0.435497 -0.187737
C30   C     C_R   0.813687 0.904401 0.557531 -0.195988
C31   C     C_R   0.909526 0.186962 0.564495 -0.187737
C32   C     C_R   0.186312 0.095601 0.557530 -0.195987
C33   C     C_R   0.090468 0.813037 0.564503 -0.187728
C34   C     C_R   0.686961 0.409529 0.935501 -0.187738
C35   C     C_R   0.718495 0.957736 0.535334 0.057676
C36   C     C_R   0.595600 0.686312 0.942470 -0.195988
C37   C     C_R   0.313038 0.590470 0.935499 -0.187730
C38   C     C_R   0.404400 0.313687 0.942469 -0.195987
C39   C     C_R   0.313043 0.409529 0.064501 -0.187744
C40   C     C_R   0.404402 0.686317 0.057533 -0.195988
C41   C     C_R   0.686956 0.590473 0.064497 -0.187742
C42   C     C_R   0.595598 0.313683 0.057532 -0.195988
C43   C     C_R   0.217400 0.953932 0.469232 0.069299
C44   C     C_R   0.043289 0.217845 0.465915 0.070382
C45   C     C_R   0.782600 0.046068 0.469232 0.069298
C46   C     C_R   0.960931 0.282043 0.538268 0.048960
C47   C     C_R   0.956719 0.782153 0.465907 0.070384
C48   C     C_R   0.782602 0.953930 0.530766 0.069298
C49   C     C_R   0.956718 0.217849 0.534088 0.070375
C50   C     C_R   0.217398 0.046070 0.530766 0.069295
C51   C     C_R   0.043278 0.782151 0.534093 0.070385
C52   C     C_R   0.717849 0.456719 0.965909 0.070382
C53   C     C_R   0.546070 0.717398 0.969234 0.069298
C54   C     C_R   0.282151 0.543280 0.965908 0.070384
C55   C     C_R   0.453930 0.282602 0.969233 0.069298
C56   C     C_R   0.282153 0.456718 0.034091 0.070382
C57   C     C_R   0.281504 0.042265 0.535333 0.057676
C58   C     C_R   0.453932 0.717400 0.030768 0.069299
C59   C     C_R   0.717846 0.543284 0.034090 0.070382
C60   C     C_R   0.546068 0.282600 0.030767 0.069298
C61   C     C_3   0.318007 0.171461 0.640823 -0.436385
C62   C     C_3   0.285303 0.230913 0.659415 -0.353372
C63   C     C_3   0.328723 0.272301 0.693258 -0.873601
C64   C     C_3   0.842469 0.314698 0.655637 -0.446131
C65   C     C_3   0.776778 0.324515 0.633494 -0.324124
C66   C     C_3   0.736409 0.355831 0.677991 -0.889067
C67   C     C_3   0.681992 0.828542 0.640825 -0.436385
C68   C     C_R   0.039065 0.717957 0.538273 0.048955
C69   C     C_3   0.714695 0.769089 0.659415 -0.353374
C70   C     C_3   0.671274 0.727701 0.693258 -0.873600
C71   C     C_3   0.157518 0.685299 0.655646 -0.446145
C72   C     C_3   0.223198 0.675449 0.633485 -0.324129
C73   C     C_3   0.263564 0.644106 0.677966 -0.889068
C74   C     C_3   0.681985 0.171453 0.359172 -0.436384
C75   C     C_3   0.714684 0.230907 0.340582 -0.353373
C76   C     C_3   0.671261 0.272294 0.306739 -0.873602
C77   C     C_3   0.157597 0.314690 0.344409 -0.446098
C78   C     C_3   0.223348 0.324297 0.366493 -0.324117
C79   C     C_R   0.782043 0.460931 0.961730 0.048958
C80   C     C_3   0.263718 0.355648 0.322019 -0.888937
C81   C     C_3   0.318016 0.828546 0.359172 -0.436382
C82   C     C_3   0.285317 0.769092 0.340581 -0.353375
C83   C     C_3   0.328739 0.727705 0.306739 -0.873603
C84   C     C_3   0.842464 0.685302 0.344367 -0.446103
C85   C     C_3   0.776770 0.675504 0.366517 -0.324151
C86   C     C_3   0.736410 0.644134 0.322050 -0.889021
C87   C     C_3   0.814694 0.657552 0.155622 -0.446123
C88   C     C_3   0.824464 0.723252 0.133482 -0.324139
C89   C     C_3   0.855824 0.763620 0.177952 -0.889026
C90   C     C_R   0.542264 0.781504 0.964666 0.057677
C91   C     C_3   0.328546 0.818016 0.140828 -0.436384
C92   C     C_3   0.269093 0.785317 0.159418 -0.353374
C93   C     C_3   0.227705 0.828740 0.193261 -0.873602
C94   C     C_3   0.185303 0.342460 0.155630 -0.446133
C95   C     C_3   0.175540 0.276754 0.133501 -0.324144
C96   C     C_3   0.144192 0.236391 0.177981 -0.889044
C97   C     C_3   0.671454 0.181985 0.140827 -0.436384
C98   C     C_3   0.730908 0.214684 0.159417 -0.353375
C99   C     C_3   0.772295 0.171262 0.193260 -0.873601
C100  C     C_3   0.185300 0.657526 0.844359 -0.446132
C101  C     C_R   0.217957 0.539067 0.961728 0.048956
C102  C     C_3   0.175467 0.723211 0.866515 -0.324107
C103  C     C_3   0.144127 0.763578 0.822032 -0.889006
C104  C     C_3   0.671460 0.818007 0.859176 -0.436386
C105  C     C_3   0.730912 0.785304 0.840585 -0.353373
C106  C     C_3   0.772300 0.828723 0.806742 -0.873601
C107  C     C_3   0.814701 0.342463 0.844368 -0.446144
C108  C     C_3   0.824505 0.276771 0.866516 -0.324132
C109  C     C_3   0.855859 0.236404 0.822041 -0.889034
C110  C     C_3   0.328541 0.181992 0.859175 -0.436385
C111  C     C_3   0.269089 0.214695 0.840584 -0.353374
C112  C     C_R   0.000001 0.380029 0.499999 0.872349
C113  C     C_R   0.457736 0.218495 0.964666 0.057677
C114  C     C_3   0.227701 0.171275 0.806741 -0.873598
C115  C     C_R   0.217958 0.460927 0.038268 0.048960
C116  C     C_R   0.457739 0.781506 0.035336 0.057678
C117  C     C_R   0.782041 0.539074 0.038267 0.048960
C118  C     C_R   0.542261 0.218494 0.035335 0.057677
C119  C     C_R   0.185936 0.000001 0.499999 -0.190892
C120  C     C_R   0.000001 0.186238 0.500000 -0.195872
C121  C     C_R   0.814064 1.000000 0.500000 -0.190892
C122  C     C_R   0.999999 0.813761 0.500000 -0.195889
C123  C     C_R   0.686239 0.500001 1.000000 -0.195882
C124  C     C_R   0.620102 0.999999 0.500000 0.875154
C125  C     C_R   0.500000 0.685936 0.000000 -0.190892
C126  C     C_R   0.313761 0.499999 1.000000 -0.195885
C127  C     C_R   0.499999 0.314064 0.000000 -0.190892
C128  C     C_R   0.313455 0.000002 0.499999 -0.190588
C129  C     C_R   0.000005 0.313802 0.500001 -0.187398
C130  C     C_R   0.686545 0.999998 0.499999 -0.190587
C131  C     C_R   0.999998 0.686197 0.500001 -0.187387
C132  C     C_R   0.813803 0.500002 0.999999 -0.187392
C133  C     C_R   0.500002 0.813455 0.000001 -0.190587
C134  C     C_R   0.186197 0.499998 0.999998 -0.187389
C135  C     C_R   0.999999 0.619971 0.500000 0.872345
C136  C     C_R   0.499998 0.186545 0.000001 -0.190587
C137  C     C_R   0.999999 0.120202 0.500000 0.859828
C138  C     C_R   0.879914 0.000000 0.500000 0.864422
C139  C     C_R   1.000000 0.879798 0.500000 0.859827
C140  C     C_R   0.120086 1.000000 0.500000 0.864423
C141  C     C_R   0.500000 0.620086 0.000000 0.864423
C142  C     C_R   0.379798 0.500000 0.000000 0.859827
C143  C     C_R   0.500000 0.379914 1.000000 0.864423
C144  C     C_R   0.620202 0.500000 1.000000 0.859828
C145  C     C_R   0.500000 1.000000 0.390693 0.890787
C146  C     C_R   0.880029 0.500001 0.000000 0.872346
C147  C     C_R   1.000000 0.500000 0.390692 0.886202
C148  C     C_R   0.500000 0.000000 0.609307 0.890790
C149  C     C_R   1.000000 0.500000 0.609308 0.886202
C150  C     C_R   1.000000 0.500000 0.890692 0.886201
C151  C     C_R   0.500000 0.000000 0.890693 0.890790
C152  C     C_R   1.000000 0.500000 0.109308 0.886202
C153  C     C_R   0.500000 1.000000 0.109307 0.890788
C154  C     C_1   0.500000 1.000000 0.330448 -0.200302
C155  C     C_1   0.000000 0.500000 0.330448 -0.203753
C156  C     C_1   0.500000 0.000000 0.669552 -0.200299
C157  C     C_R   0.500000 0.879898 0.000000 0.875155
C158  C     C_1   1.000000 0.500000 0.669552 -0.203753
C159  C     C_1   1.000000 0.500000 0.830448 -0.203753
C160  C     C_1   0.500000 0.000000 0.830448 -0.200300
C161  C     C_1   1.000000 0.500000 0.169552 -0.203752
C162  C     C_1   0.500000 1.000000 0.169552 -0.200301
C163  C     C_1   0.500000 1.000000 0.279653 -0.003678
C164  C     C_1   1.000000 0.500000 0.279653 -0.005741
C165  C     C_1   0.500000 0.000000 0.720347 -0.003677
C166  C     C_1   1.000000 0.500000 0.720347 -0.005753
C167  C     C_1   1.000000 0.500000 0.779653 -0.005753
C168  C     C_R   0.119971 0.499999 1.000000 0.872346
C169  C     C_1   0.500000 0.000000 0.779653 -0.003677
C170  C     C_1   1.000000 0.500000 0.220347 -0.005743
C171  C     C_1   0.500000 1.000000 0.220347 -0.003678
C172  C     C_R   0.311783 0.918834 0.425054 -0.203281
C173  C     C_R   0.074420 0.312691 0.419564 -0.184805
C174  C     C_R   0.688217 0.081166 0.425054 -0.203280
C175  C     C_R   0.925613 0.687306 0.419542 -0.184790
C176  C     C_R   0.688220 0.918830 0.574943 -0.203285
C177  C     C_R   0.925613 0.312697 0.580454 -0.184771
C178  C     C_R   0.311779 0.081172 0.574942 -0.203286
C179  C     C_R   0.499999 0.120102 0.000000 0.875154
C180  C     C_R   0.074378 0.687303 0.580463 -0.184778
C181  C     C_R   0.812697 0.425613 0.919543 -0.184781
C182  C     C_R   0.581171 0.811779 0.925057 -0.203286
C183  C     C_R   0.187304 0.574382 0.919540 -0.184780
C184  C     C_R   0.418829 0.188220 0.925057 -0.203285
C185  C     C_R   0.187306 0.425609 0.080453 -0.184787
C186  C     C_R   0.418834 0.811783 0.074946 -0.203280
C187  C     C_R   0.812693 0.574395 0.080452 -0.184790
C188  C     C_R   0.581166 0.188218 0.074946 -0.203280
C189  C     C_R   0.280924 0.870440 0.397833 0.157412
C190  C     C_R   0.281506 0.957739 0.464664 0.057677
C191  C     C_R   0.118887 0.281224 0.387721 0.158946
C192  C     C_R   0.719076 0.129559 0.397833 0.157411
C193  C     C_R   0.881155 0.718771 0.387689 0.158937
C194  C     C_R   0.719082 0.870437 0.602165 0.157412
C195  C     C_R   0.881154 0.281232 0.612306 0.158933
C196  C     C_R   0.280918 0.129565 0.602163 0.157409
C197  C     C_R   0.118834 0.718767 0.612318 0.158932
C198  C     C_R   0.781233 0.381154 0.887692 0.158933
C199  C     C_R   0.629565 0.780918 0.897836 0.157412
C200  C     C_R   0.218768 0.618839 0.887686 0.158932
H1    H     H_    0.359776 0.925331 0.414475 0.154355
H2    H     H_    0.574675 0.859772 0.914479 0.154358
H3    H     H_    0.689984 0.635386 0.340133 0.251533
H4    H     H_    0.778209 0.646318 0.405315 0.226426
H5    H     H_    0.755604 0.720502 0.377829 0.221136
H6    H     H_    0.841511 0.712467 0.304392 0.203949
H7    H     H_    0.863179 0.639753 0.334139 0.202378
H8    H     H_    0.825658 0.768730 0.215747 0.255881
H9    H     H_    0.900533 0.743148 0.191033 0.264073
H10   H     H_    0.864548 0.810052 0.159877 0.251535
H11   H     H_    0.853646 0.721830 0.094680 0.226422
H12   H     H_    0.779456 0.744402 0.122177 0.221133
H13   H     H_    0.138915 0.567862 0.910645 0.149696
H14   H     H_    0.787539 0.658488 0.195603 0.203958
H15   H     H_    0.860252 0.636852 0.165836 0.202382
H16   H     H_    0.252979 0.847831 0.230301 0.265101
H17   H     H_    0.211866 0.867347 0.165954 0.260698
H18   H     H_    0.186730 0.803217 0.208860 0.247469
H19   H     H_    0.243312 0.769155 0.121426 0.225973
H20   H     H_    0.280444 0.744972 0.186462 0.223759
H21   H     H_    0.355219 0.831738 0.179114 0.198472
H22   H     H_    0.315296 0.860875 0.117948 0.210119
H23   H     H_    0.174366 0.231290 0.215772 0.255899
H24   H     H_    0.425326 0.140227 0.914479 0.154358
H25   H     H_    0.099483 0.256861 0.191068 0.264069
H26   H     H_    0.135468 0.189956 0.159914 0.251542
H27   H     H_    0.146353 0.278165 0.094702 0.226422
H28   H     H_    0.220549 0.255608 0.122194 0.221135
H29   H     H_    0.212455 0.341535 0.195611 0.203957
H30   H     H_    0.139743 0.363158 0.165838 0.202382
H31   H     H_    0.747021 0.152171 0.230300 0.265101
H32   H     H_    0.788134 0.132655 0.165952 0.260698
H33   H     H_    0.813270 0.196785 0.208858 0.247469
H34   H     H_    0.756689 0.230846 0.121425 0.225973
H35   H     H_    0.138916 0.432127 0.089348 0.149697
H36   H     H_    0.719556 0.255029 0.186461 0.223759
H37   H     H_    0.644781 0.168263 0.179112 0.198472
H38   H     H_    0.684704 0.139126 0.117946 0.210119
H39   H     H_    0.174337 0.768735 0.784271 0.255869
H40   H     H_    0.099451 0.743076 0.808891 0.264068
H41   H     H_    0.135339 0.809992 0.840123 0.251533
H42   H     H_    0.146246 0.721754 0.905291 0.226410
H43   H     H_    0.220451 0.744382 0.877867 0.221139
H44   H     H_    0.212480 0.658496 0.804393 0.203976
H45   H     H_    0.139764 0.636796 0.834113 0.202369
H46   H     H_    0.425331 0.859776 0.085525 0.154355
H47   H     H_    0.747027 0.847817 0.769702 0.265101
H48   H     H_    0.788141 0.867329 0.834050 0.260698
H49   H     H_    0.813274 0.803198 0.791143 0.247470
H50   H     H_    0.756693 0.769140 0.878577 0.225973
H51   H     H_    0.719559 0.744960 0.813541 0.223758
H52   H     H_    0.644788 0.831732 0.820892 0.198474
H53   H     H_    0.684712 0.860864 0.882058 0.210117
H54   H     H_    0.825675 0.231272 0.784261 0.255880
H55   H     H_    0.900552 0.256891 0.808933 0.264075
H56   H     H_    0.864615 0.189981 0.840122 0.251537
H57   H     H_    0.861082 0.567878 0.089346 0.149699
H58   H     H_    0.853705 0.278212 0.905306 0.226422
H59   H     H_    0.779511 0.255610 0.877843 0.221139
H60   H     H_    0.787534 0.341508 0.804395 0.203979
H61   H     H_    0.860247 0.363178 0.834137 0.202382
H62   H     H_    0.252975 0.152182 0.769701 0.265100
H63   H     H_    0.211861 0.132668 0.834048 0.260697
H64   H     H_    0.186727 0.196800 0.791142 0.247470
H65   H     H_    0.243308 0.230858 0.878577 0.225974
H66   H     H_    0.280441 0.255039 0.813541 0.223758
H67   H     H_    0.355214 0.168268 0.820890 0.198474
H68   H     H_    0.574669 0.140225 0.085524 0.154355
H69   H     H_    0.315290 0.139134 0.882056 0.210118
H70   H     H_    0.191809 0.825999 0.388502 0.132008
H71   H     H_    0.162886 0.193441 0.373954 0.139362
H72   H     H_    0.808192 0.174000 0.388502 0.132008
H73   H     H_    0.067907 0.361081 0.410669 0.149696
H74   H     H_    0.837130 0.806542 0.373933 0.139376
H75   H     H_    0.808200 0.825997 0.611496 0.132008
H76   H     H_    0.837125 0.193463 0.626058 0.139384
H77   H     H_    0.191799 0.174005 0.611493 0.132009
H78   H     H_    0.162866 0.806534 0.626070 0.139383
H79   H     H_    0.693463 0.337127 0.873938 0.139380
H80   H     H_    0.674004 0.691799 0.888506 0.132009
H81   H     H_    0.306536 0.662869 0.873934 0.139382
H82   H     H_    0.325997 0.308200 0.888504 0.132009
H83   H     H_    0.306545 0.337130 0.126066 0.139377
H84   H     H_    0.640224 0.074669 0.414476 0.154355
H85   H     H_    0.325999 0.691809 0.111499 0.132008
H86   H     H_    0.693453 0.662877 0.126058 0.139375
H87   H     H_    0.674001 0.308192 0.111497 0.132008
H88   H     H_    0.137516 0.896661 0.448276 0.153864
H89   H     H_    0.099582 0.138384 0.441118 0.158625
H90   H     H_    0.862484 0.103338 0.448276 0.153863
H91   H     H_    0.900418 0.861606 0.441111 0.158616
H92   H     H_    0.862489 0.896661 0.551723 0.153866
H93   H     H_    0.900413 0.138398 0.558879 0.158604
H94   H     H_    0.137511 0.103340 0.551722 0.153867
H95   H     H_    0.932132 0.638916 0.410649 0.149697
H96   H     H_    0.099583 0.861601 0.558887 0.158610
H97   H     H_    0.638397 0.400417 0.941115 0.158611
H98   H     H_    0.603339 0.637511 0.948277 0.153866
H99   H     H_    0.361602 0.599583 0.941115 0.158609
H100  H     H_    0.396661 0.362489 0.948277 0.153866
H101  H     H_    0.361608 0.400419 0.058888 0.158618
H102  H     H_    0.396662 0.637516 0.051725 0.153864
H103  H     H_    0.638391 0.599584 0.058884 0.158615
H104  H     H_    0.603339 0.362484 0.051724 0.153864
H105  H     H_    0.347816 0.247027 0.730297 0.265101
H106  H     H_    0.640227 0.925326 0.585521 0.154358
H107  H     H_    0.367329 0.288142 0.665950 0.260698
H108  H     H_    0.303197 0.313274 0.708857 0.247471
H109  H     H_    0.269139 0.256694 0.621423 0.225972
H110  H     H_    0.244960 0.219559 0.686458 0.223758
H111  H     H_    0.331733 0.144789 0.679107 0.198474
H112  H     H_    0.360864 0.184714 0.617940 0.210117
H113  H     H_    0.731274 0.325612 0.715747 0.255885
H114  H     H_    0.756897 0.400511 0.691135 0.264075
H115  H     H_    0.689988 0.364604 0.659913 0.251546
H116  H     H_    0.778217 0.353746 0.594725 0.226412
H117  H     H_    0.932134 0.361085 0.589352 0.149697
H118  H     H_    0.755618 0.279529 0.622135 0.221148
H119  H     H_    0.841515 0.287523 0.695605 0.203981
H120  H     H_    0.863191 0.360239 0.665875 0.202368
H121  H     H_    0.652182 0.752975 0.730298 0.265101
H122  H     H_    0.632668 0.711862 0.665951 0.260698
H123  H     H_    0.696800 0.686727 0.708857 0.247470
H124  H     H_    0.730858 0.743308 0.621423 0.225973
H125  H     H_    0.755039 0.780441 0.686459 0.223757
H126  H     H_    0.668268 0.855214 0.679110 0.198474
H127  H     H_    0.639134 0.815291 0.617944 0.210118
H128  H     H_    0.359772 0.074676 0.585521 0.154359
H129  H     H_    0.268730 0.674316 0.715724 0.255884
H130  H     H_    0.243057 0.599436 0.691111 0.264083
H131  H     H_    0.309975 0.635309 0.659875 0.251542
H132  H     H_    0.221730 0.646224 0.594714 0.226425
H133  H     H_    0.244376 0.720425 0.622126 0.221155
H134  H     H_    0.158499 0.712485 0.695608 0.203977
H135  H     H_    0.136780 0.639770 0.665900 0.202376
H136  H     H_    0.652171 0.247020 0.269699 0.265101
H137  H     H_    0.632654 0.288133 0.334046 0.260697
H138  H     H_    0.696784 0.313269 0.291141 0.247469
H139  H     H_    0.067857 0.638915 0.589357 0.149696
H140  H     H_    0.730845 0.256688 0.378575 0.225973
H141  H     H_    0.755029 0.219556 0.313538 0.223758
H142  H     H_    0.668263 0.144780 0.320887 0.198472
H143  H     H_    0.639126 0.184703 0.382053 0.210118
H144  H     H_    0.268727 0.325522 0.284182 0.255862
H145  H     H_    0.243308 0.400415 0.309008 0.264045
H146  H     H_    0.310189 0.364264 0.340060 0.251522
H147  H     H_    0.222035 0.353420 0.405338 0.226403
H148  H     H_    0.244428 0.279228 0.377712 0.221081
H149  H     H_    0.158428 0.287598 0.304389 0.203973
H150  H     H_    0.861085 0.432132 0.910648 0.149698
H151  H     H_    0.136977 0.360310 0.334281 0.202371
H152  H     H_    0.347830 0.752979 0.269699 0.265101
H153  H     H_    0.367347 0.711866 0.334046 0.260698
H154  H     H_    0.303217 0.686731 0.291140 0.247468
H155  H     H_    0.269155 0.743312 0.378574 0.225973
H156  H     H_    0.244972 0.780444 0.313538 0.223759
H157  H     H_    0.331738 0.855219 0.320887 0.198472
H158  H     H_    0.360875 0.815296 0.382053 0.210119
H159  H     H_    0.731281 0.674302 0.284259 0.255888
H160  H     H_    0.756901 0.599435 0.308961 0.264076
O1    O     O_R   0.408370 0.051730 0.500010 -0.624219
O2    O     O_R   0.448270 0.908370 0.000010 -0.624213
O3    O     O_R   0.091630 0.448270 0.000010 -0.623233
O4    O     O_R   0.551730 0.091630 0.000010 -0.624214
O5    O     O_R   0.091630 0.551730 0.999990 -0.623232
O6    O     O_R   0.551730 0.908370 0.999990 -0.624217
O7    O     O_R   0.908370 0.448270 0.999990 -0.623231
O8    O     O_R   0.448270 0.091630 0.999990 -0.624217
O9    O     O_R   0.499980 0.051730 0.417240 -0.620329
O10   O     O_R   0.948270 0.499980 0.417240 -0.619351
O11   O     O_R   0.500020 0.948270 0.417240 -0.620327
O12   O     O_R   0.948270 0.408370 0.500010 -0.623230
O13   O     O_R   0.051730 0.500020 0.417240 -0.619366
O14   O     O_R   0.500020 0.051730 0.582760 -0.620327
O15   O     O_R   0.051730 0.499980 0.582760 -0.619347
O16   O     O_R   0.499980 0.948270 0.582760 -0.620327
O17   O     O_R   0.948270 0.500020 0.582760 -0.619353
O18   O     O_R   0.999980 0.551730 0.917240 -0.619351
O19   O     O_R   0.448270 0.999980 0.917240 -0.620327
O20   O     O_R   0.000020 0.448270 0.917240 -0.619352
O21   O     O_R   0.551730 0.000020 0.917240 -0.620327
O22   O     O_R   0.000020 0.551730 0.082760 -0.619354
O23   O     O_R   0.591630 0.948270 0.500010 -0.624217
O24   O     O_R   0.551730 0.999980 0.082760 -0.620328
O25   O     O_R   0.999980 0.448270 0.082760 -0.619353
O26   O     O_R   0.448270 0.000020 0.082760 -0.620328
O27   O     O_R   0.999980 0.091600 0.546760 -0.625892
O28   O     O_R   0.908400 0.999980 0.546760 -0.625349
O29   O     O_R   0.000020 0.908400 0.546760 -0.625893
O30   O     O_R   0.091600 0.000020 0.546760 -0.625348
O31   O     O_R   0.000020 0.091600 0.453240 -0.625899
O32   O     O_R   0.091600 0.999980 0.453240 -0.625353
O33   O     O_R   0.999980 0.908400 0.453240 -0.625894
O34   O     O_R   0.051730 0.591630 0.500010 -0.623232
O35   O     O_R   0.908400 0.000020 0.453240 -0.625351
O36   O     O_R   0.499980 0.591600 0.046760 -0.625351
O37   O     O_R   0.408400 0.499980 0.046760 -0.625895
O38   O     O_R   0.500020 0.408400 0.046760 -0.625351
O39   O     O_R   0.591600 0.500020 0.046760 -0.625894
O40   O     O_R   0.500020 0.591600 0.953240 -0.625349
O41   O     O_R   0.591600 0.499980 0.953240 -0.625894
O42   O     O_R   0.499980 0.408400 0.953240 -0.625349
O43   O     O_R   0.408400 0.500020 0.953240 -0.625892
O44   O     O_R   0.591630 0.051730 0.499990 -0.624213
O45   O     O_R   0.051730 0.408370 0.499990 -0.623233
O46   O     O_R   0.408370 0.948270 0.499990 -0.624212
O47   O     O_R   0.948270 0.591630 0.499990 -0.623235
O48   O     O_R   0.908370 0.551730 0.000010 -0.623234
Zn1   Zn    Zn3+2 0.500000 0.069080 0.500000 0.938200
Zn2   Zn    Zn3+2 1.000000 0.000000 0.437580 0.942526
Zn3   Zn    Zn3+2 0.500000 0.500000 0.062420 0.942527
Zn4   Zn    Zn3+2 0.500000 0.500000 0.937580 0.942530
Zn5   Zn    Zn3+2 0.930920 0.500000 0.500000 0.942040
Zn6   Zn    Zn3+2 0.500000 0.930920 0.500000 0.938204
Zn7   Zn    Zn3+2 0.069080 0.500000 0.500000 0.942049
Zn8   Zn    Zn3+2 0.000000 0.569080 0.000000 0.942040
Zn9   Zn    Zn3+2 0.430920 0.000000 0.000000 0.938204
Zn10  Zn    Zn3+2 0.000000 0.430920 0.000000 0.942044
Zn11  Zn    Zn3+2 0.569080 0.000000 0.000000 0.938203
Zn12  Zn    Zn3+2 0.000000 0.000000 0.562420 0.942531

loop_
_geom_bond_atom_site_label_1
_geom_bond_atom_site_label_2
_ccdc_geom_bond_type
O48   Zn8   S    
C150  O20   A    
C8    C26   A    
C7    C97   S    
C14   C195  A    
C46   C129  A    
C41   H103  S    
C65   H116  S    
C15   C32   A    
C149  O15   A    
C66   H115  S    
C65   H118  S    
C62   H109  S    
C69   H125  S    
C158  C166  T    
C19   C200  A    
C188  H68   S    
C122  C139  S    
C57   C178  A    
C99   H33   S    
C61   H111  S    
C113  C184  A    
C64   C195  S    
C137  O31   A    
C112  O12   A    
C144  O39   A    
C108  C109  S    
C117  C132  A    
C114  H64   S    
C110  C111  S    
C16   H78   S    
C100  H45   S    
C19   C37   A    
C142  O43   A    
C69   H124  S    
C38   C55   A    
C13   C130  A    
C56   C126  A    
C112  C129  S    
C147  C155  S    
C3    C184  A    
O17   Zn5   S    
O7    Zn10  S    
C5    C186  A    
C57   C128  A    
C83   H152  S    
C77   H149  S    
C104  C105  S    
C67   H127  S    
C165  C169  S    
C40   C58   A    
C138  O35   A    
C63   H108  S    
C64   H119  S    
C178  H128  S    
O37   Zn3   S    
C116  C133  A    
C172  C190  A    
C173  C191  A    
C96   H26   S    
C143  O42   A    
C75   C76   S    
O28   Zn12  S    
C82   H155  S    
C154  C163  T    
C39   C56   A    
C46   C49   A    
C176  H106  S    
C139  O33   A    
C124  C130  S    
C107  H61   S    
C127  C143  S    
O43   Zn4   S    
C124  O44   A    
O23   Zn6   S    
C81   C189  S    
C15   C196  A    
C185  H35   S    
C150  O18   A    
C17   C34   A    
C42   C60   A    
O29   Zn12  S    
C48   C121  A    
C118  C136  A    
C146  O7    A    
C66   H113  S    
C80   H145  S    
C177  C195  A    
C50   C57   A    
C182  C199  A    
C11   C193  A    
O9    Zn1   S    
C72   C73   S    
C107  C198  S    
C99   H31   S    
O6    Zn11  S    
C115  C134  A    
O22   Zn8   S    
C97   H37   S    
C23   C41   A    
C21   H83   S    
C132  C146  S    
O12   Zn5   S    
C96   H25   S    
C13   C45   A    
C24   C131  A    
C168  O3    A    
C115  C185  A    
C86   H159  S    
C109  H55   S    
O25   Zn10  S    
C128  C190  A    
C139  O29   A    
C114  H62   S    
C69   C70   S    
C95   H27   S    
O36   Zn3   S    
C49   C120  A    
C14   H76   S    
O42   Zn4   S    
C88   C89   S    
C98   C99   S    
C88   H12   S    
O18   Zn8   S    
C107  H60   S    
C181  H150  S    
C9    C191  A    
C77   H151  S    
C70   H123  S    
C37   H99   S    
C38   H100  S    
C104  H52   S    
C92   H19   S    
C54   C101  A    
C164  C170  S    
C14   C31   A    
C97   C98   S    
C85   H5    S    
C85   C86   S    
C29   C47   A    
C119  C140  S    
C156  C165  T    
C30   C48   A    
C105  H50   S    
C78   C80   S    
C3    C110  S    
C109  H54   S    
C2    C129  A    
C20   C38   A    
C93   H17   S    
C8    H70   S    
C85   H4    S    
O34   Zn7   S    
C2    C44   A    
C103  H40   S    
C21   C39   A    
C76   H137  S    
C107  C108  S    
C102  H42   S    
C78   H147  S    
C52   C79   A    
C149  C158  S    
C152  C161  S    
C100  H44   S    
C145  O9    A    
C93   H16   S    
C58   C116  A    
C46   C177  A    
O21   Zn11  S    
C73   H129  S    
C135  O47   A    
C12   H75   S    
C71   H135  S    
C153  O24   A    
C19   H81   S    
C162  C171  T    
C111  H65   S    
C83   H153  S    
C91   C92   S    
C89   H9    S    
C178  C196  A    
O24   Zn11  S    
C104  H53   S    
C135  O34   A    
O10   Zn5   S    
C84   H6    S    
C36   H98   S    
C98   H34   S    
O3    Zn10  S    
C72   H132  S    
C96   H23   S    
C98   H36   S    
C91   H22   S    
C152  O22   A    
O45   Zn7   S    
C35   C130  A    
C5    C91   S    
C53   C125  A    
C70   H121  S    
C145  C154  S    
C100  C200  S    
O26   Zn9   S    
C103  H39   S    
C55   C127  A    
O38   Zn3   S    
C134  C168  S    
C161  C170  T    
C157  O6    A    
C186  H46   S    
C94   H30   S    
C187  H57   S    
C151  O19   A    
C147  O10   A    
O16   Zn6   S    
C180  H139  S    
C120  C137  S    
C32   H94   S    
C62   H110  S    
C174  H84   S    
C109  H56   S    
C183  C200  A    
C106  H48   S    
C71   C72   S    
C4    C94   S    
C87   H14   S    
C175  C193  A    
C133  C157  S    
C81   H158  S    
C102  C103  S    
C23   H86   S    
C145  O11   A    
C141  O40   A    
C108  H59   S    
O5    Zn8   S    
C152  O25   A    
C174  C192  A    
O1    Zn1   S    
C87   C88   S    
C183  H13   S    
C72   H133  S    
O13   Zn7   S    
C1    C128  S    
C142  O37   A    
C1    O46   A    
C140  O30   A    
C77   C78   S    
C74   H142  S    
C54   C126  A    
C136  C179  S    
C146  O48   A    
C64   H120  S    
C137  O27   A    
C2    C173  A    
O19   Zn9   S    
C44   C120  A    
C147  O13   A    
O14   Zn1   S    
O2    Zn9   S    
C110  H67   S    
C82   H156  S    
C43   C190  A    
C123  C144  S    
C160  C169  T    
C60   C118  A    
C179  O8    A    
C67   C194  S    
C163  C171  S    
C101  C183  A    
C9    H71   S    
C10   H72   S    
C80   H146  S    
C20   H82   S    
C31   C49   A    
C35   C48   A    
C99   H32   S    
C66   H114  S    
C59   C123  A    
C13   C174  A    
O11   Zn6   S    
C77   C191  S    
C15   H77   S    
C63   H107  S    
C84   C85   S    
C150  C159  S    
C90   C133  A    
C112  O45   A    
C61   H112  S    
O35   Zn2   S    
C116  C186  A    
C6    C187  A    
C126  C142  S    
C71   H134  S    
C10   C192  A    
C79   C181  A    
C1    O1    A    
C4    C185  A    
C25   H87   S    
C114  H63   S    
C11   H74   S    
C26   H88   S    
C62   C63   S    
O8    Zn9   S    
C22   H85   S    
O39   Zn3   S    
C8    C189  A    
C86   H160  S    
C3    C20   A    
C27   H89   S    
C40   H102  S    
C17   H79   S    
C18   H80   S    
C155  C164  T    
C75   H140  S    
C177  H117  S    
O44   Zn1   S    
C153  O26   A    
C9    C27   A    
C140  O32   A    
C10   C28   A    
C12   C30   A    
C182  H2    S    
C60   C127  A    
C88   H11   S    
C25   C42   A    
C172  C189  A    
C33   C51   A    
C105  C106  S    
C34   C52   A    
C7    C25   A    
C153  C162  S    
C45   C121  A    
C64   C65   S    
C73   H131  S    
O27   Zn12  S    
C92   C93   S    
C56   C115  A    
C111  C114  S    
C94   C95   S    
C157  O2    A    
C33   H96   S    
O15   Zn7   S    
C82   C83   S    
C76   H138  S    
C53   C90   A    
C51   C122  A    
C87   H15   S    
C102  H43   S    
C148  C156  S    
C78   H148  S    
C24   C175  A    
C18   C36   A    
C16   C197  A    
C31   H93   S    
O40   Zn4   S    
C168  O5    A    
C68   C131  A    
C175  H95   S    
C108  H58   S    
C95   C96   S    
C63   H105  S    
C81   C82   S    
C42   H104  S    
C101  C134  A    
C97   H38   S    
O31   Zn2   S    
C124  O23   A    
C35   C176  A    
O47   Zn5   S    
C106  H49   S    
C131  C135  S    
C149  O17   A    
C52   C123  A    
C89   H8    S    
C6    C23   A    
C141  O36   A    
C73   H130  S    
C92   H20   S    
C95   H28   S    
C180  C197  A    
C176  C194  A    
O41   Zn4   S    
C5    C22   A    
C90   C182  A    
C144  O41   A    
C113  C136  A    
C91   H21   S    
C143  O38   A    
C29   H91   S    
C30   H92   S    
C70   H122  S    
C67   H126  S    
C148  O14   A    
C80   H144  S    
C61   C62   S    
C159  C167  T    
C181  C198  A    
C27   C44   A    
C26   C43   A    
C71   C197  S    
O20   Zn10  S    
C93   H18   S    
O4    Zn11  S    
C28   C45   A    
C74   C75   S    
C50   C119  A    
C76   H136  S    
C7    C188  A    
C17   C198  A    
C105  H51   S    
C117  C187  A    
C125  C141  S    
C118  C188  A    
C47   C122  A    
C55   C113  A    
C68   C180  A    
C6    C87   S    
C179  O4    A    
C67   C69   S    
C121  C138  S    
C16   C33   A    
O32   Zn2   S    
C61   C196  S    
C84   C193  S    
C151  O21   A    
C22   C40   A    
C100  C102  S    
C81   H157  S    
C32   C50   A    
C36   C53   A    
C173  H73   S    
C37   C54   A    
C166  C167  S    
C106  H47   S    
C104  C199  S    
C138  O28   A    
C184  H24   S    
O46   Zn6   S    
C74   C192  S    
C24   C47   A    
C12   C194  A    
C75   H141  S    
C111  H66   S    
C83   H154  S    
C110  H69   S    
C89   H10   S    
C74   H143  S    
C39   H101  S    
C151  C160  S    
C28   H90   S    
C4    C21   A    
C84   H7    S    
C34   H97   S    
C79   C132  A    
C86   H3    S    
C103  H41   S    
O30   Zn12  S    
O33   Zn2   S    
C51   C68   A    
C172  H1    S    
C148  O16   A    
C11   C29   A    
C58   C125  A    
C59   C117  A    
C65   C66   S    
C41   C59   A    
C43   C119  A    
C18   C199  A    
C94   H29   S    
