data_mof_unit_41209.cif
_audit_creation_date              2012-12-11T18:04:57-0500
_audit_creation_method            fapswitch 2.2
_symmetry_space_group_name_H-M    P1
_symmetry_Int_Tables_number       1
_space_group_crystal_system       triclinic
_cell_length_a                    8.27316
_cell_length_b                    12.68319
_cell_length_c                    22.802222
_cell_angle_alpha                 96.33816
_cell_angle_beta                  88.95085
_cell_angle_gamma                 98.55166
_cell_volume                      2351.57121167

loop_
_atom_site_label
_atom_site_type_symbol
_atom_type_description
_atom_site_fract_x
_atom_site_fract_y
_atom_site_fract_z
_atom_type_partial_charge
Ba1   Ba    Ba6+2 0.856210 0.551220 0.472190 1.654789
Ba2   Ba    Ba6+2 0.333620 0.448870 0.527810 1.649598
C1    C     C_3   0.595041 0.915327 0.300113 -0.351385
C2    C     C_R   0.083154 0.589687 0.942654 -0.026954
C3    C     C_R   0.041681 0.585157 0.882098 0.596063
C4    C     C_3   0.118497 0.783646 0.311334 0.298356
C5    C     C_R   0.972331 0.393787 0.876728 0.562414
C6    C     C_R   0.013486 0.395614 0.936749 -0.017798
C7    C     C_R   0.068852 0.494120 0.969946 -0.043109
C8    C     C_R   0.137817 0.687566 0.976775 -0.064185
C9    C     C_R   0.178104 0.690383 0.036409 -0.045605
C10   C     C_R   0.165796 0.595380 0.064000 -0.012808
C11   C     C_R   0.110655 0.496875 0.030611 -0.044952
C12   C     C_3   0.627610 0.823714 0.333832 0.342346
C13   C     C_R   0.000810 0.300564 0.964261 -0.078233
C14   C     C_R   0.042689 0.303184 0.023568 -0.056977
C15   C     C_R   0.098440 0.400946 0.057484 -0.023361
C16   C     C_3   0.080191 0.815482 0.251295 -0.262719
C17   C     C_R   0.144557 0.404660 0.117308 0.640402
C18   C     C_R   0.210330 0.596514 0.123817 0.665307
C19   C     C_2   0.792538 0.428574 0.768695 -0.084556
C20   C     C_3   0.762016 0.395319 0.703588 -0.095556
C21   C     C_1   0.007283 0.521381 0.685414 0.038488
C22   C     C_2   0.053320 0.530047 0.741871 -0.099494
C23   C     C_3   0.475453 0.289976 0.348762 0.278474
C24   C     C_2   0.938895 0.482880 0.787515 0.219411
C25   C     C_R   0.422339 0.541644 0.227375 0.392201
C26   C     C_R   0.463058 0.556581 0.288474 -0.075078
C27   C     C_R   0.190212 0.474599 0.313713 0.044521
C28   C     C_3   0.237799 0.779140 0.598341 0.279045
C29   C     C_R   0.143918 0.467234 0.254104 -0.160644
C30   C     C_R   0.256600 0.503856 0.210564 0.138570
C31   C     C_2   0.870015 0.463460 0.664659 -0.261733
C32   C     C_R   0.759409 0.180380 0.522120 -0.282266
C33   C     C_R   0.434154 0.810300 0.475313 -0.290619
C34   C     C_3   0.458904 0.258390 0.282592 -0.328825
C35   C     C_R   0.407731 0.989409 0.455493 -0.100609
C36   C     C_R   0.345369 0.881193 0.452617 0.001870
C37   C     C_R   0.578453 0.847837 0.506554 0.053046
C38   C     C_R   0.641368 0.959218 0.512151 -0.062782
C39   C     C_R   0.555354 0.030200 0.485252 -0.060456
C40   C     C_3   0.200385 0.892954 0.602157 -0.350855
C41   C     C_R   0.616876 0.140700 0.490474 0.055162
C42   C     C_R   0.849185 0.111492 0.545802 -0.013586
C43   C     C_R   0.787154 0.002260 0.543288 -0.081606
C44   C     C_3   0.969086 0.220687 0.404039 0.275481
C45   C     C_3   0.968584 0.185307 0.685542 0.341651
C46   C     C_3   0.959786 0.100060 0.389894 -0.336753
C47   C     C_3   0.715889 0.689189 0.646505 0.294209
C48   C     C_3   0.731193 0.717578 0.712939 -0.351956
C49   C     C_3   0.486893 0.112971 0.666194 -0.214525
C50   C     C_3   0.547572 0.006650 0.672899 -0.491530
C51   C     C_3   0.456801 0.213401 0.836208 -0.227915
C52   C     C_3   0.363356 0.309259 0.842997 -0.354072
C53   C     C_3   0.951070 0.131972 0.742393 -0.338575
C54   C     C_3   0.497978 0.193172 0.722601 0.384633
C55   C     C_3   0.425888 0.141044 0.777431 -0.152710
C56   C     C_R   0.346201 0.524275 0.330364 -0.377036
H1    H     H_    0.705528 0.856821 0.372713 0.048223
H2    H     H_    0.833641 0.668686 0.628706 0.019877
H3    H     H_    0.618961 0.619168 0.637393 0.090212
H4    H     H_    0.540864 0.975804 0.330145 0.084187
H5    H     H_    0.832260 0.784946 0.723124 0.127138
H6    H     H_    0.757135 0.647436 0.734189 0.080467
H7    H     H_    0.615169 0.741613 0.731313 0.131988
H8    H     H_    0.507431 0.784961 0.349476 -0.071158
H9    H     H_    0.508298 0.884103 0.263493 0.146625
H10   H     H_    0.356174 0.309270 0.366293 0.025042
H11   H     H_    0.570450 0.361776 0.356578 0.054041
H12   H     H_    0.207165 0.929906 0.648587 0.133504
H13   H     H_    0.364267 0.186732 0.273644 0.134233
H14   H     H_    0.422465 0.324954 0.260692 0.081675
H15   H     H_    0.577496 0.239686 0.263806 0.141637
H16   H     H_    0.710561 0.954192 0.281336 0.127942
H17   H     H_    0.188671 0.865181 0.233944 0.117515
H18   H     H_    0.015581 0.271906 0.696160 0.058923
H19   H     H_    0.845557 0.176187 0.665308 -0.081788
H20   H     H_    0.055269 0.164136 0.771718 0.137969
H21   H     H_    0.838348 0.148571 0.766278 0.114329
H22   H     H_    0.945830 0.043720 0.732822 0.109406
H23   H     H_    0.287104 0.941271 0.574502 0.084091
H24   H     H_    0.628333 0.220025 0.732784 -0.030706
H25   H     H_    0.485808 0.070097 0.782823 0.064808
H26   H     H_    0.294266 0.111296 0.771177 0.109304
H27   H     H_    0.027094 0.714523 0.320460 0.108017
H28   H     H_    0.031777 0.228011 0.042742 0.125627
H29   H     H_    0.958868 0.223386 0.939880 0.119464
H30   H     H_    0.220125 0.767515 0.060814 0.124654
H31   H     H_    0.149882 0.762602 0.957426 0.121787
H32   H     H_    0.174867 0.569341 0.755006 0.114714
H33   H     H_    0.705559 0.395541 0.800249 0.085198
H34   H     H_    0.075213 0.891936 0.586425 0.138162
H35   H     H_    0.020742 0.431810 0.241306 0.151933
H36   H     H_    0.379875 0.533141 0.376476 0.095111
H37   H     H_    0.242363 0.759605 0.310096 -0.035003
H38   H     H_    0.846950 0.447447 0.617591 0.077390
H39   H     H_    0.336295 0.040646 0.435736 0.105868
H40   H     H_    0.853595 0.952603 0.565754 0.098562
H41   H     H_    0.806651 0.265096 0.525098 0.056028
H42   H     H_    0.384938 0.725898 0.471827 0.068945
H43   H     H_    0.044490 0.742474 0.220185 0.140275
H44   H     H_    0.976689 0.862411 0.254728 0.151147
H45   H     H_    0.846181 0.240495 0.414842 0.002902
H46   H     H_    0.370827 0.781070 0.602429 0.017957
H47   H     H_    0.194514 0.738022 0.554681 0.047306
H48   H     H_    0.670713 0.019869 0.692639 0.142367
H49   H     H_    0.462288 0.956225 0.700127 0.145027
H50   H     H_    0.553188 0.960958 0.628993 0.146954
H51   H     H_    0.359291 0.096163 0.650756 0.177064
H52   H     H_    0.559636 0.151492 0.630839 0.083390
H53   H     H_    0.415434 0.371195 0.814522 0.157968
H54   H     H_    0.233011 0.283036 0.832062 0.163871
H55   H     H_    0.371831 0.346704 0.889432 0.116585
H56   H     H_    0.052222 0.247035 0.442205 0.069494
H57   H     H_    0.417620 0.163722 0.872621 0.124239
H58   H     H_    0.589622 0.241567 0.842092 0.147750
H59   H     H_    0.820128 0.513899 0.160395 0.343755
H60   H     H_    0.879342 0.071786 0.351273 0.117781
H61   H     H_    0.909749 0.058304 0.427794 0.084627
H62   H     H_    0.083945 0.079825 0.379619 0.146373
N1    N     N_R   0.986228 0.487784 0.849620 -0.421264
N2    N     N_R   0.201572 0.501647 0.149793 -0.411078
O1    O     O_2   0.890290 0.440320 0.360790 -0.460186
O2    O     O_2   0.187293 0.115577 0.540809 -0.480145
O3    O     O_3   0.079548 0.136849 0.648235 -0.599509
O4    O     O_3   0.130840 0.441440 0.431840 -0.496773
O5    O     O_3   0.574800 0.630800 0.528960 -0.489964
O6    O     O_2   0.344900 0.234690 0.472540 -0.466110
O7    O     O_3   0.520250 0.203722 0.374908 -0.649887
O8    O     O_2   0.474882 0.484016 0.705086 -0.491462
O9    O     O_3   0.412462 0.278491 0.712722 -0.576285
O10   O     O_2   0.052739 0.668049 0.858679 -0.595198
O11   O     O_2   0.925245 0.307702 0.848356 -0.645071
O12   O     O_3   0.676223 0.777837 0.621527 -0.648085
O13   O     O_2   0.136694 0.321288 0.140149 -0.579290
O14   O     O_2   0.261200 0.681845 0.152348 -0.591239
O15   O     O_3   0.672400 0.637930 0.395560 -0.494943
O16   O     O_2   0.806730 0.566615 0.294779 -0.443396
O17   O     O_3   0.025668 0.268687 0.353965 -0.624536
O18   O     O_3   0.710351 0.753079 0.296688 -0.563817
O19   O     O_2   0.844800 0.765340 0.527490 -0.464340
O20   O     O_3   0.090520 0.693800 0.424220 -0.493682
O21   O     O_2   0.013969 0.885530 0.463223 -0.482331
O22   O     O_2   0.517932 0.522669 0.111493 -0.297234
O23   O     O_3   0.109303 0.870896 0.354057 -0.616765
O24   O     O_2   0.650023 0.676546 0.176438 -0.269201
O25   O     O_3   0.727603 0.487943 0.185834 -0.519732
O26   O     O_2   0.299410 0.559720 0.639240 -0.452000
O27   O     O_3   0.058870 0.558650 0.568170 -0.497505
O28   O     O_3   0.517310 0.362160 0.604450 -0.455902
O29   O     O_3   0.161151 0.731118 0.645807 -0.630128
O30   O     O_3   0.614910 0.369290 0.471050 -0.478357
O31   O     O_3   0.099190 0.306290 0.575790 -0.473035
P1    P     P_3+3 0.057140 0.408270 0.369700 1.002576
P2    P     P_3+3 0.667360 0.749400 0.544670 0.962268
P3    P     P_3+3 0.139775 0.832459 0.423886 0.939864
P4    P     P_3+3 0.132580 0.591820 0.630310 0.991726
P5    P     P_3+3 0.052916 0.166924 0.576450 0.960673
P6    P     P_3+3 0.663040 0.624096 0.318394 1.047836
P7    P     P_3+3 0.526612 0.235859 0.451502 0.939301
P8    P     P_3+3 0.542761 0.380312 0.681602 0.951789
S1    S     S_3+6 0.579395 0.559823 0.172991 -0.044569

loop_
_geom_bond_atom_site_label_1
_geom_bond_atom_site_label_2
_ccdc_geom_bond_type
Ba2   O28   S    
C47   O12   S    
O30   P7    S    
C17   N2    Am   
C16   H17   S    
C42   P5    S    
C36   P3    S    
C19   C24   D    
C23   O7    S    
C35   H39   S    
O21   P3    D    
C5    C6    A    
C46   H62   S    
C51   C52   S    
C12   H1    S    
O24   S1    D    
C47   H2    S    
O29   P4    S    
C45   C53   S    
C22   C24   S    
C45   H18   S    
C5    O11   D    
C43   H40   S    
O18   P6    S    
O9    P8    S    
C17   O13   D    
C13   C14   A    
C52   H55   S    
C3    N1    Am   
C40   H12   S    
C48   H6    S    
C54   C55   S    
Ba1   O30   S    
Ba1   Ba2   S    
C16   H44   S    
O31   P5    S    
Ba1   P2    S    
C1    H16   S    
C7    C11   A    
Ba1   O20   S    
O23   P3    S    
O16   P6    D    
C3    O10   D    
C29   C30   A    
C8    H31   S    
C14   C15   A    
C21   C31   D    
O2    P5    D    
C21   C22   D    
C55   H25   S    
O28   P8    S    
Ba1   O27   S    
C24   N1    S    
C18   N2    Am   
C51   H58   S    
Ba2   O5    S    
Ba2   O27   S    
C50   H48   S    
C49   H51   S    
C19   C20   S    
O27   P4    S    
C14   H28   S    
C48   H5    S    
C39   C41   A    
Ba1   O5    S    
C23   H10   S    
C5    N1    Am   
C40   H23   S    
C27   C56   A    
C45   O3    S    
C46   H61   S    
Ba2   O30   S    
C38   C43   A    
C4    C16   S    
C44   C46   S    
C47   H3    S    
O15   P6    S    
C49   C50   S    
C30   N2    S    
C33   C36   A    
C32   C42   A    
Ba1   O4    S    
C50   H49   S    
C41   P7    S    
C8    C9    A    
O5    P2    S    
C37   C38   A    
C20   P8    S    
C51   C55   S    
O3    P5    S    
C6    C7    A    
C46   H60   S    
O17   P1    S    
C29   H35   S    
C26   P6    S    
C37   P2    S    
C16   H43   S    
C33   C37   A    
Ba1   O1    S    
C27   P1    S    
C35   C36   A    
C53   H21   S    
O12   P2    S    
C9    H30   S    
C10   C18   A    
C32   H41   S    
C12   H8    S    
C55   H26   S    
C52   H54   S    
C18   O14   D    
C4    H27   S    
C1    C12   S    
Ba2   O4    S    
O8    P8    D    
C38   C39   A    
C12   O18   S    
C4    H37   S    
C6    C13   A    
C28   H47   S    
C23   H11   S    
C45   H19   S    
C2    C8    A    
C33   H42   S    
C31   H38   S    
O4    P1    S    
Ba1   O15   S    
C42   C43   A    
O6    P7    D    
C13   H29   S    
C19   H33   S    
C1    H4    S    
C4    O23   S    
C20   C31   S    
O22   S1    D    
C25   C30   A    
O19   P2    D    
C32   C41   A    
C49   C54   S    
C44   H56   S    
C2    C3    A    
O25   S1    S    
C22   H32   S    
C49   H52   S    
C9    C10   A    
C34   H13   S    
C54   H24   S    
C26   C56   A    
Ba2   O31   S    
C44   H45   S    
C11   C15   A    
H59   O25   S    
C56   H36   S    
C25   S1    S    
C53   H22   S    
C28   O29   S    
C1    H9    S    
Ba2   P4    S    
C21   P4    S    
C15   C17   A    
C52   H53   S    
C40   H34   S    
O26   P4    D    
C35   C39   A    
Ba1   P1    S    
C48   H7    S    
C54   O9    S    
Ba1   O19   S    
C34   H15   S    
C53   H20   S    
C23   C34   S    
C34   H14   S    
C10   C11   A    
C50   H50   S    
C27   C29   A    
C47   C48   S    
C28   H46   S    
C25   C26   A    
C28   C40   S    
O20   P3    S    
C2    C7    A    
Ba2   O26   S    
O7    P7    S    
C51   H57   S    
C44   O17   S    
O1    P1    D    
Ba2   O6    S    
