data_mof_unit_11059.cif
_audit_creation_date              2013-03-05T15:47:09-0500
_audit_creation_method            fapswitch 2.2
_symmetry_space_group_name_H-M    P1
_symmetry_Int_Tables_number       1
_space_group_crystal_system       triclinic
_cell_length_a                    10.245861
_cell_length_b                    10.397417
_cell_length_c                    13.542261
_cell_angle_alpha                 92.481557
_cell_angle_beta                  101.082248
_cell_angle_gamma                 96.375583
_cell_volume                      1403.9112608

loop_
_atom_site_label
_atom_site_type_symbol
_atom_site_description
_atom_site_fract_x
_atom_site_fract_y
_atom_site_fract_z
_atom_type_partial_charge
O1    O     O_R   0.935190 0.693030 0.507870 -0.601319
O2    O     O_R   0.064810 0.306970 0.492130 -0.585019
O3    O     O_R   0.142080 0.658430 0.482770 -0.534911
O4    O     O_R   0.857920 0.341570 0.517230 -0.566148
C1    C     C_R   0.054690 0.735682 0.497142 0.881388
C2    C     C_R   0.947682 0.264947 0.507995 0.877369
O5    O     O_R   0.969700 0.527180 0.651960 -0.591078
O6    O     O_R   0.030300 0.472820 0.348040 -0.574607
O7    O     O_R   0.176600 0.492580 0.626860 -0.609092
O8    O     O_R   0.823400 0.507420 0.373140 -0.584272
C3    C     C_R   0.094275 0.514148 0.686051 0.853286
C4    C     C_R   0.906068 0.487559 0.313577 0.914374
Zn1   Zn    Zn3+2 0.861850 0.523100 0.516760 1.029033
Zn2   Zn    Zn3+2 0.138150 0.476900 0.483240 1.040913
C5    C     C_R   0.142974 0.522775 0.794677 -0.086149
C6    C     C_R   0.850969 0.465097 0.205549 -0.059524
C7    C     C_R   0.134298 0.610263 0.961563 -0.033193
C8    C     C_R   0.828641 0.338100 0.047987 -0.020907
C9    C     C_R   0.078648 0.589351 0.858834 -0.207256
C10   C     C_R   0.904106 0.383579 0.143226 -0.208173
C11   C     C_R   0.258462 0.469392 0.833362 -0.158223
C12   C     C_R   0.730738 0.510936 0.168238 -0.117854
C13   C     C_R   0.308028 0.473437 0.937082 0.103193
C14   C     C_R   0.639752 0.442433 0.088022 0.081495
C15   C     C_R   0.249383 0.549598 0.002997 0.007796
C16   C     C_R   0.689296 0.353274 0.025655 0.010074
C17   C     C_R   0.423965 0.413687 0.974255 -0.035894
C18   C     C_R   0.501928 0.461649 0.068239 -0.040310
C19   C     C_R   0.436351 0.522194 0.138771 -0.075563
C20   C     C_R   0.464545 0.307540 0.921780 -0.097975
C21   C     C_R   0.307664 0.559621 0.106867 0.210381
C22   C     C_R   0.596258 0.275247 0.950049 0.258650
H1    H     H_    0.706784 0.594519 0.207863 0.154723
H2    H     H_    0.312358 0.428067 0.781063 0.181624
H3    H     H_    0.004175 0.357548 0.167886 0.203666
H4    H     H_    0.991526 0.635570 0.827230 0.190287
H5    H     H_    0.115187 0.140873 0.620485 0.194643
H6    H     H_    0.981656 0.884430 0.628087 0.216810
C23   C     C_2   0.091208 0.876339 0.510314 -0.237040
C24   C     C_2   0.924534 0.127384 0.524479 -0.194200
C25   C     C_2   0.037317 0.938862 0.579509 -0.190754
C26   C     C_2   0.027407 0.077386 0.581356 -0.145001
N1    N     N_2   0.322180 0.446120 0.460900 -0.194903
N2    N     N_2   0.677820 0.553880 0.539100 -0.215553
C27   C     C_2   0.431292 0.511717 0.514481 -0.072801
C28   C     C_2   0.569822 0.469611 0.520924 -0.064908
H7    H     H_    0.662937 0.650116 0.543193 0.184077
H8    H     H_    0.333165 0.365562 0.418020 0.229480
Br1   Br    Br    0.208903 0.605326 0.209404 -0.397401
Br2   Br    Br    0.636041 0.106658 0.904823 -0.345469
C29   C     C_2   0.080513 0.711748 0.016292 0.978690
O9    O     O_2   0.960355 0.703819 0.015736 -0.594067
O10   O     O_R   0.166437 0.819778 0.064251 -0.714019
H9    H     H_    0.117820 0.883417 0.097904 0.383140
C30   C     C_2   0.901020 0.288650 0.972020 0.983514
O11   O     O_2   0.999183 0.232086 0.998449 -0.575835
O12   O     O_R   0.860874 0.312766 0.870504 -0.742378
H10   H     H_    0.919759 0.277206 0.826296 0.365353
C31   C     C_2   0.491775 0.533881 0.248175 0.929259
O13   O     O_2   0.525743 0.438787 0.291532 -0.585836
O14   O     O_R   0.508969 0.655567 0.300268 -0.732680
H11   H     H_    0.554344 0.654510 0.373239 0.334575
C32   C     C_2   0.365131 0.217397 0.848697 0.939221
O15   O     O_2   0.254984 0.182450 0.867388 -0.585303
O16   O     O_R   0.397275 0.173790 0.758198 -0.732323
H12   H     H_    0.324198 0.108715 0.716825 0.350741
C33   C     C_2   0.801002 0.047493 0.468612 0.952384
O17   O     O_2   0.740454 0.083865 0.389962 -0.590911
O18   O     O_R   0.753442 0.931488 0.505408 -0.776124
H13   H     H_    0.668506 0.886696 0.460340 0.362731
C34   C     C_2   0.173471 0.943004 0.443662 0.993396
O19   O     O_2   0.196852 0.882499 0.370849 -0.537327
O20   O     O_R   0.225201 0.073707 0.463771 -0.791710
H14   H     H_    0.275946 0.107467 0.411072 0.362347
C35   C     C_2   0.582579 0.329855 0.522792 1.042103
O21   O     O_2   0.638891 0.287268 0.600334 -0.555010
O22   O     O_R   0.526045 0.245853 0.438456 -0.764165
H15   H     H_    0.532773 0.151596 0.452377 0.369983
C36   C     C_2   0.422157 0.629343 0.576197 0.982463
O23   O     O_2   0.402340 0.730114 0.535784 -0.590225
O24   O     O_R   0.447653 0.627570 0.681212 -0.795649
H16   H     H_    0.440858 0.714442 0.715622 0.355894

loop_
_geom_bond_atom_site_label_1
_geom_bond_atom_site_label_2
_geom_bond_distance
_ccdc_geom_bond_type
C15   C21   1.413025 A    
C30   O11   1.223418 D    
C32   O16   1.398656 S    
C16   C22   1.412902 A    
C25   C26   1.454553 S    
C8    C16   1.429287 A    
O7    Zn2   1.904807 S    
C7    C29   1.478121 S    
O24   H16   1.013819 S    
C23   C25   1.353307 D    
C27   C28   1.519067 S    
C5    C9    1.392044 A    
O1    C1    1.292386 A    
C18   C19   1.431301 A    
C14   C16   1.425445 A    
C9    H4    1.084959 S    
O4    Zn1   1.883709 S    
O20   H14   1.013243 S    
H5    C26   1.086305 S    
C35   O22   1.396311 S    
C10   H3    1.083442 S    
C3    C5    1.455152 S    
C4    C6    1.461878 S    
C24   C33   1.486033 S    
O6    Zn2   1.944269 S    
C13   C17   1.418272 A    
N1    H8    1.027318 S    
O14   H11   1.009082 S    
N2    H7    1.029503 S    
C6    C10   1.394385 A    
C24   C26   1.348609 D    
C31   O13   1.221313 D    
C20   C32   1.488488 S    
C17   C20   1.429502 A    
O2    C2    1.291527 A    
C21   Br1   1.941069 S    
C28   C35   1.474222 S    
N2    C28   1.309192 D    
C31   O14   1.398184 S    
C33   O17   1.222817 D    
C19   C31   1.475790 S    
C2    C24   1.457569 S    
H6    C25   1.087697 S    
O4    C2    1.301724 A    
C34   O20   1.397998 S    
C11   H2    1.080672 S    
O22   H15   1.013291 S    
C29   O9    1.223248 D    
C33   O18   1.398366 S    
O5    C3    1.295353 A    
C35   O21   1.222996 D    
O7    C3    1.300248 A    
O5    Zn1   1.944269 S    
O6    C4    1.297164 A    
C27   C36   1.473097 S    
N1    C27   1.310509 D    
C22   Br2   1.943089 S    
O3    Zn2   1.883709 S    
O8    C4    1.302977 A    
C8    C30   1.484866 S    
C30   O12   1.399069 S    
C12   C14   1.397364 A    
O1    Zn1   1.859888 S    
C36   O24   1.396997 S    
C1    C23   1.463163 S    
C6    C12   1.382724 A    
C14   C18   1.423960 A    
C32   O15   1.223286 D    
O3    C1    1.303051 A    
O8    Zn1   1.904806 S    
O10   H9    1.013917 S    
C7    C15   1.429878 A    
C11   C13   1.395886 A    
C34   O19   1.223121 D    
C19   C21   1.409286 A    
C20   C22   1.411963 A    
O12   H10   1.014084 S    
C7    C9    1.396109 A    
C8    C10   1.402680 A    
C13   C15   1.426740 A    
O18   H13   1.013854 S    
O2    Zn2   1.859889 S    
C36   O23   1.221775 D    
C5    C11   1.383974 A    
O16   H12   1.012780 S    
C17   C18   1.404428 A    
C23   C34   1.490787 S    
C29   O10   1.398534 S    
Zn1   N2    2.023403 S    
Zn2   N1    2.023403 S    
C12   H1    1.077524 S    
