data_mof_unit_57199.cif
_audit_creation_date              2012-12-10T19:15:22-0500
_audit_creation_method            fapswitch 2.2
_symmetry_space_group_name_H-M    P1
_symmetry_Int_Tables_number       1
_space_group_crystal_system       triclinic
_cell_length_a                    10.637762
_cell_length_b                    9.681633
_cell_length_c                    23.39462
_cell_angle_alpha                 90.606796
_cell_angle_beta                  89.974437
_cell_angle_gamma                 89.74458
_cell_volume                      2409.27379366

loop_
_atom_site_label
_atom_site_type_symbol
_atom_type_description
_atom_site_fract_x
_atom_site_fract_y
_atom_site_fract_z
_atom_type_partial_charge
C1    C     C_R   0.257764 0.500535 0.500745 0.864219
C2    C     C_R   0.643422 0.492856 0.119677 0.550906
C3    C     C_R   0.586619 0.609965 0.242784 -0.109456
C4    C     C_R   0.499382 0.499209 0.389191 0.880107
C5    C     C_R   0.576364 0.603696 0.301452 -0.193499
C6    C     C_R   0.506980 0.498458 0.326883 -0.103825
C7    C     C_R   0.446701 0.396888 0.292703 -0.102358
C8    C     C_R   0.460634 0.400328 0.232615 -0.000171
C9    C     C_R   0.529285 0.510376 0.208379 0.291174
C10   C     C_R   0.513136 0.637299 0.761093 -0.099810
C11   C     C_R   0.506400 0.632439 0.701971 -0.221375
C12   C     C_R   0.315346 0.612676 0.972703 -0.129208
C13   C     C_R   0.505057 0.504472 0.673121 -0.047882
C14   C     C_R   0.510410 0.381420 0.704242 -0.227816
C15   C     C_R   0.517164 0.386707 0.763577 -0.091500
C16   C     C_R   0.742653 0.499854 0.499558 0.808768
C17   C     C_R   0.518484 0.514687 0.791850 0.317230
C18   C     C_3   0.070996 0.649967 0.510564 -0.401060
C19   C     C_3   0.071933 0.404996 0.547006 -0.377137
C20   C     C_3   0.928341 0.649473 0.509006 -0.407062
C21   C     C_3   0.928226 0.409827 0.548115 -0.360743
C22   C     C_3   0.077142 0.450661 0.440226 -0.304463
C23   C     C_R   0.319060 0.617460 0.031993 -0.124197
C24   C     C_3   0.121836 0.501487 0.499791 0.074188
C25   C     C_3   0.879365 0.499605 0.498014 0.030913
C26   C     C_3   0.930717 0.442676 0.438569 -0.020946
C27   C     C_3   0.374886 0.081436 0.482824 -0.216145
C28   C     C_3   0.374780 0.918811 0.482995 -0.226891
C29   C     C_3   0.592905 0.079820 0.457706 -0.235409
C30   C     C_3   0.592201 0.917100 0.457331 -0.223342
C31   C     C_3   0.531697 0.082486 0.555891 -0.233539
C32   C     C_3   0.532340 0.919972 0.555803 -0.235346
C33   C     C_R   0.500733 0.500886 0.610821 0.882946
C34   C     C_R   0.429070 0.579959 0.061159 -0.005925
C35   C     C_R   0.633904 0.489767 0.879516 0.515471
C36   C     C_R   0.418732 0.561662 0.882037 0.513005
C37   C     C_R   0.421851 0.571271 0.941582 -0.018059
C38   C     C_R   0.534220 0.537593 0.970403 -0.014864
C39   C     C_R   0.641437 0.497643 0.939164 -0.057759
C40   C     C_2   0.881828 0.528681 0.389019 0.284170
C41   C     C_2   0.888036 0.294616 0.427165 0.455678
C42   C     C_2   0.887787 0.461685 0.053861 0.493530
C43   C     C_2   0.366462 0.290995 0.319536 0.338101
C44   C     C_2   0.406675 0.287639 0.196058 0.463058
C45   C     C_R   0.538365 0.541708 0.030481 0.000355
C46   C     C_R   0.650340 0.505228 0.059695 -0.109339
C47   C     C_R   0.761331 0.476071 0.027524 -0.032998
C48   C     C_R   0.754001 0.469152 0.967749 -0.117683
C49   C     C_R   0.431141 0.575672 0.120546 0.568335
H1    H     H_    0.228430 0.639973 0.951428 0.199295
H2    H     H_    0.895556 0.721586 0.475401 0.176590
H3    H     H_    0.890688 0.302904 0.545887 0.205715
H4    H     H_    0.113625 0.523075 0.407471 0.182296
H5    H     H_    0.121586 0.349274 0.429585 0.215148
H6    H     H_    0.347064 0.119107 0.439918 0.157854
H7    H     H_    0.346613 0.878706 0.440159 0.160063
H8    H     H_    0.234590 0.647668 0.054884 0.197785
H9    H     H_    0.302175 0.120288 0.513225 0.155519
H10   H     H_    0.302419 0.882572 0.513643 0.149088
H11   H     H_    0.573159 0.118059 0.413981 0.140565
H12   H     H_    0.502688 0.728861 0.678982 0.149809
H13   H     H_    0.570220 0.878624 0.413526 0.150977
H14   H     H_    0.462623 0.120725 0.588130 0.148801
H15   H     H_    0.464204 0.883034 0.588240 0.146910
H16   H     H_    0.688511 0.116596 0.469073 0.174226
H17   H     H_    0.687933 0.878012 0.467554 0.153888
H18   H     H_    0.837934 0.444817 0.943284 0.223098
H19   H     H_    0.638523 0.693675 0.223652 0.151449
H20   H     H_    0.622852 0.681993 0.327151 0.153204
H21   H     H_    0.509796 0.281667 0.682855 0.149428
H22   H     H_    0.810946 0.608068 0.395759 0.064303
H23   H     H_    0.520941 0.291851 0.787643 0.142857
H24   H     H_    0.803893 0.275587 0.402016 0.067573
H25   H     H_    0.625190 0.121651 0.569685 0.151845
H26   H     H_    0.626419 0.881363 0.569143 0.149554
H27   H     H_    0.910735 0.515916 0.093212 0.125819
H28   H     H_    0.407783 0.213697 0.346984 0.075112
H29   H     H_    0.339668 0.215353 0.213425 0.116752
H30   H     H_    0.514261 0.736193 0.783162 0.139961
H31   H     H_    0.106103 0.721724 0.477289 0.188228
H32   H     H_    0.103389 0.296737 0.538838 0.202101
H33   H     H_    0.103523 0.689541 0.552904 0.180651
H34   H     H_    0.109344 0.437307 0.589515 0.160881
H35   H     H_    0.891864 0.690418 0.550541 0.187892
H36   H     H_    0.896012 0.454528 0.589707 0.164328
N1    N     N_R   0.523603 0.520870 0.852576 -0.359263
N2    N     N_R   0.535286 0.527731 0.148020 -0.331776
N3    N     N_3   0.499750 0.138610 0.498760 -0.045451
N4    N     N_3   0.499750 0.861390 0.498760 -0.040884
O1    O     O_R   0.314910 0.616040 0.499990 -0.631117
O2    O     O_2   0.311755 0.591759 0.853644 -0.546381
O3    O     O_2   0.328827 0.615105 0.150880 -0.539299
O4    O     O_2   0.740401 0.440273 0.149594 -0.546075
O5    O     O_2   0.918772 0.506545 0.340292 -0.503006
O6    O     O_2   0.943600 0.195736 0.447336 -0.615116
O7    O     O_2   0.969711 0.392177 0.030720 -0.547351
O8    O     O_2   0.253158 0.290740 0.311287 -0.534640
O9    O     O_2   0.438792 0.270810 0.146369 -0.553388
O10   O     O_R   0.314910 0.383960 0.499990 -0.631739
O11   O     O_R   0.500080 0.616070 0.416130 -0.621975
O12   O     O_R   0.500080 0.383930 0.416130 -0.641353
O13   O     O_R   0.685320 0.616040 0.499970 -0.632379
O14   O     O_R   0.685320 0.383960 0.499970 -0.635560
O15   O     O_R   0.500150 0.616010 0.583820 -0.628169
O16   O     O_R   0.500150 0.383990 0.583820 -0.628181
O17   O     O_2   0.735815 0.452272 0.848543 -0.547998
Zn1   Zn    Zn3+2 0.500150 0.654960 0.499970 0.909639
Zn2   Zn    Zn3+2 0.500150 0.345040 0.499970 0.909549

loop_
_geom_bond_atom_site_label_1
_geom_bond_atom_site_label_2
_ccdc_geom_bond_type
C1    O1    A    
C40   H22   S    
C33   O15   A    
C49   N2    A    
C3    H19   S    
C1    O10   A    
C32   H26   S    
C28   H7    S    
C7    C8    A    
C22   H5    S    
C41   O6    D    
C45   C46   A    
C2    C46   A    
C15   H23   S    
C12   C23   A    
C29   C30   S    
C18   C24   S    
C36   C37   A    
C19   C21   S    
O1    Zn1   S    
C20   H2    S    
C30   H13   S    
C5    C6    A    
N3    Zn2   S    
C35   N1    A    
C27   H6    S    
C20   C25   S    
C10   C17   A    
C23   H8    S    
C12   C37   A    
C38   C45   A    
C5    H20   S    
C44   O9    D    
C47   C48   A    
C8    C9    A    
C34   C49   A    
C28   N4    S    
C7    C43   S    
C18   C20   S    
O12   Zn2   S    
C48   H18   S    
C13   C14   A    
C14   H21   S    
C29   N3    S    
C30   N4    S    
C19   H34   S    
C22   H4    S    
C2    O4    S    
O16   Zn2   S    
C21   H36   S    
C17   N1    S    
C31   H14   S    
C2    N2    A    
C33   O16   A    
C32   H15   S    
C4    C6    S    
C31   H25   S    
C36   N1    A    
C25   C26   S    
C35   C39   A    
C13   C33   S    
C37   C38   A    
O10   Zn2   S    
C16   O14   A    
C32   N4    S    
C29   H11   S    
C23   C34   A    
C4    O12   A    
N4    Zn1   S    
O13   Zn1   S    
C34   C45   A    
C3    C9    A    
C8    C44   S    
C30   H17   S    
C29   H16   S    
C36   O2    S    
C16   O13   A    
C20   H35   S    
C42   O7    D    
C49   O3    S    
C28   H10   S    
C16   C25   S    
C15   C17   A    
C21   C25   S    
C46   C47   A    
O11   Zn1   S    
C31   N3    S    
C31   C32   S    
C43   O8    D    
C40   O5    D    
C3    C5    A    
C27   H9    S    
C12   H1    S    
C10   H30   S    
C6    C7    A    
C43   H28   S    
C42   H27   S    
C4    O11   A    
C19   C24   S    
C35   O17   S    
C9    N2    S    
C11   C13   A    
C26   C40   S    
C38   C39   A    
C44   H29   S    
C18   H33   S    
C22   C24   S    
C42   C47   S    
O15   Zn1   S    
C11   H12   S    
C27   N3    S    
C10   C11   A    
C41   H24   S    
C1    C24   S    
C18   H31   S    
C22   C26   S    
C27   C28   S    
C14   C15   A    
O14   Zn2   S    
C19   H32   S    
C21   H3    S    
C26   C41   S    
C39   C48   A    
