data_mof_unit_48907.cif
_audit_creation_date              2012-10-26T19:04:19-0400
_audit_creation_method            fapswitch 2.2
_symmetry_space_group_name_H-M    P1
_symmetry_Int_Tables_number       1
_space_group_crystal_system       triclinic
_cell_length_a                    14.910145
_cell_length_b                    15.77126
_cell_length_c                    9.651946
_cell_angle_alpha                 90.124135
_cell_angle_beta                  90.744865
_cell_angle_gamma                 90.021529
_cell_volume                      2269.47491251

loop_
_atom_site_label
_atom_site_type_symbol
_atom_type_description
_atom_site_fract_x
_atom_site_fract_y
_atom_site_fract_z
_atom_type_partial_charge
C1    C     C_R   0.382321 0.880061 0.498799 0.656441
C2    C     C_R   0.676932 0.255256 0.395609 -0.003730
C3    C     C_R   0.194566 0.261581 0.373566 -0.004827
C4    C     C_R   0.176921 0.755268 0.395678 -0.003727
C5    C     C_R   0.665561 0.794852 0.502306 -0.029936
C6    C     C_R   0.669226 0.200714 0.511067 -0.109739
C7    C     C_R   0.165621 0.294908 0.502289 -0.029952
C8    C     C_R   0.169284 0.700671 0.511080 -0.109688
C9    C     C_R   0.666120 0.969331 0.143189 0.091318
C10   C     C_R   0.166088 0.469293 0.143203 0.091247
C11   C     C_R   0.731890 0.925167 0.071912 -0.192760
C12   C     C_R   0.375535 0.113006 0.499011 0.602481
C13   C     C_R   0.231812 0.425041 0.071965 -0.192808
C14   C     C_R   0.731916 0.927390 0.930235 -0.129107
C15   C     C_R   0.231868 0.427286 0.930279 -0.129291
C16   C     C_R   0.663493 0.968789 0.860617 0.386846
C17   C     C_R   0.163481 0.468737 0.860640 0.386759
C18   C     C_R   0.580361 0.986582 0.926386 0.096939
C19   C     C_R   0.080355 0.486565 0.926391 0.096974
C20   C     C_R   0.581093 0.987451 0.075933 0.041330
C21   C     C_R   0.081084 0.487436 0.075934 0.041302
C22   C     C_R   0.423928 0.010836 0.072120 0.538996
C23   C     C_R   0.882324 0.380054 0.498804 0.656274
C24   C     C_R   0.923926 0.510815 0.072120 0.539033
C25   C     C_R   0.611895 0.124445 0.502209 0.555620
C26   C     C_R   0.611844 0.874857 0.501058 0.632066
C27   C     C_R   0.111921 0.624427 0.502213 0.555686
C28   C     C_R   0.111858 0.374873 0.501056 0.631959
C29   C     C_R   0.424243 0.011261 0.925067 0.035809
C30   C     C_R   0.924242 0.511249 0.925069 0.035787
C31   C     C_R   0.227461 0.102869 0.703313 0.384858
C32   C     C_R   0.378375 0.742602 0.704310 0.399708
C33   C     C_R   0.727519 0.602917 0.703531 0.384800
C34   C     C_R   0.875494 0.612961 0.499011 0.602453
C35   C     C_R   0.878181 0.242727 0.704594 0.399769
C36   C     C_R   0.173104 0.110734 0.818269 -0.042790
C37   C     C_R   0.362756 0.704645 0.831845 -0.049565
C38   C     C_R   0.673209 0.610825 0.818529 -0.042673
C39   C     C_R   0.862451 0.204864 0.832171 -0.049510
C40   C     C_R   0.628649 0.686304 0.842543 -0.110529
C41   C     C_R   0.775975 0.180175 0.864930 -0.111767
C42   C     C_R   0.128556 0.186213 0.842344 -0.110431
C43   C     C_R   0.276314 0.679914 0.864722 -0.111819
C44   C     C_R   0.635695 0.753646 0.750052 -0.035099
C45   C     C_R   0.268962 0.207732 0.373713 0.345755
C46   C     C_R   0.708174 0.184265 0.764385 -0.022513
C47   C     C_R   0.135647 0.253591 0.749938 -0.035124
C48   C     C_R   0.208431 0.684062 0.764314 -0.022376
C49   C     C_R   0.681520 0.743765 0.623377 -0.040720
C50   C     C_R   0.726526 0.213416 0.628581 -0.041672
C51   C     C_R   0.181507 0.243754 0.623293 -0.040922
C52   C     C_R   0.226668 0.713305 0.628523 -0.041737
C53   C     C_R   0.237362 0.171481 0.610311 -0.030400
C54   C     C_R   0.307549 0.756529 0.609143 -0.012711
C55   C     C_R   0.737381 0.671489 0.610441 -0.030403
C56   C     C_R   0.248794 0.812214 0.391105 0.369842
C57   C     C_R   0.807433 0.256610 0.609265 -0.012611
C58   C     C_R   0.294812 0.166554 0.496065 0.022479
C59   C     C_R   0.314994 0.812285 0.496143 0.029342
C60   C     C_R   0.794718 0.666454 0.496076 0.022548
C61   C     C_R   0.814974 0.312291 0.496171 0.029276
C62   C     C_2   0.633317 0.761797 0.249542 0.636809
C63   C     C_2   0.607034 0.258760 0.283861 0.689180
C64   C     C_2   0.133448 0.261751 0.249569 0.636536
C65   C     C_2   0.106973 0.758803 0.284010 0.689199
C66   C     C_2   0.712925 0.027204 0.238718 0.610865
C67   C     C_R   0.768660 0.707413 0.373636 0.345768
C68   C     C_2   0.212919 0.527223 0.238612 0.610802
C69   C     C_R   0.748827 0.312179 0.391047 0.369851
C70   C     C_R   0.694376 0.761407 0.373581 -0.005038
Cu1   Cu    Cu3+1 0.499990 0.000000 0.640660 1.083575
Cu2   Cu    Cu3+1 0.999990 0.500000 0.640660 1.083623
Cu3   Cu    Cu3+1 0.500010 1.000000 0.359340 1.215710
Cu4   Cu    Cu3+1 0.000010 0.500000 0.359340 1.215666
F1    F     F_    0.310347 0.188188 0.253577 -0.576103
F2    F     F_    0.963137 0.259507 0.668433 -0.670704
F3    F     F_    0.344906 0.020310 0.138058 -0.521599
F4    F     F_    0.844897 0.520235 0.138056 -0.521178
F5    F     F_    0.252193 0.869781 0.286558 -0.537695
F6    F     F_    0.809636 0.687426 0.253349 -0.575716
F7    F     F_    0.752294 0.369689 0.286423 -0.537636
F8    F     F_    0.688562 0.000358 0.738247 -0.611669
F9    F     F_    0.188571 0.500315 0.738282 -0.611734
F10   F     F_    0.258374 0.024299 0.672001 -0.640494
F11   F     F_    0.463295 0.759435 0.668008 -0.670706
F12   F     F_    0.758377 0.524325 0.672228 -0.640539
H1    H     H_    0.791667 0.908187 0.875736 0.167311
H2    H     H_    0.761902 0.155410 0.966540 0.194670
H3    H     H_    0.083521 0.190724 0.928770 0.197009
H4    H     H_    0.262330 0.655073 0.966316 0.194476
H5    H     H_    0.597353 0.808437 0.777049 0.209169
H6    H     H_    0.641679 0.167511 0.797365 0.181485
H7    H     H_    0.097348 0.308399 0.776991 0.209249
H8    H     H_    0.141970 0.667282 0.797406 0.181645
H9    H     H_    0.793552 0.905466 0.123696 0.171804
H10   H     H_    0.293451 0.405305 0.123775 0.172090
H11   H     H_    0.731291 0.764309 0.103693 0.362668
H12   H     H_    0.291615 0.408052 0.875797 0.167339
H13   H     H_    0.503313 0.258159 0.417095 0.278792
H14   H     H_    0.231307 0.264063 0.103476 0.362854
H15   H     H_    0.003317 0.758198 0.417362 0.278686
H16   H     H_    0.789222 0.041018 0.411569 0.351841
H17   H     H_    0.289288 0.541137 0.411365 0.351809
H18   H     H_    0.361722 0.019982 0.869992 0.191126
H19   H     H_    0.861720 0.519955 0.870001 0.191226
H20   H     H_    0.163493 0.057348 0.886837 0.181138
H21   H     H_    0.417039 0.695991 0.905917 0.145166
H22   H     H_    0.663619 0.557464 0.887160 0.181255
H23   H     H_    0.916678 0.196249 0.906358 0.145347
H24   H     H_    0.583619 0.690832 0.928974 0.196972
N1    N     N_R   0.501200 0.000000 0.147910 -0.243685
N2    N     N_R   0.001200 0.500000 0.147910 -0.243749
N3    N     N_R   0.501270 0.000000 0.852040 -0.293755
N4    N     N_R   0.001270 0.500000 0.852040 -0.293702
O1    O     O_R   0.409820 0.909830 0.618810 -0.453662
O2    O     O_R   0.590170 0.909830 0.618760 -0.448344
O3    O     O_R   0.090170 0.590170 0.618760 -0.456813
O4    O     O_R   0.090170 0.409830 0.618760 -0.448353
O5    O     O_R   0.590190 0.090180 0.381190 -0.480772
O6    O     O_R   0.590190 0.909820 0.381190 -0.500390
O7    O     O_R   0.090190 0.590180 0.381190 -0.480747
O8    O     O_R   0.090190 0.409820 0.381190 -0.500432
O9    O     O_2   0.552262 0.759865 0.266327 -0.448691
O10   O     O_R   0.664480 0.758619 0.114155 -0.692717
O11   O     O_2   0.629367 0.265692 0.163125 -0.382304
O12   O     O_R   0.409820 0.090170 0.618810 -0.515823
O13   O     O_R   0.515587 0.256297 0.314165 -0.620469
O14   O     O_2   0.052402 0.259812 0.266461 -0.448723
O15   O     O_R   0.164518 0.258329 0.114140 -0.692669
O16   O     O_2   0.129252 0.765752 0.163252 -0.382130
O17   O     O_R   0.015540 0.756346 0.314415 -0.621178
O18   O     O_2   0.721700 0.101678 0.206974 -0.524635
O19   O     O_R   0.756375 0.995339 0.356956 -0.677820
O20   O     O_2   0.221617 0.601697 0.206804 -0.524542
O21   O     O_R   0.256444 0.495422 0.356831 -0.677778
O22   O     O_R   0.909820 0.409830 0.618810 -0.453577
O23   O     O_R   0.909820 0.590170 0.618810 -0.515816
O24   O     O_R   0.409840 0.909830 0.381240 -0.414942
O25   O     O_R   0.409840 0.090170 0.381240 -0.377377
O26   O     O_R   0.909840 0.409830 0.381240 -0.414899
O27   O     O_R   0.909840 0.590170 0.381240 -0.377454
O28   O     O_R   0.590170 0.090170 0.618760 -0.456718

loop_
_geom_bond_atom_site_label_1
_geom_bond_atom_site_label_2
_ccdc_geom_bond_type
C44   C49   A    
C33   C55   A    
C34   O27   A    
Cu3   O5    S    
C22   C29   A    
C36   C42   A    
C25   O28   A    
C24   N2    A    
C4    C8    A    
C62   O10   S    
C65   O16   D    
C27   O7    A    
C39   C41   A    
C3    C64   S    
C62   C70   S    
C56   F5    S    
C48   H8    S    
C23   O22   A    
C19   C21   A    
C26   O6    A    
C14   H1    S    
C37   H21   S    
H11   O10   S    
C3    C7    A    
C1    C59   S    
Cu4   N2    S    
C4    C65   S    
C11   C14   A    
C28   O8    A    
Cu2   O22   S    
C6    C25   S    
C46   H6    S    
Cu3   O24   S    
C11   H9    S    
C66   O19   S    
Cu2   N4    S    
Cu1   N3    S    
H17   O21   S    
C9    C66   S    
C60   C67   A    
C64   O14   D    
Cu2   O3    S    
C41   C46   A    
Cu1   O12   S    
C2    C69   A    
C43   C48   A    
C8    C52   A    
C40   C44   A    
C40   H24   S    
C12   C58   S    
Cu3   O6    S    
C55   C60   A    
C4    C56   A    
C34   C60   S    
C5    C49   A    
C2    C6    A    
C25   O5    A    
C18   N3    A    
C32   C54   A    
C62   O9    D    
C65   O17   S    
C52   C54   A    
Cu3   N1    S    
C66   O18   D    
C54   C59   A    
C27   O3    A    
C10   C21   A    
C35   F2    S    
C45   C58   A    
C43   H4    S    
C13   H10   S    
C36   H20   S    
C23   O26   A    
Cu2   Cu4   S    
Cu1   Cu3   S    
H14   O15   S    
H13   O13   S    
Cu3   O25   S    
C19   N4    A    
C49   C55   A    
Cu4   O26   S    
C3    C45   A    
C31   C53   A    
C7    C28   S    
C29   H18   S    
C17   F9    S    
C37   C43   A    
C35   C39   A    
C33   F12   S    
C5    C70   A    
C20   N1    A    
C9    C20   A    
C23   C61   S    
C16   F8    S    
C47   H7    S    
C12   O25   A    
Cu1   O1    S    
C32   C37   A    
C6    C50   A    
C9    C11   A    
C63   O11   D    
C44   H5    S    
Cu1   O28   S    
H15   O17   S    
C24   F4    S    
Cu2   O23   S    
Cu4   O8    S    
Cu4   O27   S    
C13   C15   A    
C30   H19   S    
C14   C16   A    
C24   C30   A    
C15   H12   S    
C21   N2    A    
C2    C63   S    
C30   N4    A    
C61   C69   A    
C15   C17   A    
C41   H2    S    
C29   N3    A    
C50   C57   A    
C68   O21   S    
C67   F6    S    
C22   F3    S    
C10   C13   A    
C47   C51   A    
C53   C58   A    
C57   C61   A    
C10   C68   S    
C46   C50   A    
C34   O23   A    
C33   C38   A    
C56   C59   A    
C45   F1    S    
C35   C57   A    
C42   H3    S    
C67   C70   A    
C68   O20   D    
H16   O19   S    
C7    C51   A    
C28   O4    A    
C38   C40   A    
C32   F11   S    
C17   C19   A    
Cu1   O2    S    
C18   C20   A    
C42   C47   A    
C38   H22   S    
C26   O2    A    
C69   F7    S    
C31   F10   S    
C5    C26   S    
C39   H23   S    
Cu4   O7    S    
C12   O12   A    
C64   O15   S    
C16   C18   A    
C22   N1    A    
Cu2   O4    S    
C8    C27   S    
C31   C36   A    
C1    O1    A    
C51   C53   A    
C48   C52   A    
C63   O13   S    
C1    O24   A    
