data_mof_unit_50506.cif
_audit_creation_date              2012-12-10T17:13:35-0500
_audit_creation_method            fapswitch 2.2
_symmetry_space_group_name_H-M    P1
_symmetry_Int_Tables_number       1
_space_group_crystal_system       triclinic
_cell_length_a                    10.771539
_cell_length_b                    12.998312
_cell_length_c                    11.695256
_cell_angle_alpha                 100.091234
_cell_angle_beta                  94.443638
_cell_angle_gamma                 90.531356
_cell_volume                      1606.86081933

loop_
_atom_site_label
_atom_site_type_symbol
_atom_type_description
_atom_site_fract_x
_atom_site_fract_y
_atom_site_fract_z
_atom_type_partial_charge
C1    C     C_R   0.497919 0.299039 0.478472 0.870641
C2    C     C_3   0.878594 0.506332 0.503549 -0.184047
C3    C     C_3   0.942393 0.554710 0.627638 0.308205
C4    C     C_3   0.923524 0.567067 0.408454 0.006585
C5    C     C_R   0.502317 0.814455 0.534661 -0.067098
C6    C     C_R   0.498989 0.185581 0.466477 -0.047445
C7    C     C_R   0.505857 0.014608 0.346875 -0.144801
C8    C     C_R   0.503754 0.122522 0.356789 -0.137286
C9    C     C_R   0.497060 0.140164 0.566411 -0.161745
C10   C     C_R   0.499632 0.032016 0.558053 0.111185
C11   C     C_R   0.503616 0.968977 0.446576 0.136682
C12   C     C_R   0.259960 0.502807 0.500260 0.813239
C13   C     C_R   0.504926 0.860969 0.435871 -0.217010
C14   C     C_R   0.499709 0.876574 0.645213 -0.155029
C15   C     C_R   0.498155 0.984971 0.657808 0.152030
C16   C     C_R   0.385800 0.401284 0.017697 -0.299529
C17   C     C_R   0.395148 0.409535 0.139301 0.362317
C18   C     C_R   0.549849 0.543740 0.158418 -0.003578
C19   C     C_R   0.542810 0.536985 0.035078 0.053947
C20   C     C_R   0.459201 0.464698 0.964530 0.033015
C21   C     C_R   0.450741 0.457138 0.841864 0.067396
C22   C     C_R   0.605489 0.590000 0.857544 0.114738
C23   C     C_R   0.501517 0.700944 0.521602 0.871037
C24   C     C_R   0.616693 0.600153 0.980060 -0.289145
C25   C     C_R   0.740332 0.503764 0.500993 0.904573
C26   C     C_3   0.067307 0.393410 0.456497 -0.398850
C27   C     C_3   0.925250 0.390839 0.469562 0.173676
C28   C     C_3   0.084847 0.543378 0.626866 -0.379624
C29   C     C_3   0.066668 0.579628 0.421625 -0.394916
C30   C     C_3   0.122428 0.504860 0.501043 -0.043494
Cu1   Cu    Cu3+1 0.509350 0.507730 0.615930 1.016189
Cu2   Cu    Cu3+1 0.490650 0.492270 0.384070 0.987194
H1    H     H_    0.117307 0.336609 0.503340 0.227508
H2    H     H_    0.135115 0.618199 0.664636 0.216974
H3    H     H_    0.507859 0.813207 0.350241 0.163417
H4    H     H_    0.497992 0.840987 0.722186 0.181105
H5    H     H_    0.509332 0.966856 0.261387 0.152919
H6    H     H_    0.506464 0.156457 0.278790 0.185170
H7    H     H_    0.493407 0.189787 0.650422 0.184053
H8    H     H_    0.386044 0.401496 0.787602 0.128278
H9    H     H_    0.082856 0.369561 0.362980 0.185380
H10   H     H_    0.662544 0.639325 0.816574 0.185889
H11   H     H_    0.321066 0.344725 0.964678 0.180181
H12   H     H_    0.682482 0.656945 0.031053 0.165249
H13   H     H_    0.613922 0.599448 0.213020 0.153029
H14   H     H_    0.878026 0.356102 0.383104 0.117795
H15   H     H_    0.116158 0.486956 0.683848 0.205250
H16   H     H_    0.910307 0.508702 0.691766 0.178595
H17   H     H_    0.095207 0.661580 0.459889 0.227849
H18   H     H_    0.102306 0.562293 0.333635 0.188800
H19   H     H_    0.897944 0.518180 0.321494 0.136215
N1    N     N_R   0.523430 0.519360 0.790130 -0.195381
N2    N     N_R   0.476570 0.480640 0.209880 -0.202025
O1    O     O_R   0.506640 0.354460 0.582000 -0.569340
O2    O     O_R   0.490840 0.341410 0.386200 -0.575414
O3    O     O_R   0.325590 0.506510 0.597900 -0.605921
O4    O     O_R   0.309790 0.493450 0.402100 -0.570310
O5    O     O_R   0.509160 0.658590 0.613800 -0.579864
O6    O     O_R   0.493360 0.645540 0.418000 -0.596940
O7    O     O_R   0.690210 0.506550 0.597900 -0.531389
O8    O     O_R   0.674410 0.493490 0.402100 -0.599645
I1    I     I_    0.836261 0.712355 0.387090 -0.256245
S1    S     S_3+6 0.905488 0.688404 0.686628 -0.001922
O9    O     O_2   0.988776 0.764476 0.643800 -0.250983
O10   O     O_2   0.772167 0.711737 0.655629 -0.304772
O11   O     O_3   0.929651 0.704465 0.832498 -0.546836
H20   H     H_    0.901482 0.775989 0.861318 0.382871
I2    I     I_    0.492941 0.070049 0.830336 -0.333266
I3    I     I_    0.275927 0.303441 0.199102 -0.356150
S2    S     S_3+6 0.891374 0.300302 0.565438 -0.017014
O12   O     O_2   0.759487 0.307703 0.597880 -0.292553
O13   O     O_2   0.910980 0.191379 0.502154 -0.245970
O14   O     O_3   0.987727 0.322269 0.687810 -0.568643
H21   H     H_    0.966722 0.266316 0.731151 0.395009

loop_
_geom_bond_atom_site_label_1
_geom_bond_atom_site_label_2
_ccdc_geom_bond_type
C23   O5    A    
S1    O10   D    
C28   H15   S    
C17   I3    S    
O14   H21   S    
C2    C4    S    
C19   C20   A    
Cu1   N1    S    
C6    C9    A    
C7    C8    A    
C29   H17   S    
C7    C11   A    
C26   C27   S    
Cu1   O5    S    
C3    C28   S    
Cu2   O8    S    
C13   H3    S    
C10   C15   A    
C14   H4    S    
C4    I1    S    
C3    H16   S    
C9    H7    S    
C18   C19   A    
C18   N2    A    
C16   C17   A    
S2    O12   D    
C25   O7    A    
Cu1   O3    S    
C9    C10   A    
Cu2   O2    S    
C5    C13   A    
C4    C29   S    
O11   H20   S    
S1    O11   S    
C28   H2    S    
C8    H6    S    
Cu2   O4    S    
C29   H18   S    
C4    H19   S    
C1    C6    S    
C6    C8    A    
Cu1   O7    S    
C23   O6    A    
C1    O1    A    
C29   C30   S    
C26   H1    S    
Cu1   Cu2   S    
C5    C23   S    
C16   C20   A    
S2    O14   S    
C7    H5    S    
C25   O8    A    
C16   H11   S    
C5    C14   A    
C2    C27   S    
C27   S2    S    
C12   O4    A    
C27   H14   S    
C26   C30   S    
C24   H12   S    
C22   C24   A    
C18   H13   S    
C17   N2    A    
Cu2   N2    S    
C22   N1    A    
C12   C30   S    
C3    S1    S    
C28   C30   S    
C19   C24   A    
C1    O2    A    
C11   C13   A    
C22   H10   S    
C21   H8    S    
C15   I2    S    
C12   O3    A    
C2    C3    S    
C2    C25   S    
Cu1   O1    S    
C10   C11   A    
S1    O9    D    
C20   C21   A    
C14   C15   A    
S2    O13   D    
Cu2   O6    S    
C21   N1    A    
C26   H9    S    
