data_mof_unit_37661.cif
_audit_creation_date              2012-12-10T16:50:02-0500
_audit_creation_method            fapswitch 2.2
_symmetry_space_group_name_H-M    P1
_symmetry_Int_Tables_number       1
_space_group_crystal_system       triclinic
_cell_length_a                    7.820349
_cell_length_b                    8.571194
_cell_length_c                    10.596572
_cell_angle_alpha                 91.366376
_cell_angle_beta                  85.117996
_cell_angle_gamma                 94.10486
_cell_volume                      705.780364917

loop_
_atom_site_label
_atom_site_type_symbol
_atom_type_description
_atom_site_fract_x
_atom_site_fract_y
_atom_site_fract_z
_atom_type_partial_charge
C1    C     C_R   0.545926 0.794774 0.503664 0.839869
C2    C     C_R   0.454511 0.205928 0.510149 0.972504
C3    C     C_R   0.499678 0.503325 0.260857 0.858891
C4    C     C_R   0.423869 0.788626 0.878628 -0.115388
C5    C     C_R   0.383876 0.922364 0.949495 -0.087455
C6    C     C_R   0.381105 0.921659 0.081024 -0.154504
C7    C     C_R   0.418348 0.787215 0.142082 -0.181734
C8    C     C_R   0.458292 0.650387 0.071528 0.098628
C9    C     C_2   0.991623 0.685957 0.579603 0.741663
C10   C     C_2   0.725654 0.016572 0.591424 0.508101
C11   C     C_R   0.461214 0.651170 0.939184 0.087682
C12   C     C_R   0.505648 0.514333 0.871418 -0.073413
C13   C     C_R   0.551713 0.382187 0.930103 -0.179098
C14   C     C_R   0.548973 0.381374 0.059081 -0.219464
C15   C     C_R   0.500062 0.512748 0.128654 -0.081358
C16   C     C_2   0.567394 0.957017 0.531950 -0.220751
C17   C     C_2   0.432150 0.041764 0.516067 -0.403475
C18   C     C_R   0.501713 0.504046 0.739167 0.881047
H1    H     H_    0.586102 0.278532 0.876015 0.197933
H2    H     H_    0.850056 0.982904 0.552818 0.045221
H3    H     H_    0.427272 0.794620 0.776680 0.142782
H4    H     H_    0.356005 0.027044 0.902167 0.148766
H5    H     H_    0.351054 0.025816 0.135882 0.133013
H6    H     H_    0.417433 0.792251 0.244158 0.142905
H7    H     H_    0.582628 0.277434 0.105119 0.150953
H8    H     H_    0.309781 0.990311 0.487614 0.156080
H9    H     H_    0.007071 0.364272 0.421955 0.183473
H10   H     H_    0.020537 0.788559 0.522052 -0.068843
N1    N     N_2   0.950330 0.457950 0.466250 -0.192415
N2    N     N_2   0.049670 0.542050 0.533750 -0.141911
O1    O     O_R   0.389250 0.738570 0.508280 -0.645691
O2    O     O_2   0.716667 0.101497 0.685559 -0.576836
O3    O     O_R   0.678390 0.711630 0.486650 -0.646959
O4    O     O_R   0.355400 0.513470 0.694050 -0.619667
O5    O     O_R   0.644540 0.486530 0.672420 -0.550138
O6    O     O_R   0.321610 0.288370 0.513350 -0.633774
O7    O     O_R   0.610750 0.261430 0.491720 -0.597553
O8    O     O_R   0.355460 0.513470 0.327580 -0.636885
O9    O     O_R   0.644600 0.486530 0.305950 -0.613001
O10   O     O_2   0.922820 0.697642 0.686781 -0.591410
Zn1   Zn    Zn3+2 0.306930 0.517990 0.514440 0.952770
Zn2   Zn    Zn3+2 0.693070 0.482010 0.485560 0.989442

loop_
_geom_bond_atom_site_label_1
_geom_bond_atom_site_label_2
_ccdc_geom_bond_type
C11   C12   A    
N2    Zn1   S    
C6    C7    A    
N1    Zn2   S    
H9    N1    S    
C18   O5    A    
O3    Zn2   S    
C2    O6    A    
C3    O9    A    
C7    C8    A    
C1    C16   S    
C10   C16   S    
C13   C14   A    
C2    C17   S    
C4    H3    S    
C18   O4    A    
C2    O7    A    
O6    Zn1   S    
N1    N2    D    
O4    Zn1   S    
C9    N2    S    
C8    C11   A    
C6    H5    S    
O9    Zn2   S    
C14   H7    S    
C5    C6    A    
C17   H8    S    
C1    O3    A    
C7    H6    S    
C10   O2    D    
C1    O1    A    
C3    C15   S    
C12   C13   A    
C3    O8    A    
O8    Zn1   S    
C12   C18   S    
O7    Zn2   S    
O5    Zn2   S    
C13   H1    S    
C14   C15   A    
C16   C17   D    
C8    C15   A    
O1    Zn1   S    
C9    O10   D    
C5    H4    S    
C9    H10   S    
C10   H2    S    
C4    C5    A    
C4    C11   A    
