data_mof_unit_58603.cif
_audit_creation_date              2012-12-10T19:15:22-0500
_audit_creation_method            fapswitch 2.2
_symmetry_space_group_name_H-M    P1
_symmetry_Int_Tables_number       1
_space_group_crystal_system       triclinic
_cell_length_a                    10.62421
_cell_length_b                    9.680236
_cell_length_c                    23.455705
_cell_angle_alpha                 90.166157
_cell_angle_beta                  89.934669
_cell_angle_gamma                 89.839253
_cell_volume                      2412.27747154

loop_
_atom_site_label
_atom_site_type_symbol
_atom_type_description
_atom_site_fract_x
_atom_site_fract_y
_atom_site_fract_z
_atom_type_partial_charge
C1    C     C_R   0.257590 0.500407 0.500241 0.884244
C2    C     C_R   0.583183 0.537558 0.118765 0.527013
C3    C     C_R   0.546205 0.401803 0.234936 -0.110033
C4    C     C_R   0.498505 0.499911 0.389223 0.976360
C5    C     C_R   0.556995 0.399957 0.294107 -0.058904
C6    C     C_R   0.490554 0.500363 0.326863 -0.230529
C7    C     C_R   0.415579 0.601728 0.298894 -0.063327
C8    C     C_R   0.412976 0.604590 0.239598 -0.112561
C9    C     C_R   0.476944 0.504935 0.207937 0.246268
C10   C     C_R   0.484036 0.379714 0.762470 -0.089977
C11   C     C_R   0.489534 0.377237 0.703304 -0.223872
C12   C     C_R   0.242721 0.489587 0.968349 -0.091871
C13   C     C_R   0.496982 0.501645 0.672868 -0.043228
C14   C     C_R   0.499514 0.628183 0.702263 -0.221825
C15   C     C_R   0.494115 0.630229 0.761311 -0.094982
C16   C     C_R   0.742695 0.500179 0.500129 0.872848
C17   C     C_R   0.486127 0.506207 0.791283 0.319572
C18   C     C_3   0.071204 0.652433 0.500083 -0.387689
C19   C     C_3   0.072491 0.427578 0.554528 -0.406838
C20   C     C_3   0.928338 0.652313 0.500370 -0.403717
C21   C     C_3   0.927976 0.426674 0.554303 -0.399560
C22   C     C_3   0.072813 0.425119 0.446630 -0.403695
C23   C     C_R   0.241392 0.490180 0.028646 -0.094527
C24   C     C_3   0.121393 0.501464 0.500366 0.168214
C25   C     C_3   0.879006 0.501221 0.500306 0.146482
C26   C     C_3   0.928535 0.426238 0.446337 -0.354678
C27   C     C_3   0.369913 0.081683 0.499734 -0.242604
C28   C     C_3   0.369916 0.919063 0.499644 -0.233800
C29   C     C_3   0.563038 0.080814 0.447335 -0.214954
C30   C     C_3   0.563234 0.918067 0.447369 -0.233090
C31   C     C_3   0.566593 0.081412 0.549147 -0.234716
C32   C     C_3   0.566458 0.918851 0.549181 -0.234064
C33   C     C_R   0.499921 0.500274 0.610739 0.869441
C34   C     C_R   0.356286 0.500241 0.059448 -0.090223
C35   C     C_R   0.589324 0.532900 0.881153 0.515421
C36   C     C_R   0.367903 0.490963 0.878367 0.531246
C37   C     C_R   0.358939 0.499775 0.938456 -0.085807
C38   C     C_R   0.471730 0.519445 0.969429 -0.016856
C39   C     C_R   0.587401 0.537352 0.940414 -0.013516
C40   C     C_2   0.120672 0.489493 0.937575 1.001691
C41   C     C_2   0.117925 0.491729 0.058398 1.001781
C42   C     C_2   0.643284 0.295648 0.319107 0.916058
C43   C     C_2   0.334741 0.703320 0.329370 0.919813
C44   C     C_R   0.470301 0.520134 0.029454 -0.013729
C45   C     C_R   0.584307 0.539723 0.059482 -0.017498
C46   C     C_R   0.697319 0.560401 0.029926 -0.135266
C47   C     C_R   0.698913 0.558801 0.970953 -0.120453
C48   C     C_R   0.362696 0.489914 0.119507 0.543360
H1    H     H_    0.487304 0.278492 0.681516 0.149997
H2    H     H_    0.894127 0.317942 0.555235 0.172308
H3    H     H_    0.319171 0.120321 0.538147 0.147647
H4    H     H_    0.318979 0.881007 0.537952 0.142897
H5    H     H_    0.514599 0.118017 0.408275 0.178358
H6    H     H_    0.515300 0.880327 0.408224 0.181797
H7    H     H_    0.665171 0.119842 0.549947 0.144149
H8    H     H_    0.664969 0.879648 0.550088 0.144452
H9    H     H_    0.521285 0.119428 0.588970 0.150229
H10   H     H_    0.520895 0.881801 0.588963 0.148407
H11   H     H_    0.661412 0.119456 0.444960 0.166939
H12   H     H_    0.495847 0.727927 0.783910 0.142040
H13   H     H_    0.661718 0.879032 0.445136 0.144970
H14   H     H_    0.785348 0.576287 0.052240 0.207551
H15   H     H_    0.788113 0.573466 0.949425 0.198510
H16   H     H_    0.358481 0.682667 0.217497 0.190364
H17   H     H_    0.478189 0.283845 0.785991 0.143494
H18   H     H_    0.996930 0.596160 0.889573 0.363196
H19   H     H_    0.505275 0.725480 0.679762 0.150040
H20   H     H_    0.108595 0.475857 0.407351 0.215218
H21   H     H_    0.106983 0.316264 0.446100 0.171944
H22   H     H_    0.894353 0.479951 0.407395 0.208275
H23   H     H_    0.105096 0.708059 0.461535 0.211040
H24   H     H_    0.893610 0.317951 0.444872 0.201373
H25   H     H_    0.316504 0.119998 0.462159 0.150668
H26   H     H_    0.316752 0.880766 0.461964 0.170595
H27   H     H_    0.960694 0.387659 0.079651 0.356468
H28   H     H_    0.596028 0.326213 0.209165 0.185006
H29   H     H_    0.711074 0.100844 0.316213 0.342242
H30   H     H_    0.268077 0.898446 0.333434 0.337607
H31   H     H_    0.107920 0.319286 0.556065 0.172984
H32   H     H_    0.105687 0.709677 0.538241 0.164912
H33   H     H_    0.107009 0.481519 0.593452 0.169504
H34   H     H_    0.893975 0.708675 0.538866 0.174222
H35   H     H_    0.891887 0.479200 0.593350 0.169231
H36   H     H_    0.893556 0.708715 0.462128 0.179663
N1    N     N_R   0.481046 0.509265 0.851842 -0.361696
N2    N     N_R   0.474131 0.510796 0.147220 -0.350711
N3    N     N_3   0.499750 0.138610 0.498760 -0.042438
N4    N     N_3   0.499750 0.861390 0.498760 -0.039237
O1    O     O_R   0.314910 0.616040 0.499990 -0.615465
O2    O     O_2   0.265873 0.462844 0.846249 -0.523007
O3    O     O_2   0.260216 0.455532 0.150300 -0.512131
O4    O     O_2   0.690360 0.561551 0.148048 -0.531725
O5    O     O_2   0.055470 0.385634 0.937100 -0.559957
O6    O     O_R   0.081107 0.608706 0.909204 -0.760057
O7    O     O_2   0.082629 0.596584 0.082908 -0.574859
O8    O     O_R   0.042541 0.373662 0.058102 -0.734613
O9    O     O_2   0.712816 0.326707 0.358537 -0.672685
O10   O     O_R   0.648561 0.162623 0.295798 -0.787148
O11   O     O_2   0.272526 0.667897 0.370646 -0.674417
O12   O     O_R   0.314910 0.383960 0.499990 -0.645196
O13   O     O_R   0.326085 0.838885 0.309292 -0.788637
O14   O     O_R   0.500080 0.616070 0.416130 -0.608764
O15   O     O_R   0.500080 0.383930 0.416130 -0.606496
O16   O     O_R   0.685320 0.616040 0.499970 -0.641199
O17   O     O_R   0.685320 0.383960 0.499970 -0.619017
O18   O     O_R   0.500150 0.616010 0.583820 -0.634420
O19   O     O_R   0.500150 0.383990 0.583820 -0.633448
O20   O     O_2   0.698709 0.550596 0.852726 -0.550619
Zn1   Zn    Zn3+2 0.500150 0.654960 0.499970 0.929989
Zn2   Zn    Zn3+2 0.500150 0.345040 0.499970 0.928233

loop_
_geom_bond_atom_site_label_1
_geom_bond_atom_site_label_2
_ccdc_geom_bond_type
C5    C42   S    
O12   Zn2   S    
C20   H34   S    
C26   H24   S    
C15   H12   S    
C33   O19   A    
C32   H10   S    
C40   O5    D    
O17   Zn2   S    
C28   H26   S    
C7    C8    A    
N3    Zn2   S    
C41   O7    D    
C45   C46   A    
C38   C44   A    
C30   H6    S    
C12   C23   A    
C29   C30   S    
C46   H14   S    
O15   Zn2   S    
C18   C24   S    
C5    C6    A    
C36   C37   A    
C19   C21   S    
C43   O11   D    
C42   O10   S    
C47   H15   S    
O16   Zn1   S    
C41   O8    S    
C20   C25   S    
C10   C17   A    
C32   N4    S    
C4    O15   A    
O1    Zn1   S    
C16   C25   S    
C12   C37   A    
C35   O20   S    
C16   O16   A    
C29   H11   S    
C8    C9    A    
C48   O3    S    
C4    O14   A    
C28   N4    S    
C14   H19   S    
C7    C43   S    
C22   H21   S    
C18   C20   S    
H18   O6    S    
C13   C14   A    
H30   O13   S    
C1    O12   A    
C21   H2    S    
C27   H3    S    
H27   O8    S    
C2    C45   A    
C2    O4    S    
C31   N3    S    
C21   H35   S    
C34   C44   A    
C11   H1    S    
C4    C6    S    
C42   O9    D    
C48   N2    A    
C25   C26   S    
C12   C40   S    
C35   C39   A    
C43   O13   S    
C13   C33   S    
C37   C38   A    
C3    C9    A    
C9    N2    S    
C31   C32   S    
C23   C34   A    
H29   O10   S    
C27   N3    S    
C3    H28   S    
C22   H20   S    
C16   O17   A    
C8    H16   S    
N4    Zn1   S    
C20   H36   S    
C26   H22   S    
O19   Zn2   S    
C17   N1    S    
C34   C48   A    
C30   N4    S    
C44   C45   A    
C39   C47   A    
C10   H17   S    
C36   O2    S    
C18   H23   S    
C15   C17   A    
C21   C25   S    
C46   C47   A    
C35   N1    A    
C1    O1    A    
C33   O18   A    
C40   O6    S    
C3    C5    A    
C6    C7    A    
C28   H4    S    
C36   N1    A    
C23   C41   S    
C31   H9    S    
C19   C24   S    
C27   H25   S    
C11   C13   A    
C38   C39   A    
C29   H5    S    
C2    N2    A    
C22   C24   S    
C29   N3    S    
C10   C11   A    
C1    C24   S    
C18   H32   S    
C22   C26   S    
C30   H13   S    
C27   C28   S    
C14   C15   A    
O14   Zn1   S    
C31   H7    S    
C19   H33   S    
C32   H8    S    
C19   H31   S    
O18   Zn1   S    
