data_mof_unit_11512.cif
_audit_creation_date              2013-03-05T16:04:39-0500
_audit_creation_method            fapswitch 2.2
_symmetry_space_group_name_H-M    P1
_symmetry_Int_Tables_number       1
_space_group_crystal_system       triclinic
_cell_length_a                    9.525982
_cell_length_b                    10.800536
_cell_length_c                    15.492772
_cell_angle_alpha                 89.907049
_cell_angle_beta                  74.499766
_cell_angle_gamma                 90.115306
_cell_volume                      1536.003654

loop_
_atom_site_label
_atom_site_type_symbol
_atom_site_description
_atom_site_fract_x
_atom_site_fract_y
_atom_site_fract_z
_atom_type_partial_charge
O1    O     O_R   0.118740 0.319660 0.500000 -0.546922
O2    O     O_R   0.881260 0.680340 0.500000 -0.546698
O3    O     O_R   0.881170 0.319630 0.500010 -0.590429
O4    O     O_R   0.118830 0.680370 0.499990 -0.589781
C1    C     C_R   0.998694 0.262314 0.502560 0.874677
C2    C     C_R   0.001305 0.737689 0.497443 0.875320
O5    O     O_R   0.055570 0.500030 0.629830 -0.576180
O6    O     O_R   0.944430 0.499970 0.370170 -0.575794
O7    O     O_R   0.818000 0.500000 0.629840 -0.599827
O8    O     O_R   0.182000 0.500000 0.370160 -0.599435
C3    C     C_R   0.918301 0.500202 0.672147 0.826728
C4    C     C_R   0.081693 0.498513 0.327915 0.828619
Cu1   Cu    Cu3+1 0.140660 0.500020 0.500000 0.991007
Cu2   Cu    Cu3+1 0.859340 0.499980 0.500000 0.990617
C5    C     C_R   0.873466 0.502206 0.770401 -0.030136
C6    C     C_R   0.127054 0.486256 0.230174 -0.029271
C7    C     C_R   0.925060 0.539291 0.912556 -0.203807
C8    C     C_R   0.081762 0.418152 0.091660 -0.207669
C9    C     C_R   0.973042 0.528975 0.819802 -0.164265
C10   C     C_R   0.030813 0.443063 0.182805 -0.177522
C11   C     C_R   0.726883 0.481555 0.814763 -0.230517
C12   C     C_R   0.273163 0.507428 0.185315 -0.225787
C13   C     C_R   0.676067 0.488276 0.908555 0.094206
C14   C     C_R   0.328827 0.478268 0.094198 0.093404
C15   C     C_R   0.777643 0.520476 0.957107 0.159375
C16   C     C_R   0.229508 0.435220 0.047119 0.158161
C17   C     C_R   0.526902 0.467984 0.954944 0.067116
C18   C     C_R   0.479728 0.490195 0.048888 0.068681
C19   C     C_R   0.585443 0.520720 0.094681 -0.199078
C20   C     C_R   0.423877 0.424507 0.910854 -0.201791
C21   C     C_R   0.731232 0.534856 0.049511 -0.220241
C22   C     C_R   0.278528 0.408099 0.956354 -0.220159
H1    H     H_    0.808047 0.558871 0.087335 0.158661
H2    H     H_    0.203759 0.373824 0.919977 0.162602
H3    H     H_    0.341000 0.546898 0.223629 0.144433
H4    H     H_    0.653702 0.464124 0.774017 0.145775
H5    H     H_    0.917418 0.425457 0.216540 0.157752
H6    H     H_    0.086916 0.545475 0.786678 0.158387
H7    H     H_    0.002940 0.564104 0.949373 0.148646
H8    H     H_    0.006150 0.382982 0.056287 0.148933
H9    H     H_    0.560410 0.531774 0.166194 0.143571
H10   H     H_    0.452162 0.398480 0.841321 0.146854
C23   C     C_R   0.919516 0.066767 0.452578 -0.274087
C24   C     C_R   0.080492 0.933251 0.547423 -0.274027
H11   H     H_    0.861221 0.119200 0.413482 0.198584
H12   H     H_    0.138803 0.880821 0.586510 0.198962
C25   C     C_R   0.923246 0.938405 0.446153 0.367465
C26   C     C_R   0.076736 0.061614 0.553863 0.368033
C27   C     C_R   0.003065 0.871605 0.495282 -0.204881
C28   C     C_R   0.996933 0.128408 0.504724 -0.204336
C29   C     C_R   0.547826 0.430277 0.560481 -0.007245
C30   C     C_R   0.452178 0.569704 0.439510 -0.007587
H13   H     H_    0.582496 0.374120 0.608849 0.134692
H14   H     H_    0.417511 0.625847 0.391135 0.135873
C31   C     C_R   0.399064 0.430434 0.560522 0.004735
C32   C     C_R   0.600937 0.569551 0.439471 0.004328
H15   H     H_    0.321849 0.374678 0.608999 0.176801
H16   H     H_    0.678150 0.625304 0.390993 0.178096
N1    N     N_R   0.352080 0.500030 0.499980 -0.174616
N2    N     N_R   0.647920 0.499970 0.500020 -0.174793
N3    N     N_R   0.852249 0.878429 0.386406 0.121062
O9    O     O_R   0.918897 0.791636 0.332825 -0.388784
O10   O     O_R   0.731027 0.922770 0.375708 -0.357814
N4    N     N_R   0.147682 0.121595 0.613637 0.120688
O11   O     O_R   0.080984 0.208360 0.667227 -0.390389
O12   O     O_R   0.268905 0.077281 0.624349 -0.358973

loop_
_geom_bond_atom_site_label_1
_geom_bond_atom_site_label_2
_geom_bond_distance
_ccdc_geom_bond_type
C24   C27   1.399326 A    
C15   C21   1.389871 A    
O5    Cu1   1.957405 S    
O5    C3    1.296730 A    
O7    Cu2   1.943744 S    
C21   H1    1.083987 S    
C23   C28   1.399288 A    
C25   N3    1.438271 S    
C12   H3    1.075357 S    
C30   N1    1.367685 A    
C31   N1    1.366947 A    
C32   H16   1.081288 S    
C25   C27   1.409867 A    
Cu2   N2    2.013900 S    
C8    C10   1.391894 A    
C8    C16   1.403723 A    
C6    C10   1.398469 A    
O6    C4    1.296584 A    
C7    C15   1.403595 A    
N4    O11   1.301604 A    
N4    O12   1.301731 A    
C26   C28   1.409843 A    
C19   C21   1.386042 A    
C11   H4    1.074704 S    
Cu1   Cu2   2.679849 S    
C17   C20   1.416954 A    
C20   C22   1.386493 A    
C10   H5    1.083168 S    
C23   H11   1.084376 S    
O7    C3    1.295087 A    
O2    C2    1.290655 A    
O3    Cu2   1.959366 S    
O8    C4    1.294552 A    
O1    C1    1.290634 A    
C17   C18   1.424724 A    
C18   C19   1.416833 A    
C7    C9    1.391400 A    
C30   H14   1.081692 S    
C29   C31   1.416938 A    
C13   C17   1.426898 A    
C31   H15   1.081308 S    
C11   C13   1.405562 A    
N3    O9    1.301600 A    
O2    Cu2   1.958726 S    
C12   C14   1.405412 A    
C1    C28   1.446558 S    
C26   N4    1.438301 S    
O1    Cu1   1.958726 S    
C6    C12   1.397745 A    
C29   H13   1.081709 S    
C30   C32   1.416921 A    
C5    C11   1.399002 A    
C9    H6    1.083155 S    
C32   N2    1.366933 A    
C14   C18   1.426650 A    
O4    C2    1.290158 A    
C13   C15   1.418294 A    
C7    H7    1.083253 S    
O4    Cu1   1.959366 S    
N3    O10   1.301752 A    
C8    H8    1.083502 S    
C16   C22   1.390039 A    
C20   H10   1.076226 S    
O6    Cu2   1.957405 S    
C29   N2    1.367707 A    
C4    C6    1.465760 S    
C19   H9    1.076089 S    
Cu1   N1    2.013899 S    
C5    C9    1.398856 A    
C3    C5    1.467210 S    
C24   H12   1.084362 S    
C2    C27   1.446655 S    
C24   C26   1.389979 A    
C14   C16   1.418258 A    
C23   C25   1.389957 A    
O3    C1    1.290142 A    
O8    Cu1   1.943746 S    
C22   H2    1.084484 S    
