data_mof_unit_39479.cif
_audit_creation_date              2012-12-11T15:55:50-0500
_audit_creation_method            fapswitch 2.2
_symmetry_space_group_name_H-M    P1
_symmetry_Int_Tables_number       1
_space_group_crystal_system       triclinic
_cell_length_a                    6.938503
_cell_length_b                    14.54218
_cell_length_c                    16.088845
_cell_angle_alpha                 89.980311
_cell_angle_beta                  89.968854
_cell_angle_gamma                 90.031345
_cell_volume                      1623.37931985

loop_
_atom_site_label
_atom_site_type_symbol
_atom_type_description
_atom_site_fract_x
_atom_site_fract_y
_atom_site_fract_z
_atom_type_partial_charge
O1    O     O_R   0.505680 0.583900 0.413320 -0.540255
O2    O     O_R   0.176010 0.594950 0.586080 -0.543427
O3    O     O_R   0.005680 0.416100 0.586680 -0.546253
C1    C     C_R   0.345048 0.617170 0.615022 0.683010
O4    O     O_R   0.175960 0.594930 0.413930 -0.542685
O5    O     O_R   0.005640 0.416080 0.413300 -0.542552
C2    C     C_R   0.345064 0.617171 0.385017 0.688511
O6    O     O_R   0.505720 0.583920 0.586700 -0.541207
O7    O     O_3   0.339190 0.441320 0.500000 -0.372951
V1    V     V_3+5 0.064350 0.510890 0.500000 1.387352
O8    O     O_R   0.675920 0.405050 0.413920 -0.541923
C3    C     C_R   0.844988 0.382732 0.385047 0.687177
O9    O     O_R   0.675960 0.405070 0.586070 -0.531114
C4    C     C_R   0.844731 0.382623 0.614597 0.699152
V2    V     V_3+5 0.564340 0.489110 0.500000 1.404643
O10   O     O_3   0.839370 0.558680 0.500000 -0.369961
C5    C     C_R   0.005236 0.249252 0.687186 0.050233
C6    C     C_R   0.852397 0.311890 0.680975 -0.122410
C7    C     C_R   0.701910 0.303474 0.739366 -0.121045
H1    H     H_    0.580491 0.349868 0.736898 0.120241
C8    C     C_R   0.713352 0.239684 0.805244 -0.177429
H2    H     H_    0.599217 0.237978 0.851008 0.122483
C9    C     C_R   0.876776 0.183267 0.815308 -0.103794
C10   C     C_R   0.018039 0.187375 0.753290 0.051358
C11   C     C_3   0.230542 0.199460 0.761162 -0.387362
C12   C     C_3   0.217715 0.266168 0.688272 0.038175
H3    H     H_    0.310575 0.134921 0.747710 0.180707
H4    H     H_    0.269723 0.233640 0.820534 0.141204
H5    H     H_    0.256200 0.338407 0.703616 0.126496
C13   C     C_R   0.046826 0.224362 0.217813 -0.156765
H6    H     H_    0.187518 0.205733 0.194062 0.116354
C14   C     C_R   0.035698 0.287888 0.283060 -0.153414
H7    H     H_    0.168382 0.316380 0.307377 0.118378
C15   C     C_R   0.856183 0.314323 0.316262 -0.046295
C16   C     C_R   0.688123 0.275381 0.282367 -0.154420
H8    H     H_    0.547434 0.293999 0.306131 0.116554
C17   C     C_R   0.699253 0.211851 0.217125 -0.152567
H9    H     H_    0.566572 0.183340 0.192825 0.118643
C18   C     C_R   0.878760 0.185472 0.183872 -0.046365
C19   C     C_R   0.188190 0.724795 0.717449 -0.158016
H10   H     H_    0.047565 0.706449 0.693463 0.116810
C20   C     C_R   0.199290 0.788369 0.782646 -0.152410
H11   H     H_    0.066657 0.817193 0.806689 0.119040
C21   C     C_R   0.378717 0.814415 0.816159 -0.047259
C22   C     C_R   0.546734 0.775144 0.782545 -0.156465
H12   H     H_    0.687360 0.793495 0.806527 0.116657
C23   C     C_R   0.535634 0.711571 0.717347 -0.153711
H13   H     H_    0.668270 0.682758 0.693296 0.118163
C24   C     C_R   0.356205 0.685507 0.683848 -0.047222
C25   C     C_R   0.188237 0.724527 0.282438 -0.156435
H14   H     H_    0.047566 0.705972 0.306319 0.117095
C26   C     C_R   0.199351 0.788088 0.217211 -0.151521
H15   H     H_    0.066691 0.816696 0.193031 0.119078
C27   C     C_R   0.378838 0.814390 0.183843 -0.046704
C28   C     C_R   0.546901 0.775372 0.217594 -0.156598
H16   H     H_    0.687567 0.793931 0.193711 0.116797
C29   C     C_R   0.535786 0.711808 0.282824 -0.151536
H17   H     H_    0.668440 0.683197 0.307008 0.118917
C30   C     C_R   0.356295 0.685507 0.316188 -0.047112
O11   O     O_R   0.229200 0.915950 0.913350 -0.540303
O12   O     O_R   0.559090 0.905000 0.086080 -0.543239
O13   O     O_R   0.729280 0.083880 0.086680 -0.541148
C31   C     C_R   0.390017 0.882727 0.115014 0.687310
O14   O     O_R   0.558920 0.904980 0.913920 -0.542957
O15   O     O_R   0.729110 0.083860 0.913300 -0.538854
C32   C     C_R   0.389876 0.882737 0.884997 0.687899
O16   O     O_R   0.229360 0.915970 0.086730 -0.540428
O17   O     O_3   0.395680 0.058580 0.000030 -0.370088
V3    V     V_3+5 0.670570 0.989070 0.999990 1.397830
O18   O     O_R   0.058820 0.094950 0.913870 -0.540324
C33   C     C_R   0.889742 0.117233 0.885312 0.701783
O19   O     O_R   0.058990 0.094970 0.086020 -0.544055
C34   C     C_R   0.889939 0.117174 0.114987 0.683218
V4    V     V_3+5 0.170560 0.010930 0.999930 1.397365
O20   O     O_3   0.895590 0.941310 0.999960 -0.370155
N1    N     N_3   0.314504 0.231666 0.613601 -0.635953
H18   H     H_    0.276801 0.274444 0.564043 0.247576
H19   H     H_    0.263631 0.165860 0.598897 0.230477

loop_
_geom_bond_atom_site_label_1
_geom_bond_atom_site_label_2
_ccdc_geom_bond_type
C28   H16   S    
C4    C6    S    
C21   C32   S    
C7    H1    S    
C1    O6    A    
C23   C24   A    
C22   H12   S    
C21   C22   A    
C11   H4    S    
C5    C12   S    
C16   C17   A    
N1    H19   S    
C6    C7    A    
O5    C3    A    
C13   H6    S    
C29   C30   A    
C27   C31   S    
O17   V4    S    
C19   C24   A    
C15   C16   A    
O12   C31   A    
O8    V2    S    
C16   H8    S    
O17   V3    S    
O18   V4    S    
C12   N1    S    
C9    C10   A    
O13   C34   A    
O18   C33   A    
O1    V2    S    
O7    V1    S    
C19   C20   A    
O11   C32   A    
O9    C4    A    
C20   C21   A    
C2    C30   S    
C26   C27   A    
C25   H14   S    
C22   C23   A    
C8    C9    A    
C31   O16   A    
C5    C10   A    
V4    O20   S    
C9    C33   S    
C10   C11   S    
O19   V4    S    
O4    C2    A    
C11   C12   S    
O15   C33   A    
O13   V3    S    
O14   C32   A    
O2    C1    A    
C17   H9    S    
C25   C26   A    
C23   H13   S    
C5    C6    A    
O16   V4    S    
O14   V3    S    
N1    H18   S    
O3    C4    A    
C19   H10   S    
O6    V2    S    
C28   C29   A    
C20   H11   S    
C25   C30   A    
C3    C15   S    
O2    V1    S    
C26   H15   S    
O12   V3    S    
C27   C28   A    
C7    C8    A    
O1    C2    A    
O19   C34   A    
O5    V1    S    
O8    C3    A    
C11   H3    S    
C1    C24   S    
C14   H7    S    
O9    V2    S    
O7    V2    S    
O4    V1    S    
C17   C18   A    
O3    V1    S    
V1    O10   S    
C13   C14   A    
C29   H17   S    
O15   V3    S    
O11   V4    S    
C13   C18   A    
V3    O20   S    
C18   C34   S    
C12   H5    S    
C8    H2    S    
V2    O10   S    
C14   C15   A    
