data_mof_unit_58316.cif
_audit_creation_date              2013-03-05T15:41:55-0500
_audit_creation_method            fapswitch 2.2
_symmetry_space_group_name_H-M    P1
_symmetry_Int_Tables_number       1
_space_group_crystal_system       triclinic
_cell_length_a                    24.959327
_cell_length_b                    16.759656
_cell_length_c                    15.676818
_cell_angle_alpha                 89.723985
_cell_angle_beta                  49.020991
_cell_angle_gamma                 89.80117
_cell_volume                      4950.72649841

loop_
_atom_site_label
_atom_site_type_symbol
_atom_site_description
_atom_site_fract_x
_atom_site_fract_y
_atom_site_fract_z
_atom_type_partial_charge
C1    C     C_R   0.349811 0.145386 0.760651 0.001336
C2    C     C_R   0.666677 0.885093 0.199175 -0.104015
C3    C     C_R   0.649419 0.146074 0.240591 0.007526
C4    C     C_R   0.333412 0.884877 0.801038 -0.089578
C5    C     C_R   0.849812 0.645388 0.760648 0.001398
C6    C     C_R   0.166680 0.385105 0.199165 -0.104236
C7    C     C_R   0.149423 0.646069 0.240577 0.007528
C8    C     C_R   0.833417 0.384863 0.801028 -0.089677
H1    H     H_    0.302658 0.161352 0.774376 0.083076
H2    H     H_    0.719811 0.886276 0.169683 0.116604
H3    H     H_    0.696552 0.161879 0.226757 0.087932
H4    H     H_    0.280303 0.885832 0.830467 0.114270
H5    H     H_    0.802659 0.661353 0.774376 0.083067
H6    H     H_    0.219815 0.386296 0.169668 0.116767
H7    H     H_    0.196560 0.661875 0.226730 0.087927
H8    H     H_    0.780307 0.385813 0.830456 0.114285
N1    N     N_R   0.389620 0.081040 0.705440 -0.052589
N2    N     N_R   0.610380 0.918960 0.294560 -0.061520
N3    N     N_R   0.610380 0.081040 0.294560 -0.053534
N4    N     N_R   0.389620 0.918960 0.705440 -0.060966
N5    N     N_R   0.889620 0.581040 0.705440 -0.052593
N6    N     N_R   0.110380 0.418960 0.294560 -0.061550
N7    N     N_R   0.110380 0.581040 0.294560 -0.053535
N8    N     N_R   0.889620 0.418960 0.705440 -0.060959
C9    C     C_R   0.615645 0.106911 0.590499 -0.079373
C10   C     C_R   0.412899 0.850737 0.408310 -0.055227
C11   C     C_R   0.384827 0.106842 0.408496 -0.065778
C12   C     C_R   0.586471 0.851221 0.593744 -0.088202
C13   C     C_R   0.115602 0.607024 0.590515 -0.079615
C14   C     C_R   0.912881 0.350754 0.408299 -0.055030
C15   C     C_R   0.884843 0.606913 0.408496 -0.065798
C16   C     C_R   0.086521 0.351245 0.593732 -0.089000
H9    H     H_    0.594454 0.106644 0.676729 0.092905
H10   H     H_    0.440494 0.835088 0.321621 0.094254
H11   H     H_    0.406530 0.105919 0.322003 0.087533
H12   H     H_    0.559498 0.837055 0.680840 0.097125
H13   H     H_    0.094421 0.606755 0.676739 0.092920
H14   H     H_    0.940481 0.335109 0.321606 0.094204
H15   H     H_    0.906535 0.606003 0.322008 0.087541
H16   H     H_    0.059568 0.337089 0.680823 0.097332
N9    N     N_R   0.582320 0.079840 0.556630 -0.050867
N10   N     N_R   0.417680 0.920160 0.443370 -0.041977
N11   N     N_R   0.417680 0.079840 0.443370 -0.050145
N12   N     N_R   0.582320 0.920160 0.556630 -0.046032
N13   N     N_R   0.082320 0.579840 0.556630 -0.050886
N14   N     N_R   0.917680 0.420160 0.443370 -0.042028
N15   N     N_R   0.917680 0.579840 0.443370 -0.050145
N16   N     N_R   0.082320 0.420160 0.556630 -0.046152
C17   C     C_R   0.690625 0.105571 0.403212 -0.076613
C18   C     C_R   0.335276 0.853806 0.596364 -0.055711
C19   C     C_R   0.308883 0.103575 0.595682 -0.105124
C20   C     C_R   0.660654 0.850566 0.406029 -0.036683
C21   C     C_R   0.190593 0.605686 0.403211 -0.076281
C22   C     C_R   0.835253 0.353818 0.596357 -0.055911
C23   C     C_R   0.808899 0.603644 0.595689 -0.104867
C24   C     C_R   0.160639 0.350561 0.406023 -0.035822
H17   H     H_    0.738599 0.101813 0.315887 0.093266
H18   H     H_    0.291064 0.841900 0.683886 0.083691
H19   H     H_    0.260202 0.099441 0.682748 0.121149
H20   H     H_    0.704066 0.835529 0.318922 0.091816
H21   H     H_    0.238574 0.601944 0.315891 0.093335
H22   H     H_    0.791033 0.341912 0.683881 0.083803
H23   H     H_    0.760214 0.599517 0.682753 0.121086
H24   H     H_    0.204018 0.335506 0.318909 0.092234
N17   N     N_R   0.627920 0.078930 0.443400 -0.048840
N18   N     N_R   0.372080 0.921070 0.556600 -0.041695
N19   N     N_R   0.372080 0.078930 0.556600 -0.049784
N20   N     N_R   0.627920 0.921070 0.443400 -0.037130
N21   N     N_R   0.127920 0.578930 0.443400 -0.048891
N22   N     N_R   0.872080 0.421070 0.556600 -0.041704
N23   N     N_R   0.872080 0.578930 0.556600 -0.049782
N24   N     N_R   0.127920 0.421070 0.443400 -0.037208
C25   C     C_R   0.560908 0.142894 0.238022 -0.084136
C26   C     C_R   0.421248 0.889004 0.803382 -0.122880
C27   C     C_R   0.437948 0.141475 0.764286 -0.080287
C28   C     C_R   0.578768 0.888850 0.196946 -0.128016
C29   C     C_R   0.060911 0.642889 0.238013 -0.084075
C30   C     C_R   0.921255 0.388988 0.803370 -0.122741
C31   C     C_R   0.937948 0.641477 0.764284 -0.080317
C32   C     C_R   0.078770 0.388855 0.196942 -0.127984
H25   H     H_    0.525727 0.157813 0.222638 0.107470
H26   H     H_    0.448408 0.892874 0.835640 0.102711
H27   H     H_    0.472562 0.155518 0.780944 0.103190
H28   H     H_    0.551479 0.892366 0.164839 0.104982
H29   H     H_    0.025732 0.657806 0.222624 0.107461
H30   H     H_    0.948417 0.392851 0.835625 0.102673
H31   H     H_    0.972557 0.655520 0.780950 0.103114
H32   H     H_    0.051479 0.392371 0.164837 0.104971
N25   N     N_R   0.555090 0.077730 0.294590 -0.055784
N26   N     N_R   0.444910 0.922270 0.705410 -0.058720
N27   N     N_R   0.444910 0.077730 0.705410 -0.056453
N28   N     N_R   0.555090 0.922270 0.294590 -0.060131
N29   N     N_R   0.055090 0.577730 0.294590 -0.055798
N30   N     N_R   0.944910 0.422270 0.705410 -0.058683
N31   N     N_R   0.944910 0.577730 0.705410 -0.056432
N32   N     N_R   0.055090 0.422270 0.294590 -0.060150
C33   C     C_R   0.379759 0.185932 0.796848 0.204139
C34   C     C_R   0.648820 0.865684 0.135543 0.223803
C35   C     C_R   0.618438 0.187876 0.206597 0.186631
C36   C     C_R   0.351284 0.865896 0.865023 0.210681
C37   C     C_R   0.879762 0.685936 0.796840 0.204128
C38   C     C_R   0.148824 0.365696 0.135532 0.223831
C39   C     C_R   0.118442 0.687870 0.206582 0.186605
C40   C     C_R   0.851291 0.365872 0.865006 0.210655
C41   C     C_R   0.683854 0.123619 0.494656 0.192050
C42   C     C_R   0.360431 0.808221 0.504245 0.102236
C43   C     C_R   0.316205 0.121897 0.503522 0.176705
C44   C     C_R   0.636036 0.806291 0.499676 0.088395
C45   C     C_R   0.183780 0.623827 0.494671 0.192222
C46   C     C_R   0.860411 0.308236 0.504227 0.102174
C47   C     C_R   0.816234 0.622024 0.503530 0.176366
C48   C     C_R   0.136086 0.306319 0.499647 0.088112
Ni1   Ni    Ni4+2 0.382970 1.000000 0.629840 0.265575
Ni2   Ni    Ni4+2 0.617030 0.000000 0.370160 0.268122
Ni3   Ni    Ni4+2 0.882970 0.500000 0.629840 0.265570
Ni4   Ni    Ni4+2 0.117030 0.500000 0.370160 0.268352
Ni5   Ni    Ni4+2 0.514540 1.000000 0.629840 0.232178
Ni6   Ni    Ni4+2 0.485460 0.000000 0.370160 0.235422
Ni7   Ni    Ni4+2 0.014540 0.500000 0.629840 0.232111
Ni8   Ni    Ni4+2 0.985460 0.500000 0.370160 0.235394
C49   C     C_3   0.286128 0.201282 0.397639 -0.347301
C50   C     C_3   0.655839 0.705924 0.606544 -0.318494
C51   C     C_3   0.708376 0.230104 0.579433 -0.323585
C52   C     C_3   0.345245 0.683910 0.418496 -0.324270
C53   C     C_3   0.786119 0.701455 0.397708 -0.347407
C54   C     C_3   0.155880 0.205964 0.606476 -0.318723
C55   C     C_3   0.208346 0.730324 0.579370 -0.323085
C56   C     C_3   0.845318 0.183920 0.418364 -0.324186
C57   C     C_3   0.747846 0.776168 0.469449 0.378591
C58   C     C_3   0.195064 0.130679 0.534946 0.396898
C59   C     C_3   0.269323 0.781977 0.482679 0.404406
C60   C     C_3   0.783157 0.131662 0.515695 0.411980
C61   C     C_3   0.247968 0.276070 0.469248 0.378913
C62   C     C_3   0.695122 0.630703 0.534904 0.396836
C63   C     C_3   0.769260 0.281863 0.482783 0.404546
C64   C     C_3   0.282994 0.631776 0.515873 0.411854
H33   H     H_    0.339355 0.201266 0.311731 0.167974
H34   H     H_    0.601900 0.705957 0.691333 0.172072
H35   H     H_    0.652444 0.250120 0.644449 0.188239
H36   H     H_    0.401492 0.664829 0.354450 0.190671
H37   H     H_    0.839359 0.701528 0.311819 0.168075
H38   H     H_    0.101950 0.206075 0.691280 0.172067
H39   H     H_    0.152436 0.750436 0.644298 0.188311
H40   H     H_    0.901593 0.164961 0.354221 0.190930
C65   C     C_3   0.678919 0.748111 0.498795 -0.102085
C66   C     C_3   0.263594 0.159836 0.505305 -0.094966
C67   C     C_3   0.317003 0.751547 0.505457 -0.117303
C68   C     C_3   0.736175 0.162642 0.492279 -0.125370
C69   C     C_3   0.178991 0.248113 0.498680 -0.102017
C70   C     C_3   0.763613 0.659952 0.505327 -0.094893
C71   C     C_3   0.817021 0.251501 0.505417 -0.117644
C72   C     C_3   0.236096 0.662808 0.492322 -0.124978
C73   C     C_3   0.216315 0.172118 0.428488 0.087680
C74   C     C_3   0.725351 0.735499 0.575742 0.057969
C75   C     C_3   0.756296 0.198353 0.602168 0.092108
C76   C     C_3   0.296946 0.715905 0.396134 0.081210
C77   C     C_3   0.716351 0.672186 0.428484 0.087540
C78   C     C_3   0.225432 0.235452 0.575604 0.057877
C79   C     C_3   0.256182 0.698517 0.602245 0.091392
C80   C     C_3   0.796931 0.215849 0.396148 0.081301
C81   C     C_2   0.646734 0.262175 0.140866 -0.313264
C82   C     C_2   0.300777 0.839945 0.983429 -0.367970
C83   C     C_2   0.349476 0.258159 0.866121 -0.336972
C84   C     C_2   0.699682 0.839025 0.017657 -0.395072
C85   C     C_2   0.146734 0.762171 0.140855 -0.313192
C86   C     C_2   0.800786 0.339919 0.983410 -0.368070
C87   C     C_2   0.849482 0.758166 0.866107 -0.337036
C88   C     C_2   0.199687 0.339037 0.017645 -0.395082
C89   C     C_2   0.679791 0.317413 0.154796 0.272654
C90   C     C_2   0.233538 0.867979 0.057201 0.283734
C91   C     C_2   0.321621 0.317589 0.847081 0.273934
C92   C     C_2   0.766585 0.868092 0.943505 0.296362
C93   C     C_2   0.179783 0.817413 0.154795 0.272686
C94   C     C_2   0.733553 0.367970 0.057193 0.283838
C95   C     C_2   0.821611 0.817589 0.847083 0.274120
C96   C     C_2   0.266593 0.368098 0.943496 0.296482
H41   H     H_    0.315642 0.787964 0.005633 0.148213
H42   H     H_    0.651300 0.265083 0.067013 0.140858
H43   H     H_    0.685808 0.785609 0.996805 0.147269
H44   H     H_    0.338777 0.256168 0.945418 0.140042
H45   H     H_    0.815644 0.287926 0.005607 0.148200
H46   H     H_    0.151299 0.765081 0.067003 0.140896
H47   H     H_    0.185812 0.285623 0.996793 0.147264
H48   H     H_    0.838798 0.756183 0.945392 0.140014
N33   N     N_R   0.783793 0.853520 0.430504 0.254794
O1    O     O_R   0.844649 0.860885 0.405246 -0.321741
O2    O     O_R   0.757941 0.914253 0.416229 -0.384182
N34   N     N_R   0.165333 0.051033 0.575924 0.265163
O3    O     O_R   0.125803 0.021786 0.557007 -0.308605
O4    O     O_R   0.162801 0.018953 0.654194 -0.353677
N35   N     N_R   0.256335 0.863319 0.466255 0.243125
O5    O     O_R   0.212157 0.875029 0.449884 -0.299779
O6    O     O_R   0.286210 0.924330 0.471059 -0.413624
N36   N     N_R   0.790248 0.048350 0.532725 0.265980
O7    O     O_R   0.846014 0.024942 0.516581 -0.293251
O8    O     O_R   0.735267 0.001904 0.585954 -0.394436
N37   N     N_R   0.284109 0.353311 0.430044 0.255322
O9    O     O_R   0.344679 0.360682 0.405733 -0.322023
O10   O     O_R   0.259114 0.413657 0.413482 -0.383787
N38   N     N_R   0.665467 0.551020 0.575773 0.265155
O11   O     O_R   0.625876 0.521806 0.556959 -0.308497
O12   O     O_R   0.662987 0.518912 0.653978 -0.353623
N39   N     N_R   0.756169 0.363193 0.466495 0.243214
O13   O     O_R   0.711907 0.374867 0.450290 -0.299459
O14   O     O_R   0.786158 0.424219 0.471016 -0.413542
N40   N     N_R   0.290006 0.548514 0.533200 0.265195
O15   O     O_R   0.344466 0.525737 0.521195 -0.294515
O16   O     O_R   0.235544 0.501563 0.583430 -0.393910
C97   C     C_3   0.210156 0.138738 0.344657 -0.352798
C98   C     C_3   0.260135 0.068242 0.279034 -0.664069
H49   H     H_    0.316197 0.087508 0.227588 0.210727
H50   H     H_    0.248959 0.020024 0.337501 0.307739
H51   H     H_    0.252756 0.044219 0.221447 0.268960
H52   H     H_    0.154550 0.119799 0.391084 0.240165
H53   H     H_    0.223639 0.186439 0.283939 0.178667
C99   C     C_3   0.727810 0.774807 0.661229 -0.260505
C100  C     C_3   0.669004 0.836778 0.732563 -0.757139
H54   H     H_    0.666667 0.876640 0.678518 0.288846
H55   H     H_    0.616831 0.806652 0.793979 0.214390
H56   H     H_    0.678621 0.873123 0.780375 0.277431
H57   H     H_    0.720588 0.729278 0.719440 0.167016
H58   H     H_    0.780431 0.803257 0.615025 0.271276
C101  C     C_3   0.732606 0.190747 0.720174 -0.354564
C102  C     C_3   0.678007 0.124741 0.790864 -0.760858
H59   H     H_    0.634908 0.128926 0.787750 0.236763
H60   H     H_    0.703650 0.065340 0.760803 0.300389
H61   H     H_    0.654246 0.130714 0.880159 0.237289
H62   H     H_    0.779602 0.179250 0.712134 0.216236
H63   H     H_    0.707747 0.247781 0.765705 0.191338
C103  C     C_3   0.322500 0.726740 0.277312 -0.310329
C104  C     C_3   0.383653 0.786070 0.206512 -0.831271
H64   H     H_    0.367479 0.845754 0.246697 0.277169
H65   H     H_    0.429997 0.764563 0.195443 0.240604
H66   H     H_    0.399853 0.792015 0.121764 0.249824
H67   H     H_    0.341390 0.668400 0.233268 0.194020
H68   H     H_    0.277643 0.747690 0.284008 0.238145
C105  C     C_3   0.710250 0.638787 0.344595 -0.352599
C106  C     C_3   0.760259 0.568307 0.278995 -0.664535
H69   H     H_    0.816310 0.587588 0.227644 0.210777
H70   H     H_    0.749050 0.520073 0.337469 0.307660
H71   H     H_    0.752950 0.544296 0.221320 0.268941
H72   H     H_    0.654657 0.619821 0.390971 0.240187
H73   H     H_    0.723742 0.686486 0.283869 0.178635
C107  C     C_3   0.227910 0.274728 0.661093 -0.260271
C108  C     C_3   0.169212 0.336832 0.732296 -0.758064
H74   H     H_    0.166970 0.376719 0.678166 0.288737
H75   H     H_    0.116980 0.306825 0.793721 0.214562
H76   H     H_    0.178861 0.373135 0.780094 0.277428
H77   H     H_    0.220563 0.229194 0.719404 0.167003
H78   H     H_    0.280577 0.303043 0.614920 0.271223
C109  C     C_3   0.232350 0.690653 0.720318 -0.351957
C110  C     C_3   0.177183 0.625139 0.791025 -0.764562
H79   H     H_    0.133788 0.630651 0.788756 0.236222
H80   H     H_    0.202136 0.565456 0.760311 0.299956
H81   H     H_    0.153947 0.630429 0.880118 0.238299
H82   H     H_    0.279214 0.678411 0.712389 0.217043
H83   H     H_    0.207925 0.747804 0.765766 0.190933
C111  C     C_3   0.822414 0.226745 0.277379 -0.310405
C112  C     C_3   0.883496 0.286163 0.206612 -0.830996
H84   H     H_    0.867270 0.345818 0.246881 0.277271
H85   H     H_    0.929888 0.264713 0.195444 0.240521
H86   H     H_    0.899645 0.292146 0.121903 0.249802
H87   H     H_    0.841351 0.168438 0.233249 0.193936
H88   H     H_    0.777507 0.247642 0.284176 0.238173
N41   N     N_R   0.212357 0.942528 0.040720 0.241815
O17   O     O_R   0.145773 0.955546 0.093108 -0.359788
O18   O     O_R   0.256855 0.001758 0.989147 -0.409471
N42   N     N_R   0.668740 0.324093 0.257069 0.242324
O19   O     O_R   0.713706 0.364144 0.256086 -0.377163
O20   O     O_R   0.608648 0.302802 0.353957 -0.315639
N43   N     N_R   0.786168 0.944490 0.957784 0.249668
O21   O     O_R   0.852474 0.959881 0.904771 -0.347992
O22   O     O_R   0.740241 0.002451 0.008917 -0.399496
N44   N     N_R   0.341958 0.331823 0.738324 0.245633
O23   O     O_R   0.307150 0.384052 0.729442 -0.362464
O24   O     O_R   0.401563 0.304302 0.646272 -0.327097
N45   N     N_R   0.712383 0.442531 0.040718 0.241832
O25   O     O_R   0.645799 0.455571 0.093124 -0.359910
O26   O     O_R   0.756894 0.501748 0.989130 -0.409458
N46   N     N_R   0.168733 0.824085 0.257067 0.242311
O27   O     O_R   0.213701 0.864130 0.256084 -0.377176
O28   O     O_R   0.108641 0.802794 0.353955 -0.315694
N47   N     N_R   0.286178 0.444496 0.957773 0.249756
O29   O     O_R   0.352484 0.459882 0.904766 -0.347819
O30   O     O_R   0.240254 0.502459 0.008902 -0.399325
N48   N     N_R   0.841924 0.831814 0.738341 0.245597
O31   O     O_R   0.807098 0.884030 0.729484 -0.363318
O32   O     O_R   0.901526 0.804300 0.646277 -0.327140

loop_
_geom_bond_atom_site_label_1
_geom_bond_atom_site_label_2
_geom_bond_distance
_ccdc_geom_bond_type
N36   O8    1.297963 A    
N39   O13   1.299778 A    
C47   C70   1.440733 S    
N21   Ni4   1.889052 S    
N18   Ni1   1.889054 S    
C57   N33   1.463009 S    
C2    N2    1.333953 A    
C50   C74   1.547200 S    
N17   Ni2   1.889052 S    
C75   C101  1.533561 S    
C111  H87   1.109672 S    
N1    N27   1.380613 A    
C3    H3    1.080796 S    
N5    Ni3   1.884665 S    
C112  H86   1.110399 S    
C67   C79   1.540133 S    
C102  H59   1.110325 S    
N2    Ni2   1.884665 S    
C31   H31   1.080679 S    
N33   O1    1.300450 A    
N45   O26   1.301833 A    
C9    C41   1.370629 A    
C109  C110  1.525515 S    
C51   C75   1.547135 S    
C100  H56   1.109869 S    
C62   N38   1.455491 S    
C51   C68   1.546809 S    
N39   O14   1.298821 A    
C106  H71   1.110457 S    
C22   C46   1.371762 A    
C97   H53   1.110329 S    
C49   C73   1.551600 S    
C105  H72   1.110261 S    
C14   C46   1.377497 A    
C85   H46   1.087323 S    
N14   Ni8   1.850422 S    
C13   C45   1.370557 A    
C59   C76   1.524687 S    
C96   N47   1.441906 S    
N46   O28   1.301742 A    
C61   C78   1.523626 S    
C48   C69   1.438841 S    
N48   O31   1.300981 A    
C54   C69   1.549295 S    
C58   N34   1.455508 S    
C4    H4    1.080778 S    
N33   O2    1.298114 A    
C58   C66   1.530207 S    
C54   C58   1.540341 S    
C85   C93   1.352430 D    
N43   O21   1.301177 A    
C6    N6    1.333962 A    
C53   C70   1.547317 S    
C51   H35   1.110911 S    
C27   C33   1.396014 A    
C60   C75   1.534224 S    
C17   H17   1.078059 S    
C107  C108  1.526920 S    
C14   H14   1.079170 S    
N34   O4    1.300328 A    
N44   O23   1.300975 A    
C68   C80   1.537862 S    
C50   C65   1.549227 S    
C49   H33   1.109986 S    
C82   C90   1.352371 D    
C37   C87   1.464828 S    
C69   C73   1.536767 S    
C99   H57   1.107255 S    
C50   C62   1.540389 S    
C82   H41   1.087205 S    
N28   Ni6   1.849252 S    
C20   H20   1.078472 S    
C40   C86   1.466579 S    
N7    Ni4   1.875584 S    
C35   C81   1.466443 S    
C64   C79   1.534070 S    
C21   H21   1.078045 S    
C10   H10   1.079166 S    
C72   C76   1.537892 S    
C53   H37   1.109990 S    
N38   O11   1.300074 A    
C24   N24   1.333802 A    
C23   H23   1.081048 S    
C13   H13   1.081353 S    
C61   N37   1.463053 S    
C89   C94   1.470453 S    
C24   H24   1.078469 S    
C3    N3    1.330586 A    
C5    H5    1.081298 S    
N29   Ni8   1.849708 S    
C71   C75   1.540261 S    
C32   N32   1.351167 A    
C83   C91   1.352428 D    
N41   O17   1.301176 A    
C57   C65   1.535539 S    
C20   N20   1.333848 A    
C92   C95   1.472751 S    
C27   N27   1.349567 A    
C93   N46   1.442463 S    
C81   C89   1.352436 D    
C30   H30   1.081543 S    
C7    H7    1.080786 S    
N36   O7    1.300157 A    
C21   N21   1.324587 A    
C8    H8    1.080780 S    
C7    C39   1.380533 A    
N45   O25   1.301179 A    
C104  H66   1.110398 S    
C90   N41   1.441780 S    
C60   N36   1.452187 S    
C16   N16   1.325135 A    
C36   C82   1.466578 S    
C10   C42   1.377524 A    
C103  C104  1.525874 S    
C86   H45   1.087203 S    
C26   H26   1.081543 S    
C92   N43   1.441907 S    
C56   C60   1.547267 S    
C26   C36   1.386038 A    
C25   H25   1.080459 S    
C64   C72   1.528959 S    
C52   H36   1.110178 S    
N16   Ni7   1.849927 S    
C5    C37   1.380596 A    
C54   C78   1.547168 S    
C107  H78   1.109144 S    
C52   C67   1.545750 S    
C106  H70   1.109112 S    
C28   H28   1.081593 S    
C86   C94   1.352375 D    
C18   C42   1.371672 A    
C107  H77   1.107260 S    
C52   C64   1.547134 S    
N13   N21   1.340491 A    
N35   O5    1.299778 A    
C60   C68   1.529025 S    
N26   Ni5   1.849708 S    
C45   C72   1.440773 S    
C61   C69   1.535598 S    
C99   C100  1.526912 S    
C50   H34   1.110069 S    
C101  C102  1.525402 S    
C74   C99   1.533142 S    
C46   C71   1.434509 S    
C78   C107  1.533210 S    
C1    C33   1.380607 A    
C43   C66   1.440718 S    
C105  H73   1.110326 S    
N40   O15   1.300149 A    
N10   Ni6   1.850422 S    
C63   N39   1.460442 S    
N5    N31   1.380613 A    
N3    Ni2   1.875584 S    
C11   H11   1.081219 S    
C100  H54   1.107556 S    
C41   C68   1.440963 S    
N4    N26   1.380997 A    
C12   N12   1.325115 A    
C110  H79   1.110295 S    
C42   C67   1.434381 S    
N7    N29   1.381001 A    
C21   C45   1.364258 A    
C13   N13   1.327989 A    
N34   O3    1.300075 A    
N20   Ni2   1.879963 S    
C95   N48   1.443378 S    
C18   H18   1.073864 S    
N9    Ni5   1.850422 S    
N35   O6    1.298816 A    
C31   N31   1.349575 A    
N3    N25   1.381001 A    
N8    N30   1.380997 A    
C55   C72   1.546647 S    
C6    H6    1.081130 S    
N41   O18   1.301834 A    
N30   Ni7   1.849708 S    
C56   C71   1.545753 S    
C87   H48   1.087222 S    
C22   N22   1.323923 A    
C11   C43   1.367695 A    
N23   Ni3   1.879965 S    
C88   H47   1.087030 S    
N15   N23   1.340385 A    
C94   N45   1.441780 S    
C80   C111  1.532625 S    
C97   C98   1.526011 S    
C1    H1    1.081304 S    
C103  H67   1.109673 S    
C104  H65   1.110169 S    
C55   H39   1.110906 S    
N46   O27   1.301086 A    
C103  H68   1.109653 S    
C8    C40   1.374456 A    
C33   C83   1.464824 S    
N1    Ni1   1.884665 S    
C84   H43   1.087029 S    
C17   N17   1.324639 A    
C28   N28   1.351161 A    
C110  H81   1.110590 S    
C88   C96   1.353263 D    
N11   N19   1.340385 A    
N15   Ni8   1.849927 S    
N42   O20   1.301741 A    
N27   Ni5   1.849252 S    
C39   C85   1.466438 S    
C98   H50   1.109086 S    
N4    Ni1   1.875584 S    
C52   C76   1.552975 S    
C53   C57   1.530195 S    
N47   O29   1.301178 A    
C73   C97   1.528508 S    
N2    N28   1.380616 A    
N12   N20   1.340386 A    
C19   H19   1.081048 S    
N13   Ni7   1.850422 S    
N16   N24   1.340386 A    
C9    N9    1.328084 A    
C112  H84   1.109101 S    
C2    H2    1.081131 S    
C102  H61   1.110600 S    
C55   C79   1.547103 S    
C83   H44   1.087221 S    
C56   C80   1.552924 S    
C87   C95   1.352433 D    
C44   C65   1.438781 S    
C91   C96   1.472766 S    
C77   C105  1.528506 S    
N43   O22   1.301855 A    
C84   C92   1.353255 D    
C106  H69   1.110486 S    
C89   N42   1.442468 S    
C38   C88   1.467517 S    
C63   C80   1.524648 S    
C16   C48   1.372555 A    
C51   C63   1.527773 S    
C23   C47   1.365612 A    
C101  H62   1.110711 S    
N6    Ni4   1.884665 S    
N6    N32   1.380616 A    
N40   O16   1.297926 A    
N32   Ni8   1.849252 S    
C111  H88   1.109650 S    
C112  H85   1.110166 S    
C102  H60   1.107857 S    
C34   C84   1.467502 S    
C18   N18   1.323876 A    
N48   O32   1.301684 A    
C66   C78   1.534983 S    
C110  H80   1.107818 S    
C59   N35   1.460447 S    
N22   Ni3   1.889054 S    
C100  H55   1.110479 S    
C98   H51   1.110456 S    
C22   H22   1.073914 S    
C65   C77   1.536763 S    
N24   Ni4   1.879963 S    
C1    N1    1.331543 A    
C97   H52   1.110260 S    
C56   H40   1.110187 S    
C4    C36   1.374442 A    
C14   N14   1.327864 A    
N31   Ni7   1.849252 S    
C26   N26   1.350167 A    
N37   O10   1.298102 A    
C111  C112  1.525881 S    
N19   Ni1   1.879965 S    
C79   C109  1.533470 S    
C25   N25   1.350220 A    
C32   H32   1.081593 S    
C91   N44   1.443379 S    
C109  H83   1.108850 S    
C64   N40   1.452135 S    
C25   C35   1.396075 A    
C27   H27   1.080688 S    
C109  H82   1.110694 S    
C19   N19   1.328305 A    
C7    N7    1.330595 A    
N12   Ni5   1.849927 S    
C30   N30   1.350160 A    
C15   H15   1.081222 S    
C63   C71   1.534507 S    
C105  C106  1.526028 S    
C90   C93   1.470447 S    
C29   N29   1.350216 A    
C2    C34   1.373618 A    
C8    N8    1.334242 A    
C108  H75   1.110478 S    
C54   H38   1.110069 S    
C6    C38   1.373611 A    
C30   C40   1.386052 A    
C58   C73   1.542524 S    
C53   C77   1.551601 S    
C16   H16   1.079935 S    
C10   N10   1.327867 A    
N9    N17   1.340491 A    
N37   O9    1.300457 A    
C12   C44   1.372464 A    
C55   C59   1.527794 S    
N25   Ni6   1.849708 S    
N14   N22   1.340490 A    
C99   H58   1.109168 S    
C29   C39   1.396056 A    
C11   N11   1.326308 A    
N11   Ni6   1.849927 S    
C29   H29   1.080452 S    
C4    N4    1.334247 A    
C3    C35   1.380532 A    
C62   C77   1.542531 S    
C5    N5    1.331546 A    
N42   O19   1.301092 A    
C12   H12   1.079934 S    
N8    Ni3   1.875584 S    
C19   C43   1.365606 A    
C98   H49   1.110483 S    
C70   C74   1.534956 S    
C108  H76   1.109856 S    
C32   C38   1.387750 A    
C104  H64   1.109107 S    
N10   N18   1.340490 A    
C15   C47   1.367723 A    
C49   C66   1.547273 S    
C31   C37   1.396009 A    
C20   C44   1.375865 A    
C15   N15   1.326350 A    
C59   C67   1.534669 S    
C17   C41   1.364253 A    
C49   C61   1.530159 S    
C81   H42   1.087324 S    
C108  H74   1.107533 S    
C76   C103  1.532613 S    
C28   C34   1.387747 A    
C24   C48   1.375695 A    
N38   O12   1.300329 A    
C23   N23   1.328293 A    
C57   C74   1.523521 S    
C101  H63   1.108942 S    
C9    H9    1.081372 S    
N47   O30   1.301852 A    
N44   O24   1.301684 A    
C62   C70   1.530242 S    
