data_mof_unit_7801.cif
_audit_creation_date              2013-03-05T16:48:17-0500
_audit_creation_method            fapswitch 2.2
_symmetry_space_group_name_H-M    P1
_symmetry_Int_Tables_number       1
_space_group_crystal_system       triclinic
_cell_length_a                    23.571805
_cell_length_b                    9.137783
_cell_length_c                    8.067288
_cell_angle_alpha                 89.999672
_cell_angle_beta                  89.999965
_cell_angle_gamma                 90.000211
_cell_volume                      1737.64574612

loop_
_atom_site_label
_atom_site_type_symbol
_atom_site_description
_atom_site_fract_x
_atom_site_fract_y
_atom_site_fract_z
_atom_type_partial_charge
O1    O     O_R   0.500000 0.285350 0.636850 -0.611271
O2    O     O_R   0.500000 0.714650 0.363150 -0.611273
O3    O     O_R   0.500000 0.714650 0.636850 -0.611267
O4    O     O_R   0.500000 0.285350 0.363150 -0.611270
C1    C     C_R   0.500000 0.217487 0.500000 0.928272
C2    C     C_R   0.500000 0.782513 0.500000 0.928273
O5    O     O_R   0.416160 0.500000 0.636910 -0.579302
O6    O     O_R   0.583840 0.500000 0.363090 -0.579304
O7    O     O_R   0.583840 0.500000 0.636910 -0.579306
O8    O     O_R   0.416160 0.500000 0.363090 -0.579300
C3    C     C_R   0.207547 0.500000 0.500013 -0.073304
C4    C     C_R   0.792452 0.500010 0.500017 -0.073303
C5    C     C_R   0.388821 0.499999 0.500000 1.004735
C6    C     C_R   0.611179 0.500003 0.500000 1.004749
Zn1   Zn    Zn3+2 0.500000 0.500000 0.682780 1.115738
Zn2   Zn    Zn3+2 0.500000 0.500000 0.317220 1.115737
C7    C     C_R   0.296104 0.555985 0.361738 0.299816
C8    C     C_R   0.703896 0.444000 0.361750 0.299813
C9    C     C_R   0.296106 0.444007 0.638270 0.299818
C10   C     C_R   0.703892 0.556024 0.638259 0.299810
C11   C     C_R   0.326365 0.499996 0.500002 -0.385592
C12   C     C_R   0.673634 0.500009 0.500003 -0.385582
C13   C     C_R   0.881237 0.630510 0.498685 0.702993
C14   C     C_R   0.118761 0.369500 0.498689 0.702996
C15   C     C_R   0.881236 0.369505 0.501369 0.702994
C16   C     C_R   0.118763 0.630505 0.501358 0.702997
N1    N     N_R   0.853043 0.500009 0.500025 -0.334606
N2    N     N_R   0.146955 0.500002 0.500020 -0.334604
C17   C     C_R   0.940538 0.367124 0.493143 -0.164230
C18   C     C_R   0.059461 0.632887 0.493134 -0.164230
C19   C     C_R   0.940539 0.632889 0.506918 -0.164230
C20   C     C_R   0.059459 0.367122 0.506922 -0.164228
C21   C     C_R   0.970188 0.500006 0.500030 -0.103244
C22   C     C_R   0.029811 0.500005 0.500029 -0.103244
C23   C     C_R   0.970967 0.236138 0.481444 0.413318
C24   C     C_R   0.029032 0.763873 0.481434 0.413313
C25   C     C_R   0.970969 0.763873 0.518621 0.413320
C26   C     C_R   0.029030 0.236138 0.518630 0.413319
C27   C     C_1   0.500000 0.064723 0.500000 -0.109214
C28   C     C_1   0.500000 0.935277 0.500000 -0.109213
C29   C     C_R   0.236910 0.551185 0.360575 0.390935
C30   C     C_R   0.763089 0.448808 0.360586 0.390937
C31   C     C_R   0.236913 0.448812 0.639443 0.390938
C32   C     C_R   0.763085 0.551215 0.639439 0.390943
N3    N     N_1   0.500000 0.500000 0.073640 0.028703
N4    N     N_1   0.500000 0.500000 0.926360 0.028704
O9    O     O_2   0.851847 0.756693 0.484680 -0.400965
O10   O     O_2   0.148151 0.243318 0.484693 -0.400971
O11   O     O_2   0.851844 0.243325 0.515371 -0.400967
O12   O     O_2   0.148155 0.756686 0.515352 -0.400971
Cl1   Cl    Cl    0.944199 0.100622 0.346991 -0.337888
Cl2   Cl    Cl    0.055800 0.899398 0.346992 -0.337889
Cl3   Cl    Cl    0.944202 0.899384 0.653081 -0.337888
Cl4   Cl    Cl    0.055796 0.100626 0.653091 -0.337887
Cl5   Cl    Cl    0.198842 0.608810 0.183150 -0.342750
Cl6   Cl    Cl    0.801157 0.391176 0.183166 -0.342755
Cl7   Cl    Cl    0.198848 0.391192 0.816876 -0.342746
Cl8   Cl    Cl    0.801148 0.608851 0.816868 -0.342743
Cl9   Cl    Cl    0.330463 0.639306 0.190428 -0.406396
Cl10  Cl    Cl    0.669536 0.360646 0.190461 -0.406414
Cl11  Cl    Cl    0.330468 0.360678 0.809569 -0.406402
Cl12  Cl    Cl    0.669528 0.639396 0.809531 -0.406423

loop_
_geom_bond_atom_site_label_1
_geom_bond_atom_site_label_2
_geom_bond_distance
_ccdc_geom_bond_type
Zn2   N3    1.965030 S    
O4    Zn2   1.996115 S    
C4    C30   1.401144 A    
O7    C6    1.278747 A    
C19   C21   1.402113 A    
C3    C31   1.401134 A    
O1    Zn1   1.996119 S    
C13   N1    1.365223 A    
C15   N1    1.365224 A    
O2    Zn2   1.996118 S    
C17   C23   1.398564 A    
C16   N2    1.365222 A    
C24   Cl2   1.762972 S    
C18   C24   1.398567 A    
O3    C2    1.266245 A    
C25   Cl3   1.762970 S    
C6    C12   1.472182 S    
C16   O12   1.349884 S    
C14   C20   1.399596 A    
C21   C22   1.405436 A    
O7    Zn1   2.010606 S    
C23   Cl1   1.762973 S    
C5    C11   1.472194 S    
C4    C32   1.401142 A    
O8    Zn2   2.010609 S    
N3    N4    1.188149 T    
C15   C17   1.399601 A    
O2    C2    1.266248 A    
C3    N2    1.428251 S    
C7    Cl9   1.773570 S    
O1    C1    1.266248 A    
C8    Cl10  1.773580 S    
C24   C25   1.401142 A    
C9    C11   1.419394 A    
C9    Cl11  1.773569 S    
C16   C18   1.399603 A    
C7    C29   1.396016 A    
C20   C26   1.398565 A    
C8    C30   1.396013 A    
C10   Cl12  1.773588 S    
C15   O11   1.349881 S    
C10   C32   1.396013 A    
C13   O9    1.349882 S    
C18   C22   1.402118 A    
C4    N1    1.428251 S    
C13   C19   1.399598 A    
C14   O10   1.349878 S    
C17   C21   1.402114 A    
O5    C5    1.278750 A    
C2    C28   1.395924 S    
O3    Zn1   1.996114 S    
C14   N2    1.365224 A    
O6    Zn2   2.010607 S    
C3    C29   1.401134 A    
C32   Cl8   1.769521 S    
C27   C28   1.182849 T    
C1    C27   1.395924 S    
C31   Cl7   1.769513 S    
C23   C26   1.401136 A    
C29   Cl5   1.769526 S    
O6    C6    1.278750 A    
O5    Zn1   2.010609 S    
C9    C31   1.396014 A    
Zn1   N4    1.965030 S    
C30   Cl6   1.769520 S    
C20   C22   1.402114 A    
C8    C12   1.419399 A    
C7    C11   1.419409 A    
C19   C25   1.398562 A    
C10   C12   1.419402 A    
O4    C1    1.266245 A    
O8    C5    1.278752 A    
C26   Cl4   1.762973 S    
