data_mof_unit_21501.cif
_audit_creation_date              2013-03-05T16:41:46-0500
_audit_creation_method            fapswitch 2.2
_symmetry_space_group_name_H-M    P1
_symmetry_Int_Tables_number       1
_space_group_crystal_system       triclinic
_cell_length_a                    10.684636
_cell_length_b                    10.936168
_cell_length_c                    9.962144
_cell_angle_alpha                 86.507314
_cell_angle_beta                  89.641066
_cell_angle_gamma                 96.697277
_cell_volume                      1153.8705956

loop_
_atom_site_label
_atom_site_type_symbol
_atom_site_description
_atom_site_fract_x
_atom_site_fract_y
_atom_site_fract_z
_atom_type_partial_charge
O1    O     O_R   0.500020 0.316790 0.614690 -0.519527
O2    O     O_R   0.500000 0.316760 0.385350 -0.620796
C1    C     C_R   0.496576 0.259405 0.503247 0.946954
O3    O     O_R   0.316770 0.500020 0.614690 -0.639527
O4    O     O_R   0.316760 0.499980 0.385350 -0.553389
C2    C     C_R   0.264058 0.520405 0.500155 0.969262
Zn1   Zn    Zn3+2 0.500010 0.500020 0.653130 1.094561
Zn2   Zn    Zn3+2 0.499990 0.499980 0.346870 1.071286
O5    O     O_R   0.500000 0.683240 0.614650 -0.561969
O6    O     O_R   0.499980 0.683210 0.385310 -0.562415
O7    O     O_R   0.683240 0.500020 0.614650 -0.603997
O8    O     O_R   0.683230 0.499980 0.385310 -0.613173
C3    C     C_R   0.511557 0.740520 0.497076 0.943060
C4    C     C_R   0.742719 0.508923 0.498464 0.920759
C5    C     C_R   0.134742 0.635515 0.733232 -0.152721
H1    H     H_    0.234683 0.638295 0.745284 0.224291
C6    C     C_R   0.068760 0.691799 0.828932 -0.110437
H2    H     H_    0.117848 0.729732 0.914432 0.240535
C7    C     C_R   0.944720 0.713609 0.805464 -0.165092
H3    H     H_    0.899950 0.771750 0.870600 0.221695
C8    C     C_R   0.884923 0.673956 0.688853 0.568959
C9    C     C_R   0.942377 0.593497 0.608135 -0.075696
C10   C     C_R   0.073451 0.589461 0.618863 -0.009285
C11   C     C_R   0.139212 0.565023 0.501219 -0.252624
C12   C     C_R   0.082160 0.595364 0.379343 0.294336
C13   C     C_R   0.951791 0.561709 0.373300 0.267227
C14   C     C_R   0.880928 0.544742 0.494679 -0.302203
C15   C     C_R   0.525024 0.054394 0.618972 -0.021328
C16   C     C_R   0.498780 0.126858 0.504772 -0.134207
C17   C     C_R   0.493271 0.070114 0.380401 -0.303598
H4    H     H_    0.478535 0.122005 0.286859 0.205036
C18   C     C_R   0.510635 0.945701 0.373424 0.532626
C19   C     C_R   0.529549 0.874502 0.492719 -0.182913
C20   C     C_R   0.558469 0.939225 0.608033 -0.194586
C21   C     C_3   0.592121 0.928315 0.754829 0.599787
C22   C     C_3   0.540564 0.055506 0.769207 0.805871
C23   C     C_R   0.389483 0.499501 0.071642 0.155766
N1    N     N_R   0.499160 0.499140 0.142800 -0.110598
C24   C     C_R   0.606605 0.492882 0.070378 -0.064315
H5    H     H_    0.690296 0.481171 0.122607 0.226053
C25   C     C_R   0.607708 0.494076 0.927935 0.057272
H6    H     H_    0.695351 0.488279 0.875255 0.145106
N2    N     N_R   0.499160 0.499180 0.857150 -0.059287
C26   C     C_R   0.390174 0.503466 0.928778 0.085884
C27   C     C_3   0.276289 0.409900 0.924693 -0.105384
C28   C     C_3   0.278711 0.398913 0.078647 0.554563
H7    H     H_    0.193183 0.447653 0.880661 0.155016
N3    N     N_R   0.148639 0.679972 0.278271 0.234201
O9    O     O_R   0.086187 0.739126 0.189090 -0.355407
O10   O     O_R   0.265967 0.722043 0.294848 -0.371267
O11   O     O_3   0.723340 0.924439 0.782627 -0.596926
C29   C     C_3   0.809997 0.019030 0.718787 -0.238055
H8    H     H_    0.844030 0.087732 0.790877 0.196044
H9    H     H_    0.774873 0.065851 0.627111 0.147475
H10   H     H_    0.896128 0.978878 0.690852 0.193154
O12   O     O_3   0.417899 0.048220 0.827919 -0.559056
C30   C     C_3   0.413654 0.012533 0.967045 -0.060543
H11   H     H_    0.420597 0.093920 0.027444 0.178805
H12   H     H_    0.488458 0.957493 0.000787 0.151876
H13   H     H_    0.322122 0.956328 0.991005 0.206528
O13   O     O_3   0.624364 0.161947 0.797185 -0.605587
C31   C     C_3   0.667020 0.161352 0.931165 -0.294089
H14   H     H_    0.683203 0.068389 0.972912 0.143304
H15   H     H_    0.603268 0.204945 0.996508 0.203947
H16   H     H_    0.758683 0.220396 0.932798 0.192098
N4    N     N_R   0.301176 0.299014 0.861575 0.249966
O14   O     O_R   0.216544 0.242341 0.786720 -0.380378
O15   O     O_R   0.413899 0.267334 0.864051 -0.330690
N5    N     N_R   0.167009 0.439575 0.140034 0.191253
O16   O     O_R   0.119724 0.386024 0.252101 -0.405234
O17   O     O_R   0.106286 0.520513 0.075360 -0.385025
O18   O     O_3   0.312295 0.284743 0.136494 -0.625121
C32   C     C_3   0.208720 0.190225 0.142107 -0.108769
H17   H     H_    0.135460 0.204370 0.065463 0.168736
H18   H     H_    0.165904 0.179615 0.244431 0.201183
H19   H     H_    0.241683 0.100272 0.127620 0.141995
O19   O     O_3   0.787894 0.736799 0.639187 -0.561574
C33   C     C_3   0.829992 0.807355 0.519064 -0.330795
H20   H     H_    0.809848 0.753562 0.430031 0.166731
H21   H     H_    0.932064 0.843576 0.519176 0.160679
H22   H     H_    0.777728 0.887884 0.504242 0.176077
N6    N     N_R   0.894158 0.546832 0.246232 0.258024
O20   O     O_R   0.849428 0.639354 0.182425 -0.407913
O21   O     O_R   0.883401 0.438894 0.196502 -0.371880
O22   O     O_3   0.514345 0.897318 0.248957 -0.578724
C34   C     C_3   0.642365 0.901979 0.210289 -0.272929
H23   H     H_    0.648776 0.870645 0.107546 0.242448
H24   H     H_    0.691556 0.838016 0.275417 0.175737
H25   H     H_    0.692156 0.997357 0.210044 0.127709
N7    N     N_R   0.516278 0.823400 0.825492 0.205927
O23   O     O_R   0.568666 0.754130 0.913938 -0.397055
O24   O     O_R   0.395609 0.801497 0.806074 -0.443715

loop_
_geom_bond_atom_site_label_1
_geom_bond_atom_site_label_2
_geom_bond_distance
_ccdc_geom_bond_type
N4    O15   1.291474 A    
C25   N2    1.366039 A    
C25   H6    1.080787 S    
C7    H3    1.082361 S    
C30   H11   1.100081 S    
C24   C25   1.418260 A    
O19   C33   1.424621 S    
C29   H8    1.103536 S    
Zn1   O7    1.992565 S    
C13   C14   1.413607 A    
C31   H14   1.107628 S    
O4    C2    1.314315 A    
C15   C16   1.395327 A    
C7    C8    1.397083 A    
C23   N1    1.373657 A    
C17   H4    1.083272 S    
O7    C4    1.309848 A    
C33   H21   1.116076 S    
C30   H12   1.097741 S    
C5    H1    1.072416 S    
O12   C30   1.415812 S    
Zn1   O5    2.017008 S    
C20   C21   1.509130 S    
C32   H17   1.113993 S    
N5    O17   1.299709 A    
O5    C3    1.292405 A    
C28   N5    1.464220 S    
C31   H15   1.105892 S    
C21   C22   1.568700 S    
C10   C11   1.417860 A    
Zn1   N2    2.031896 S    
C4    C14   1.482603 S    
C28   O18   1.428013 S    
C29   H10   1.105944 S    
C5    C10   1.408192 A    
N4    O14   1.300749 A    
C15   C20   1.359097 A    
C13   N6    1.421113 S    
C8    C9    1.415527 A    
C32   H18   1.108703 S    
O13   C31   1.412986 S    
Zn2   N1    2.033625 S    
O3    Zn1   1.997305 S    
C29   H9    1.108725 S    
C19   C20   1.403095 A    
C27   H7    1.104394 S    
O11   C29   1.421604 S    
C11   C12   1.401148 A    
O3    C2    1.294281 A    
C24   H5    1.054117 S    
C34   H23   1.103213 S    
C30   H13   1.109146 S    
C12   C13   1.401270 A    
O22   C34   1.413058 S    
C34   H25   1.114117 S    
O1    C1    1.306825 A    
N2    C26   1.368861 A    
C3    C19   1.453364 S    
C16   C17   1.417657 A    
C22   O12   1.423581 S    
N7    O24   1.301477 A    
Zn2   O8    1.997304 S    
C2    C11   1.473047 S    
C6    H2    1.081933 S    
C12   N3    1.448696 S    
N3    O9    1.300445 A    
O8    C4    1.300841 A    
N6    O21   1.300922 A    
C9    C14   1.412081 A    
C21   O11   1.435777 S    
C32   H19   1.100047 S    
C22   O13   1.426171 S    
C26   C27   1.498210 S    
C5    C6    1.396114 A    
C31   H16   1.109219 S    
O1    Zn1   2.062897 S    
O2    Zn2   2.017008 S    
O18   C32   1.421850 S    
O6    C3    1.310158 A    
O4    Zn2   1.992566 S    
C18   C19   1.409420 A    
C23   C26   1.421194 A    
O2    C1    1.295604 A    
C17   C18   1.400257 A    
C33   H20   1.102519 S    
C33   H22   1.099607 S    
C1    C16   1.451642 S    
N7    O23   1.298963 A    
N1    C24   1.362762 A    
C18   O22   1.379586 S    
N3    O10   1.299160 A    
C6    C7    1.392424 A    
C34   H24   1.105099 S    
N5    O16   1.299576 A    
C21   N7    1.465016 S    
C27   C28   1.531707 S    
C15   C22   1.507505 S    
Zn2   O6    2.062897 S    
N6    O20   1.301735 A    
C8    O19   1.386762 S    
C27   N4    1.450061 S    
C9    C10   1.410820 A    
C23   C28   1.517145 S    
