data_mof_unit_11970.cif
_audit_creation_date              2012-12-11T14:43:33-0500
_audit_creation_method            fapswitch 2.2
_symmetry_space_group_name_H-M    P1
_symmetry_Int_Tables_number       1
_space_group_crystal_system       triclinic
_cell_length_a                    20.82221
_cell_length_b                    7.103098
_cell_length_c                    16.398959
_cell_angle_alpha                 90.219276
_cell_angle_beta                  92.498927
_cell_angle_gamma                 89.799993
_cell_volume                      2423.10442501

loop_
_atom_site_label
_atom_site_type_symbol
_atom_type_description
_atom_site_fract_x
_atom_site_fract_y
_atom_site_fract_z
_atom_type_partial_charge
O1    O     O_R   0.564840 0.505290 0.579830 -0.537805
O2    O     O_R   0.435160 0.005290 0.420170 -0.537344
O3    O     O_R   0.556720 0.179930 0.409350 -0.536913
O4    O     O_R   0.443280 0.679930 0.590650 -0.537956
C1    C     C_R   0.570257 0.344192 0.380874 0.726213
C2    C     C_R   0.429830 0.845386 0.619151 0.726374
O5    O     O_R   0.572280 0.175810 0.578530 -0.543355
O6    O     O_R   0.427720 0.675810 0.421470 -0.543492
O7    O     O_R   0.450830 0.001920 0.590540 -0.535581
O8    O     O_R   0.549170 0.501920 0.409460 -0.536668
C3    C     C_R   0.590050 0.342749 0.605059 0.692737
C4    C     C_R   0.409976 0.842719 0.394929 0.692075
O9    O     O_3   0.460130 0.338030 0.503750 -0.372816
O10   O     O_3   0.539870 0.838030 0.496250 -0.373130
V1    V     V_3+5 0.507400 0.064560 0.499310 1.413078
V2    V     V_3+5 0.492600 0.564560 0.500690 1.409265
C5    C     C_R   0.144656 0.926895 0.166803 -0.065838
C6    C     C_R   0.855294 0.426799 0.833248 -0.064597
C7    C     C_R   0.355656 0.839097 0.332638 -0.064138
C8    C     C_R   0.644413 0.339186 0.667291 -0.066614
C9    C     C_R   0.291460 0.656294 0.232017 -0.198439
C10   C     C_R   0.708813 0.156918 0.767729 -0.194083
C11   C     C_R   0.345688 0.675527 0.284598 -0.160085
C12   C     C_R   0.654571 0.176068 0.715152 -0.155352
C13   C     C_R   0.310452 0.986010 0.325239 -0.242938
C14   C     C_R   0.689453 0.485719 0.674843 -0.245254
C15   C     C_R   0.255220 0.966595 0.272774 0.159760
C16   C     C_R   0.744701 0.466364 0.727294 0.159557
C17   C     C_R   0.245398 0.799938 0.226073 0.158950
C18   C     C_R   0.754703 0.300177 0.773838 0.157376
C19   C     C_R   0.190055 0.780363 0.173785 -0.245383
C20   C     C_R   0.810052 0.280678 0.826131 -0.245505
C21   C     C_R   0.154773 0.090661 0.214662 -0.158852
C22   C     C_R   0.845006 0.590081 0.785537 -0.158608
C23   C     C_R   0.209175 0.110238 0.266877 -0.200661
C24   C     C_R   0.790585 0.609598 0.733337 -0.200822
H1    H     H_    0.183449 0.654448 0.136842 0.125477
H2    H     H_    0.816788 0.155155 0.862964 0.125020
H3    H     H_    0.120661 0.206150 0.211038 0.127469
H4    H     H_    0.878998 0.705234 0.789259 0.126690
H5    H     H_    0.285248 0.527866 0.196693 0.123547
H6    H     H_    0.715170 0.028853 0.802924 0.124665
H7    H     H_    0.215442 0.238748 0.302130 0.120861
H8    H     H_    0.784180 0.737736 0.698202 0.120508
H9    H     H_    0.379742 0.559911 0.288424 0.127925
H10   H     H_    0.620652 0.060750 0.711206 0.128958
H11   H     H_    0.317026 0.111955 0.362169 0.123162
H12   H     H_    0.682734 0.611311 0.638052 0.123240
C25   C     C_R   0.382315 0.892066 0.837489 0.469537
C26   C     C_R   0.619282 0.321473 0.162459 0.470470
H13   H     H_    0.471154 0.882765 0.775244 0.121839
H14   H     H_    0.530882 0.295298 0.224702 0.122988
H15   H     H_    0.300669 0.927339 0.958368 0.170539
H16   H     H_    0.701693 0.319735 0.041582 0.170274
C27   C     C_R   0.389719 0.857027 0.690869 -0.103074
C28   C     C_R   0.610490 0.350133 0.309151 -0.103490
C29   C     C_R   0.078070 0.890305 0.732636 -0.165268
C30   C     C_R   0.920791 0.438127 0.267385 -0.165729
C31   C     C_R   0.112655 0.872851 0.662435 -0.123756
C32   C     C_R   0.885794 0.440676 0.337595 -0.123639
C33   C     C_R   0.179626 0.868591 0.667151 -0.156793
C34   C     C_R   0.819236 0.419272 0.332865 -0.156347
C35   C     C_R   0.214247 0.882259 0.743192 0.105031
C36   C     C_R   0.785480 0.393841 0.256805 0.105058
C37   C     C_R   0.178241 0.902198 0.815160 0.074016
C38   C     C_R   0.822000 0.389379 0.184815 0.074217
C39   C     C_R   0.283217 0.877084 0.750080 0.019738
C40   C     C_R   0.716891 0.372504 0.249926 0.019595
C41   C     C_R   0.314468 0.894811 0.828740 0.035965
C42   C     C_R   0.686652 0.344487 0.171235 0.036593
C43   C     C_R   0.277783 0.914499 0.898010 -0.168402
C44   C     C_R   0.723842 0.340245 0.101954 -0.165959
C45   C     C_R   0.211072 0.917426 0.891459 -0.213068
C46   C     C_R   0.790088 0.362881 0.108507 -0.211901
C47   C     C_R   0.322419 0.855928 0.681682 -0.224946
C48   C     C_R   0.677151 0.376871 0.318358 -0.224151
C49   C     C_R   0.419181 0.877573 0.768336 -0.247758
C50   C     C_R   0.582154 0.320290 0.231628 -0.248637
C51   C     C_R   0.109868 0.905504 0.809158 -0.080543
C52   C     C_R   0.889909 0.412516 0.190818 -0.080947
H17   H     H_    0.302425 0.840774 0.620325 0.106343
H18   H     H_    0.696346 0.398128 0.379750 0.106233
H19   H     H_    0.026002 0.891535 0.727291 0.101893
H20   H     H_    0.972446 0.456782 0.272759 0.102822
H21   H     H_    0.202708 0.854690 0.609962 0.107719
H22   H     H_    0.795783 0.423113 0.390060 0.107525
H23   H     H_    0.087267 0.861712 0.603584 0.119411
H24   H     H_    0.910500 0.460283 0.396469 0.119420
H25   H     H_    0.185318 0.932395 0.947095 0.112804
H26   H     H_    0.816242 0.358825 0.052869 0.112354
O11   O     O_R   0.950790 0.256670 0.090520 -0.534003
O12   O     O_R   0.049210 0.756670 0.909480 -0.533486
O13   O     O_R   0.927720 0.590370 0.921470 -0.541867
O14   O     O_R   0.072280 0.090370 0.078530 -0.542450
C53   C     C_R   0.909991 0.423004 0.894982 0.688034
C54   C     C_R   0.089990 0.923035 0.105022 0.687733
O15   O     O_R   0.943270 0.586180 0.090640 -0.535490
O16   O     O_R   0.056730 0.086180 0.909360 -0.536128
O17   O     O_R   0.064850 0.759970 0.079840 -0.537169
O18   O     O_R   0.935150 0.259970 0.920160 -0.537732
C55   C     C_R   0.930099 0.418239 0.118766 0.683241
C56   C     C_R   0.069805 0.917084 0.881208 0.683235
O19   O     O_3   0.039850 0.428050 0.996240 -0.370319
O20   O     O_3   0.960150 0.928050 0.003760 -0.370325
V3    V     V_3+5 0.992610 0.701540 0.000700 1.419490
V4    V     V_3+5 0.007390 0.201540 0.999300 1.416792
O21   O     O_3   0.412755 0.918571 0.913340 -0.552425
C57   C     C_3   0.437164 0.743994 0.941441 -0.261990
H27   H     H_    0.398406 0.636823 0.944317 0.137411
H28   H     H_    0.458056 0.763478 0.004273 0.170130
H29   H     H_    0.476216 0.692039 0.902914 0.136112
O22   O     O_3   0.590265 0.284915 0.086552 -0.551961
C58   C     C_3   0.557683 0.448554 0.058953 -0.260515
H30   H     H_    0.537873 0.422469 0.996052 0.172203
H31   H     H_    0.590878 0.570838 0.056423 0.138191
H32   H     H_    0.516575 0.482718 0.097582 0.134627

loop_
_geom_bond_atom_site_label_1
_geom_bond_atom_site_label_2
_ccdc_geom_bond_type
C35   C37   A    
C28   C48   A    
C15   C17   A    
C29   C51   A    
C1    C28   S    
O1    C3    A    
C2    C27   S    
O2    C4    A    
C2    O7    A    
O20   V4    S    
C32   H24   S    
C37   C45   A    
C37   C51   A    
C25   O21   S    
O5    C3    A    
C34   H22   S    
C21   H3    S    
C11   H9    S    
C36   C40   A    
C27   C49   A    
C29   C31   A    
C30   C32   A    
C38   C46   A    
C54   O17   A    
C28   C50   A    
C57   H27   S    
C32   C34   A    
C41   C43   A    
O20   V3    S    
C34   C36   A    
O13   V3    S    
C8    C12   A    
C25   C49   A    
O21   C57   S    
C29   H19   S    
C51   C56   S    
C20   H2    S    
C23   H7    S    
C13   H11   S    
C22   C24   A    
C14   H12   S    
C58   H32   S    
C27   C47   A    
O5    V1    S    
O6    V2    S    
C25   C41   A    
C6    C53   S    
O11   V4    S    
C5    C21   A    
O11   C55   A    
H14   C50   S    
C26   C50   A    
O22   C58   S    
O17   V3    S    
C35   C39   A    
C3    C8    S    
C31   C33   A    
C44   C46   A    
C48   H18   S    
C5    C54   S    
C53   O18   A    
C47   H17   S    
C15   C23   A    
O16   C56   A    
C9    C17   A    
C19   H1    S    
C39   C41   A    
C36   C38   A    
O4    V2    S    
C7    C11   A    
H13   C49   S    
C30   H20   S    
O6    C4    A    
C26   O22   S    
H16   C44   S    
O19   V3    S    
O1    V2    S    
O14   C54   A    
O2    V1    S    
C6    C22   A    
C33   H21   S    
C9    H5    S    
O4    C2    A    
C9    C11   A    
C13   C15   A    
C5    C19   A    
C22   H4    S    
C24   H8    S    
C39   C47   A    
H15   C43   S    
O3    V1    S    
C43   C45   A    
C58   H30   S    
O14   V4    S    
C10   C18   A    
C14   C16   A    
C33   C35   A    
O3    C1    A    
C30   C52   A    
C40   C48   A    
C38   C52   A    
O18   V4    S    
O16   V4    S    
C57   H29   S    
C52   C55   S    
C12   H10   S    
C46   H26   S    
C16   C18   A    
C26   C42   A    
O15   V3    S    
C1    O8    A    
C17   C19   A    
O8    V2    S    
C18   C20   A    
C10   H6    S    
C8    C14   A    
C4    C7    S    
C21   C23   A    
C57   H28   S    
O19   V4    S    
C10   C12   A    
O7    V1    S    
C7    C13   A    
C31   H23   S    
C45   H25   S    
O12   V3    S    
C6    C20   A    
C16   C24   A    
O13   C53   A    
O9    V2    S    
C40   C42   A    
O10   V1    S    
C42   C44   A    
O15   C55   A    
O12   C56   A    
C58   H31   S    
