data_mof_unit_39915.cif
_audit_creation_date              2012-12-11T19:42:22-0500
_audit_creation_method            fapswitch 2.2
_symmetry_space_group_name_H-M    P1
_symmetry_Int_Tables_number       1
_space_group_crystal_system       triclinic
_cell_length_a                    8.886037
_cell_length_b                    15.675045
_cell_length_c                    27.152242
_cell_angle_alpha                 101.656517
_cell_angle_beta                  92.515871
_cell_angle_gamma                 79.750054
_cell_volume                      3644.7742714

loop_
_atom_site_label
_atom_site_type_symbol
_atom_type_description
_atom_site_fract_x
_atom_site_fract_y
_atom_site_fract_z
_atom_type_partial_charge
Ba1   Ba    Ba6+2 0.860050 0.456430 0.522530 1.990977
Ba2   Ba    Ba6+2 0.329780 0.543490 0.477460 2.014399
C1    C     C_3   0.705471 0.174394 0.706695 0.613297
C2    C     C_R   0.825744 0.492987 0.163232 0.689935
C3    C     C_2   0.774802 0.536659 0.272118 0.036963
C4    C     C_3   0.186573 0.266504 0.650438 0.339007
C5    C     C_3   0.728530 0.534123 0.324194 0.132651
C6    C     C_1   0.987816 0.465022 0.339335 0.022861
C7    C     C_2   0.012320 0.440980 0.289466 0.036999
C8    C     C_2   0.905608 0.483553 0.251982 0.247394
C9    C     C_R   0.002663 0.464735 0.093903 -0.124861
C10   C     C_R   0.116164 0.430389 0.125898 -0.067898
C11   C     C_R   0.250566 0.378593 0.104361 0.004262
C12   C     C_3   0.672046 0.231343 0.665601 0.327125
C13   C     C_R   0.859540 0.503885 0.114470 -0.116221
C14   C     C_2   0.862130 0.518343 0.358695 -0.079200
C15   C     C_2   0.347747 0.496889 0.643482 0.186714
C16   C     C_3   0.175249 0.250053 0.703216 -0.160195
C17   C     C_R   0.210466 0.411006 0.970171 0.037215
C18   C     C_R   0.957885 0.500592 0.959722 0.054320
C19   C     C_R   0.101093 0.454028 0.939531 0.052769
C20   C     C_R   0.359711 0.380451 0.950683 0.048083
C21   C     C_R   0.397443 0.386249 0.902303 0.064888
C22   C     C_R   0.289371 0.426118 0.871350 -0.049410
C23   C     C_3   0.402270 0.804357 0.634855 0.308993
C24   C     C_R   0.139948 0.456368 0.888986 -0.097710
C25   C     C_R   0.031404 0.493520 0.856845 -0.041772
C26   C     C_R   0.067144 0.485645 0.805457 0.679280
C27   C     C_R   0.330311 0.443074 0.824804 0.677988
C28   C     C_3   0.190043 0.231596 0.361687 0.671437
C29   C     C_2   0.391688 0.418218 0.715813 -0.136478
C30   C     C_3   0.436430 0.418019 0.662685 -0.220245
C31   C     C_1   0.204073 0.525529 0.658123 -0.054908
C32   C     C_2   0.165198 0.528981 0.705843 0.328676
C33   C     C_2   0.261111 0.468986 0.737482 0.156231
C34   C     C_3   0.443026 0.834159 0.691343 0.284857
C35   C     C_R   0.173246 0.408632 0.020735 -0.000467
C36   C     C_R   0.032161 0.458969 0.041689 -0.014058
C37   C     C_R   0.917853 0.499598 0.010625 -0.082879
C38   C     C_R   0.270356 0.358223 0.052115 0.385701
C39   C     C_R   0.749307 0.546696 0.084883 0.416791
C40   C     C_3   0.182477 0.184018 0.305972 -0.110687
C41   C     C_R   0.868191 0.553968 0.929241 0.010379
C42   C     C_R   0.894830 0.543314 0.877791 0.021558
C43   C     C_R   0.769472 0.536601 0.032656 0.354096
C44   C     C_R   0.843055 0.835172 0.473764 0.118388
C45   C     C_3   0.987645 0.785450 0.334715 0.737461
C46   C     C_R   0.782917 0.928444 0.481157 0.005192
C47   C     C_R   0.647087 0.114832 0.488417 -0.038713
C48   C     C_R   0.795205 0.079036 0.470013 0.061328
C49   C     C_R   0.859968 0.988880 0.465503 0.082985
C50   C     C_R   0.575987 0.206832 0.489285 -0.035918
C51   C     C_R   0.416719 0.227105 0.501830 0.107964
C52   C     C_3   0.919914 0.739176 0.620014 0.766783
C53   C     C_R   0.615426 0.811369 0.516962 -0.072146
C54   C     C_R   0.560662 0.905925 0.524973 -0.060960
C55   C     C_R   0.637149 0.962213 0.503085 0.070224
C56   C     C_3   0.971961 0.853047 0.296839 0.566102
C57   C     C_R   0.433956 0.949963 0.554830 0.321876
C58   C     C_R   0.339050 0.015055 0.534942 0.397442
C59   C     C_R   0.409133 0.080389 0.519151 -0.025363
C60   C     C_R   0.565311 0.053606 0.504038 0.059016
C61   C     C_R   0.338170 0.169915 0.521585 -0.001731
C62   C     C_R   0.754858 0.779197 0.490498 -0.139313
C63   C     C_3   0.830277 0.767996 0.668701 -0.197250
C64   C     C_3   0.650536 0.254221 0.344806 0.913468
C65   C     C_3   0.618369 0.172204 0.307179 -0.079041
C66   C     C_3   0.425465 0.767133 0.371406 0.400008
C67   C     C_3   0.367850 0.856585 0.356012 0.694423
C68   C     C_R   0.088723 0.443175 0.178491 0.700310
Cl1   Cl    Cl    0.116847 0.837620 0.250204 -0.401769
Cl2   Cl    Cl    0.369186 0.944680 0.408725 -0.688426
Cl3   Cl    Cl    0.456019 0.878661 0.303089 -0.314117
Cl4   Cl    Cl    0.591878 0.623323 0.114801 -0.397028
Cl5   Cl    Cl    0.064612 0.630907 0.738101 -0.550663
Cl6   Cl    Cl    0.143948 0.015411 0.541543 -0.575872
Cl7   Cl    Cl    0.336847 0.160133 0.387792 -0.604977
H1    H     H_    0.698071 0.189812 0.627762 0.076676
H2    H     H_    0.688883 0.158372 0.272745 0.163555
H3    H     H_    0.499360 0.182522 0.294207 0.066095
H4    H     H_    0.547687 0.255172 0.666625 -0.157697
H5    H     H_    0.613361 0.134199 0.703520 0.045258
H6    H     H_    0.358505 0.860061 0.616840 0.058237
H7    H     H_    0.306585 0.768270 0.632592 0.181148
H8    H     H_    0.530637 0.782763 0.703398 0.097363
H9    H     H_    0.493898 0.894439 0.698256 0.080881
H10   H     H_    0.234572 0.295052 0.730710 0.036161
H11   H     H_    0.871081 0.843526 0.272156 0.124524
H12   H     H_    0.290015 0.140073 0.292581 0.124506
H13   H     H_    0.506175 0.773808 0.403560 -0.035648
H14   H     H_    0.326790 0.745089 0.385342 -0.021969
H15   H     H_    0.250690 0.857324 0.343075 0.078044
H16   H     H_    0.116153 0.332306 0.649411 -0.014465
H17   H     H_    0.099750 0.384567 0.276090 0.128276
H18   H     H_    0.331991 0.344204 0.127720 0.175654
H19   H     H_    0.459592 0.369294 0.733823 0.192002
H20   H     H_    0.514091 0.361747 0.889750 0.169507
H21   H     H_    0.453857 0.358230 0.973664 0.178411
H22   H     H_    0.699057 0.579637 0.251800 0.178611
H23   H     H_    0.100338 0.137796 0.299401 0.235208
H24   H     H_    0.778587 0.606660 0.944587 0.168802
H25   H     H_    0.307364 0.267052 0.642565 -0.064135
H26   H     H_    0.814979 0.580883 0.855500 0.158596
H27   H     H_    0.851369 0.547656 0.398465 0.035342
H28   H     H_    0.863173 0.119623 0.457715 0.079715
H29   H     H_    0.972444 0.966892 0.449404 0.117085
H30   H     H_    0.053297 0.262415 0.714084 0.182241
H31   H     H_    0.799076 0.708985 0.484391 0.022994
H32   H     H_    0.229600 0.181639 0.705053 0.186042
H33   H     H_    0.098720 0.237454 0.387076 0.122187
H34   H     H_    0.158625 0.231972 0.280509 0.112769
H35   H     H_    0.103447 0.931785 0.632269 0.427005
H36   H     H_    0.920764 0.168066 0.397244 0.327951
H37   H     H_    0.536180 0.418072 0.396657 0.373852
H38   H     H_    0.813012 0.011009 0.743629 0.363530
H39   H     H_    0.273941 0.852614 0.813598 0.389112
H40   H     H_    0.777339 0.214980 0.843413 0.375724
H41   H     H_    0.195018 0.625034 0.362158 0.352183
H42   H     H_    0.660245 0.859482 0.402096 0.323534
H43   H     H_    0.075629 0.018157 0.386122 0.367019
H44   H     H_    0.415784 0.158041 0.959403 0.390152
H45   H     H_    0.853996 0.703734 0.589190 -0.188518
H46   H     H_    0.359597 0.560763 0.019060 0.371619
H47   H     H_    0.656328 0.610051 0.622745 0.364328
H48   H     H_    0.355311 0.037135 0.688285 0.373125
H49   H     H_    0.409998 0.390265 0.550067 0.258705
H50   H     H_    0.789815 0.710779 0.678696 0.073815
H51   H     H_    0.732566 0.819258 0.664358 0.113894
H52   H     H_    0.901322 0.796705 0.700137 0.209905
H53   H     H_    0.637135 0.113310 0.324734 0.197598
N1    N     N_R   0.941543 0.473330 0.197670 -0.423693
N2    N     N_R   0.218843 0.465824 0.789541 -0.429735
O1    O     O_2   0.906480 0.548660 0.619050 -0.500507
O2    O     O_2   0.156068 0.820991 0.472453 -0.411917
O3    O     O_3   0.062835 0.816007 0.381556 -0.691326
O4    O     O_3   0.138490 0.548590 0.558870 -0.386872
O5    O     O_3   0.572560 0.389960 0.472890 -0.432142
O6    O     O_2   0.345660 0.723580 0.528500 -0.383663
O7    O     O_3   0.533915 0.751117 0.610092 -0.672218
O8    O     O_2   0.416470 0.550690 0.322365 -0.339317
O9    O     O_3   0.492456 0.703804 0.330685 -0.501522
O10   O     O_2   0.196411 0.426891 0.206508 -0.509636
O11   O     O_2   0.465222 0.441171 0.817039 -0.488736
O12   O     O_3   0.599560 0.250223 0.393343 -0.619991
O13   O     O_2   0.692612 0.494642 0.173296 -0.496005
O14   O     O_2   0.962669 0.495269 0.775291 -0.501486
O15   O     O_3   0.686300 0.382310 0.585700 -0.478327
O16   O     O_2   0.731129 0.468430 0.678533 -0.332821
O17   O     O_3   0.059377 0.689925 0.630193 -0.577493
O18   O     O_3   0.757630 0.300240 0.672193 -0.580235
O19   O     O_2   0.844040 0.276390 0.471470 -0.452782
O20   O     O_3   0.101510 0.335500 0.560330 -0.432015
O21   O     O_2   0.014329 0.185195 0.526083 -0.416741
O22   O     O_2   0.075291 0.799109 0.558006 -0.321152
O23   O     O_3   0.132891 0.199264 0.615541 -0.497693
O24   O     O_2   0.835524 0.893546 0.586032 -0.259626
O25   O     O_3   0.060968 0.889956 0.648151 -0.412884
O26   O     O_2   0.890718 0.261041 0.295198 -0.360482
O27   O     O_2   0.868519 0.331555 0.384903 -0.441758
O28   O     O_3   0.914075 0.156951 0.360529 -0.551550
O29   O     O_2   0.648665 0.359868 0.276149 -0.254312
O30   O     O_2   0.402693 0.346350 0.303284 -0.272224
O31   O     O_3   0.580490 0.432199 0.367953 -0.561476
O32   O     O_2   0.931390 0.081617 0.643738 -0.199697
O33   O     O_2   0.003077 0.122170 0.732407 -0.230698
O34   O     O_2   0.283210 0.451310 0.380920 -0.360955
O35   O     O_3   0.840513 0.998841 0.707630 -0.398430
O36   O     O_2   0.201008 0.946631 0.737593 -0.196075
O37   O     O_2   0.184985 0.788449 0.719231 -0.206923
O38   O     O_3   0.363546 0.845254 0.791721 -0.457851
O39   O     O_2   0.751460 0.321724 0.774441 -0.236549
O40   O     O_2   0.528026 0.254987 0.785801 -0.352665
O41   O     O_3   0.793690 0.176965 0.809543 -0.455484
O42   O     O_2   0.999675 0.648447 0.255850 -0.260436
O43   O     O_2   0.243230 0.686903 0.284518 -0.224495
O44   O     O_3   0.110571 0.608811 0.339668 -0.538606
O45   O     O_3   0.051220 0.451340 0.441120 -0.421889
O46   O     O_2   0.728916 0.738913 0.294026 -0.233489
O47   O     O_2   0.797717 0.704580 0.376980 -0.471169
O48   O     O_3   0.701201 0.868422 0.371098 -0.474542
O49   O     O_2   0.898454 0.015179 0.279213 -0.199269
O50   O     O_2   0.810601 0.996540 0.359069 -0.284695
O51   O     O_3   0.098190 0.001008 0.349766 -0.446752
O52   O     O_2   0.550976 0.262526 0.032242 -0.263493
O53   O     O_2   0.361593 0.190287 0.062288 -0.214073
O54   O     O_3   0.336803 0.211106 0.970062 -0.505978
O55   O     O_2   0.550478 0.647523 0.994300 -0.236165
O56   O     O_3   0.503410 0.617620 0.414290 -0.528021
O57   O     O_2   0.609543 0.495163 0.946068 -0.329127
O58   O     O_3   0.455215 0.523484 0.027802 -0.494736
O59   O     O_2   0.353489 0.625235 0.595759 -0.301545
O60   O     O_2   0.438043 0.644463 0.684116 -0.319354
O61   O     O_3   0.617583 0.553865 0.613157 -0.450341
O62   O     O_2   0.510090 0.091977 0.617389 -0.392507
O63   O     O_2   0.605795 0.950657 0.639885 -0.277657
O64   O     O_3   0.318345 0.017821 0.653597 -0.491759
O65   O     O_2   0.357903 0.340119 0.439884 -0.262472
O66   O     O_2   0.142533 0.304864 0.472175 -0.278935
O67   O     O_3   0.227019 0.315437 0.363689 -0.552347
O68   O     O_3   0.310903 0.405117 0.533112 -0.496316
O69   O     O_3   0.617150 0.609960 0.527100 -0.424325
O70   O     O_3   0.088210 0.664420 0.439670 -0.478975
P1    P     P_3+3 0.071950 0.575820 0.612140 1.144216
P2    P     P_3+3 0.664370 0.290050 0.457240 1.142486
P3    P     P_3+3 0.150163 0.220493 0.555379 1.144495
P4    P     P_3+3 0.117760 0.424110 0.387850 1.241287
P5    P     P_3+3 0.030151 0.780659 0.439280 1.088217
P6    P     P_3+3 0.651489 0.391858 0.650440 1.119175
P7    P     P_3+3 0.523425 0.726698 0.543475 1.043062
P8    P     P_3+3 0.540019 0.601946 0.349349 1.179040
S1    S     S_3+6 0.969730 0.832799 0.601397 -0.026869
S2    S     S_3+6 0.385067 0.253338 0.029449 -0.037043
S3    S     S_3+6 0.594918 0.551716 0.997783 -0.051236
S4    S     S_3+6 0.440707 0.581620 0.634451 -0.063856
S5    S     S_3+6 0.473147 0.002541 0.617493 -0.112258
S6    S     S_3+6 0.302430 0.320127 0.485373 -0.045720
S7    S     S_3+6 0.839281 0.253998 0.345901 -0.170272
S8    S     S_3+6 0.564253 0.348931 0.320598 -0.004671
S9    S     S_3+6 0.878248 0.094804 0.696922 0.072282
S10   S     S_3+6 0.289181 0.854683 0.734672 0.024084
S11   S     S_3+6 0.692659 0.236336 0.770255 -0.044798
S12   S     S_3+6 0.088742 0.681008 0.301883 -0.019752
S13   S     S_3+6 0.799094 0.770502 0.344223 -0.094643
S14   S     S_3+6 0.939514 0.968626 0.322459 0.008862

loop_
_geom_bond_atom_site_label_1
_geom_bond_atom_site_label_2
_ccdc_geom_bond_type
O1    P1    D    
C53   C54   A    
O55   S3    D    
C20   H21   S    
O54   S2    S    
C67   Cl2   S    
Ba2   O70   S    
C16   H32   S    
O19   P2    D    
C19   C24   A    
O41   S11   S    
C34   S10   S    
O30   S8    D    
O2    P5    D    
O8    P8    D    
C46   C55   A    
C52   C63   S    
C29   C30   S    
O7    P7    S    
C24   C25   A    
C35   C36   A    
O44   S12   S    
C11   H18   S    
C63   H50   S    
C23   O7    S    
C22   C24   A    
C32   C33   S    
C64   S7    S    
C49   H29   S    
O59   S4    D    
C36   C37   A    
C57   S5    S    
C56   Cl1   S    
C27   N2    Am   
C64   O12   S    
H40   O41   S    
C29   H19   S    
C27   O11   D    
C66   H14   S    
O45   P4    S    
Ba1   O20   S    
Ba1   Ba2   S    
O60   S4    D    
C59   C61   A    
O49   S14   D    
C16   H30   S    
C11   C38   A    
C10   C68   A    
O40   S11   D    
C17   C35   A    
H44   O54   S    
O12   P2    S    
C28   Cl7   S    
C9    C13   A    
C25   C42   A    
C14   H27   S    
C46   C49   A    
C3    H22   S    
C66   C67   S    
O27   S7    D    
O42   S12   D    
H47   O61   S    
C23   H7    S    
C43   S3    S    
C21   C22   A    
C67   Cl3   S    
Ba2   P4    S    
Ba2   O45   S    
C2    N1    Am   
Ba1   O4    S    
C7    C8    S    
Ba2   O34   S    
Ba1   O19   S    
O63   S5    D    
C4    O23   S    
C32   Cl5   S    
C37   C43   A    
C4    H16   S    
C4    H25   S    
C64   C65   S    
C52   H45   S    
Ba1   O69   S    
C57   C58   A    
C6    C14   D    
O29   S8    D    
C39   Cl4   S    
O24   S1    D    
O15   P6    S    
Ba2   O69   S    
O56   P8    S    
Ba1   O1    S    
O35   S9    S    
O39   S11   D    
C42   H26   S    
O52   S2    D    
C52   O17   S    
O38   S10   S    
C44   P5    S    
C4    C16   S    
O69   P7    S    
C44   C46   A    
C68   O10   D    
H35   O25   S    
Ba2   O6    S    
C63   H51   S    
O20   P3    S    
O61   S4    S    
C17   C20   A    
C65   H2    S    
C13   C39   A    
H43   O51   S    
O62   S5    D    
C3    C5    S    
O64   S5    S    
C56   S14   S    
C6    C7    D    
H48   O64   S    
C34   H9    S    
O66   S6    D    
C58   Cl6   S    
O67   P4    S    
Ba2   O4    S    
C44   C62   A    
C58   C59   A    
C50   P2    S    
C9    C36   A    
C41   C42   A    
C41   H24   S    
O22   S1    D    
C40   H23   S    
C48   H28   S    
C66   H13   S    
O28   S7    S    
C5    P8    S    
C47   C50   A    
C53   C62   A    
C12   O18   S    
C1    H5    S    
C31   C32   D    
O53   S2    D    
H39   O38   S    
C66   O9    S    
C15   C31   D    
O36   S10   D    
H46   O58   S    
C6    P4    S    
O65   S6    D    
C1    C12   S    
O57   S3    D    
O21   P3    D    
O32   S9    D    
C1    S9    S    
C5    C14   S    
C21   H20   S    
C45   S12   S    
C28   H33   S    
O25   S1    S    
C51   S6    S    
O70   P5    S    
C29   C33   D    
O46   S13   D    
Ba1   O15   S    
C65   H53   S    
C30   P6    S    
H42   O48   S    
C55   C60   A    
H38   O35   S    
C15   S4    S    
C67   H15   S    
C18   C41   A    
Ba1   O5    S    
C50   C51   A    
O3    P5    S    
H49   O68   S    
O17   P1    S    
C54   C55   A    
C45   S13   S    
C52   S1    S    
C39   C43   A    
O51   S14   S    
C45   O3    S    
C18   C19   A    
Ba2   O5    S    
C26   O14   D    
C40   H34   S    
C65   H3    S    
C8    N1    S    
O48   S13   S    
O23   P3    S    
C56   H11   S    
C63   H52   S    
C9    C10   A    
O5    P2    S    
C34   H8    S    
C35   C38   A    
C38   S2    S    
O6    P7    D    
O50   S14   D    
C53   P7    S    
C54   C57   A    
C40   H12   S    
C2    C13   A    
C18   C37   A    
O18   P6    S    
C3    C8    D    
C64   S8    S    
C45   C56   S    
C51   C61   A    
H37   O31   S    
O26   S7    D    
C2    O13   D    
C33   N2    S    
C68   N1    Am   
O68   S6    S    
O43   S12   D    
C31   P1    S    
C28   O67   S    
C12   H1    S    
H36   O28   S    
C59   C60   A    
C16   H10   S    
Ba2   O56   S    
O58   S3    S    
O16   P6    D    
C23   C34   S    
H41   O44   S    
O31   S8    S    
C22   C27   A    
O37   S10   D    
C10   C11   A    
C1    S11   S    
C47   C48   A    
C61   P3    S    
O33   S9    D    
O47   S13   D    
C25   C26   A    
C23   H6    S    
C15   C30   S    
C48   C49   A    
C20   C21   A    
C28   C40   S    
C47   C60   A    
O34   P4    D    
C12   H4    S    
C26   N2    Am   
Ba1   P2    S    
Ba1   O45   S    
C7    H17   S    
O4    P1    S    
O9    P8    S    
C62   H31   S    
C17   C19   A    
Ba1   P1    S    
