data_mof_unit_53998.cif
_audit_creation_date              2012-12-11T17:03:19-0500
_audit_creation_method            fapswitch 2.2
_symmetry_space_group_name_H-M    P1
_symmetry_Int_Tables_number       1
_space_group_crystal_system       triclinic
_cell_length_a                    16.675175
_cell_length_b                    7.116212
_cell_length_c                    15.21984
_cell_angle_alpha                 90.040958
_cell_angle_beta                  94.619036
_cell_angle_gamma                 90.024994
_cell_volume                      1800.18191382

loop_
_atom_site_label
_atom_site_type_symbol
_atom_type_description
_atom_site_fract_x
_atom_site_fract_y
_atom_site_fract_z
_atom_type_partial_charge
O1    O     O_R   0.413460 0.494300 0.415980 -0.535655
O2    O     O_R   0.586540 0.994300 0.584020 -0.535862
O3    O     O_R   0.577100 0.822370 0.413730 -0.534003
O4    O     O_R   0.422900 0.322370 0.586270 -0.534933
C1    C     C_R   0.603790 0.655371 0.393465 0.721692
C2    C     C_R   0.396091 0.155410 0.606402 0.716129
O5    O     O_R   0.413490 0.823910 0.405510 -0.542705
O6    O     O_R   0.586510 0.323910 0.594490 -0.543397
O7    O     O_R   0.421770 0.995890 0.575740 -0.532564
O8    O     O_R   0.578230 0.495890 0.424260 -0.531202
C3    C     C_R   0.385355 0.655343 0.383630 0.692970
C4    C     C_R   0.614457 0.155354 0.616578 0.690575
O9    O     O_3   0.502910 0.661350 0.555860 -0.373876
O10   O     O_3   0.497090 0.161350 0.444140 -0.371903
V1    V     V_3+5 0.499460 0.935550 0.489640 1.405049
V2    V     V_3+5 0.500540 0.435550 0.510360 1.404052
C5    C     C_R   0.730958 0.982940 0.694463 0.080390
C6    C     C_R   0.309139 0.496696 0.254387 0.061619
C7    C     C_R   0.685044 0.146637 0.682419 -0.103255
C8    C     C_R   0.318284 0.647530 0.313419 -0.097454
C9    C     C_R   0.709033 0.302407 0.735192 -0.199136
C10   C     C_R   0.262618 0.796185 0.300939 -0.183771
C11   C     C_R   0.775225 0.290799 0.798812 -0.201733
C12   C     C_R   0.196388 0.783355 0.237255 -0.194871
C13   C     C_R   0.817962 0.122519 0.813949 -0.112723
C14   C     C_R   0.184413 0.622759 0.183211 -0.126281
C15   C     C_R   0.792973 0.969511 0.761403 0.101379
C16   C     C_R   0.244961 0.485672 0.190094 0.093824
C17   C     C_3   0.767189 0.776694 0.785783 -0.110253
C18   C     C_3   0.240905 0.276176 0.198466 -0.103169
C19   C     C_3   0.702754 0.788124 0.709076 -0.418661
C20   C     C_3   0.310557 0.289955 0.269961 -0.404190
C21   C     C_1   0.165336 0.120802 0.830564 -0.194687
C22   C     C_1   0.833686 0.620610 0.168278 -0.193983
C23   C     C_1   0.217963 0.128925 0.779181 0.001087
C24   C     C_1   0.780917 0.628664 0.219480 -0.000588
C25   C     C_1   0.280383 0.138484 0.719248 0.005518
C26   C     C_1   0.718765 0.638276 0.279744 0.004392
C27   C     C_1   0.333292 0.146408 0.668203 -0.196469
C28   C     C_1   0.666205 0.646268 0.331211 -0.194333
O11   O     O_R   0.921840 0.772560 0.075830 -0.532045
O12   O     O_R   0.078160 0.272560 0.924170 -0.529937
O13   O     O_R   0.086520 0.441250 0.094510 -0.541991
O14   O     O_R   0.913480 0.941250 0.905490 -0.541536
C29   C     C_R   0.114412 0.610180 0.116684 0.693022
C30   C     C_R   0.885340 0.110018 0.883667 0.688640
O15   O     O_R   0.922920 0.442940 0.086290 -0.533930
O16   O     O_R   0.077080 0.942940 0.913710 -0.534468
O17   O     O_R   0.913440 0.271120 0.915960 -0.539432
O18   O     O_R   0.086560 0.771120 0.084040 -0.539517
C31   C     C_R   0.896469 0.611511 0.106488 0.708672
C32   C     C_R   0.103148 0.111567 0.893053 0.712763
O19   O     O_3   0.997130 0.604020 0.944190 -0.371536
O20   O     O_3   0.002870 0.104020 0.055810 -0.373905
V3    V     V_3+5 0.000530 0.329760 0.010360 1.398831
V4    V     V_3+5 0.999470 0.829760 0.989640 1.397350
H1    H     H_    0.673767 0.429205 0.730690 0.144401
H2    H     H_    0.267824 0.918215 0.343408 0.129477
H3    H     H_    0.790346 0.408628 0.840938 0.133243
H4    H     H_    0.152939 0.896521 0.232490 0.132851
C33   C     C_3   0.733095 0.752668 0.877474 -0.318872
C34   C     C_3   0.678738 0.911821 0.907612 -0.272838
C35   C     C_3   0.635504 0.851832 0.987740 -0.797386
H5    H     H_    0.595361 0.730245 0.970917 0.228191
H6    H     H_    0.679897 0.812566 0.043036 0.235842
H7    H     H_    0.598329 0.970040 0.009384 0.221796
H8    H     H_    0.715343 0.037267 0.927019 0.192867
H9    H     H_    0.632862 0.952403 0.854169 0.198068
H10   H     H_    0.697564 0.620524 0.875480 0.169872
H11   H     H_    0.784234 0.733573 0.928094 0.171970
C36   C     C_3   0.260861 0.165000 0.115581 -0.310349
C37   C     C_3   0.324018 0.257150 0.060845 -0.302115
C38   C     C_3   0.353134 0.119733 0.993276 -0.776489
H12   H     H_    0.386849 0.002433 0.027251 0.225240
H13   H     H_    0.301423 0.061082 0.951713 0.233437
H14   H     H_    0.393715 0.193378 0.950238 0.221581
H15   H     H_    0.297028 0.381683 0.025716 0.191341
H16   H     H_    0.377048 0.304650 0.103945 0.197103
H17   H     H_    0.282202 0.023175 0.136948 0.192713
H18   H     H_    0.204347 0.145479 0.072640 0.173180
H19   H     H_    0.815143 0.674286 0.773378 0.131556
H20   H     H_    0.184058 0.229084 0.225084 0.128056
H21   H     H_    0.639616 0.781033 0.727322 0.174384
H22   H     H_    0.367742 0.224281 0.252945 0.173769
H23   H     H_    0.715305 0.695861 0.652819 0.155375
H24   H     H_    0.292727 0.253742 0.336706 0.153731

loop_
_geom_bond_atom_site_label_1
_geom_bond_atom_site_label_2
_ccdc_geom_bond_type
C33   H11   S    
C18   C20   S    
C35   H6    S    
O4    V2    S    
C19   H23   S    
C15   C17   S    
C38   H12   S    
O1    C3    A    
O2    C4    A    
C2    O7    A    
C36   H17   S    
C18   C36   S    
C21   C32   S    
C11   H3    S    
C30   O17   A    
C22   C31   S    
C34   C35   S    
C34   H8    S    
C7    C9    A    
C12   C14   A    
C19   H21   S    
C37   H16   S    
C14   C29   S    
C5    C7    A    
C16   C18   S    
O10   V2    S    
C22   C24   T    
C12   H4    S    
O5    V1    S    
C35   H7    S    
O6    V2    S    
C38   H13   S    
C1    O8    A    
C36   H18   S    
O14   C30   A    
C20   H22   S    
C17   C33   S    
C3    C8    S    
C5    C15   A    
C6    C16   A    
O4    C2    A    
O15   C31   A    
O17   V3    S    
O18   V4    S    
C18   H20   S    
O5    C3    A    
O11   V4    S    
C17   H19   S    
C37   H15   S    
O12   V3    S    
O14   V4    S    
O6    C4    A    
C20   H24   S    
O1    V2    S    
O2    V1    S    
O13   C29   A    
O13   V3    S    
C8    C10   A    
O9    V1    S    
C5    C19   S    
C38   H14   S    
C10   C12   A    
O9    V2    S    
C6    C20   S    
O3    V1    S    
O15   V3    S    
O19   V4    S    
C33   H10   S    
O16   V4    S    
O20   V3    S    
C23   C25   S    
O10   V1    S    
C37   C38   S    
O3    C1    A    
C10   H2    S    
C13   C15   A    
C9    H1    S    
C14   C16   A    
C34   H9    S    
C9    C11   A    
O7    V1    S    
C36   C37   S    
C25   C27   T    
O8    V2    S    
C26   C28   T    
C29   O18   A    
C4    C7    S    
C24   C26   S    
C21   C23   T    
C6    C8    A    
C11   C13   A    
C33   C34   S    
C35   H5    S    
O16   C32   A    
C17   C19   S    
C1    C28   S    
C2    C27   S    
C13   C30   S    
O11   C31   A    
O12   C32   A    
