data_mof_unit_24779.cif
_audit_creation_date              2013-03-05T16:43:30-0500
_audit_creation_method            fapswitch 2.2
_symmetry_space_group_name_H-M    P1
_symmetry_Int_Tables_number       1
_space_group_crystal_system       triclinic
_cell_length_a                    10.539705
_cell_length_b                    10.653444
_cell_length_c                    9.878511
_cell_angle_alpha                 90.300528
_cell_angle_beta                  90.143676
_cell_angle_gamma                 90.165661
_cell_volume                      1109.17685573

loop_
_atom_site_label
_atom_site_type_symbol
_atom_site_description
_atom_site_fract_x
_atom_site_fract_y
_atom_site_fract_z
_atom_type_partial_charge
O1    O     O_R   0.500020 0.316790 0.614690 -0.610914
O2    O     O_R   0.500000 0.316760 0.385350 -0.588403
C1    C     C_R   0.497398 0.259918 0.499882 0.958848
O3    O     O_R   0.313960 0.499990 0.614650 -0.560113
O4    O     O_R   0.313940 0.499950 0.385310 -0.618340
C2    C     C_R   0.257725 0.500522 0.499673 0.983736
Zn1   Zn    Zn3+2 0.500010 0.500020 0.653130 1.031438
Zn2   Zn    Zn3+2 0.499990 0.499980 0.346870 1.069569
O5    O     O_R   0.500000 0.683240 0.614650 -0.634129
O6    O     O_R   0.499980 0.683210 0.385310 -0.581835
O7    O     O_R   0.686060 0.500050 0.614690 -0.643485
O8    O     O_R   0.686040 0.500010 0.385350 -0.575270
C3    C     C_R   0.491131 0.739595 0.500259 0.949211
C4    C     C_R   0.742262 0.499392 0.500286 1.007030
C5    C     C_3   0.042100 0.393856 0.550484 0.280690
C6    C     C_3   0.959402 0.405076 0.424936 0.188551
C7    C     C_3   0.876550 0.499281 0.500870 -0.263960
C8    C     C_3   0.959520 0.487855 0.629356 -0.227936
C9    C     C_3   0.043090 0.597873 0.576219 -0.190613
C10   C     C_3   0.959197 0.606641 0.449120 0.298214
C11   C     C_3   0.041622 0.512926 0.369546 -0.261593
C12   C     C_3   0.123542 0.501250 0.498548 -0.168445
H1    H     H_    0.924384 0.476153 0.734426 0.223051
H2    H     H_    0.081048 0.678191 0.636027 0.208957
H3    H     H_    0.075437 0.524772 0.264131 0.209044
C13   C     C_R   0.496706 0.063959 0.621652 0.205628
C14   C     C_R   0.478271 0.128305 0.501491 -0.155919
C15   C     C_R   0.428736 0.065811 0.387997 -0.145809
H4    H     H_    0.400880 0.117409 0.298852 0.261057
C16   C     C_R   0.418504 0.935516 0.388635 0.294109
C17   C     C_R   0.465660 0.870699 0.502929 -0.230693
C18   C     C_R   0.491525 0.936396 0.622161 0.127849
C19   C     C_3   0.600335 0.926385 0.719151 -0.432803
C20   C     C_3   0.605847 0.068590 0.718392 -0.409766
H5    H     H_    0.570582 0.887521 0.818396 0.229684
H6    H     H_    0.685301 0.881452 0.673346 0.228173
H7    H     H_    0.579149 0.111724 0.817004 0.243719
H8    H     H_    0.693866 0.106708 0.671927 0.224755
C21   C     C_R   0.441802 0.405330 0.070706 -0.001900
N1    N     N_R   0.499140 0.499140 0.142800 -0.119473
C22   C     C_R   0.567332 0.586742 0.072603 -0.023415
H9    H     H_    0.619761 0.658280 0.127339 0.178566
C23   C     C_R   0.567470 0.586640 0.928703 -0.070151
H10   H     H_    0.620286 0.657836 0.875046 0.143928
N2    N     N_R   0.499140 0.499180 0.857150 -0.108017
C24   C     C_R   0.441739 0.405478 0.928132 -0.025789
C25   C     C_3   0.304690 0.370538 0.923113 1.051993
C26   C     C_3   0.304764 0.370708 0.076647 0.361430
H11   H     H_    0.244421 0.444232 0.123482 0.092725
N3    N     N_R   0.917020 0.297365 0.344867 0.240031
O9    O     O_R   0.999271 0.232685 0.275991 -0.241573
O10   O     O_R   0.799473 0.260237 0.348554 -0.376835
F1    F     F_    0.227972 0.462917 0.869077 -0.668159
F2    F     F_    0.285289 0.253297 0.865601 -0.557527
F3    F     F_    0.286923 0.252296 0.130108 -0.573608
N4    N     N_R   0.090396 0.275969 0.603566 0.255419
O11   O     O_R   0.051311 0.235036 0.720042 -0.270620
O12   O     O_R   0.166726 0.207608 0.531117 -0.334344
N5    N     N_R   0.915102 0.725733 0.394380 0.225312
O13   O     O_R   0.997255 0.808025 0.352554 -0.267086
O14   O     O_R   0.794954 0.752925 0.391966 -0.411927
N6    N     N_R   0.363982 0.871894 0.273574 0.240529
O15   O     O_R   0.282749 0.781269 0.291391 -0.341895
O16   O     O_R   0.379361 0.916855 0.152430 -0.320904

loop_
_geom_bond_atom_site_label_1
_geom_bond_atom_site_label_2
_geom_bond_distance
_ccdc_geom_bond_type
C7    C8    1.545058 S    
O4    Zn2   1.998274 S    
N3    O10   1.300092 A    
C23   H10   1.081377 S    
C13   C18   1.359967 A    
C6    C11   1.540685 S    
C26   F3    1.382664 S    
C20   H7    1.112079 S    
C23   N2    1.368609 A    
C22   H9    1.081809 S    
C5    C8    1.538730 S    
N6    O16   1.301689 A    
C17   C18   1.392881 A    
C25   F1    1.383922 S    
C16   C17   1.416320 A    
Zn2   O8    1.996480 S    
C5    N4    1.456237 S    
C9    C12   1.538616 S    
C9    C10   1.537239 S    
C1    C14   1.416145 S    
C19   C20   1.515981 S    
O8    C4    1.279464 A    
N5    O13   1.300084 A    
C20   H8    1.112711 S    
C11   C12   1.543270 S    
C18   C19   1.496943 S    
C10   N5    1.458582 S    
Zn1   O7    1.998274 S    
C22   C23   1.421513 A    
C4    C7    1.415355 S    
C13   C14   1.387380 A    
N6    O15   1.301496 A    
C21   C24   1.408435 A    
C26   H11   1.110243 S    
Zn1   N2    2.015525 S    
C15   C16   1.392009 A    
C15   H4    1.081005 S    
C19   H5    1.111737 S    
C6    N3    1.458639 S    
C9    H2    1.110321 S    
O2    C1    1.286386 A    
O3    Zn1   1.996479 S    
C16   N6    1.438027 S    
O4    C2    1.276988 A    
O7    C4    1.277283 A    
C13   C20   1.494180 S    
N5    O14   1.300039 A    
O3    C2    1.279873 A    
C6    C7    1.527386 S    
C8    H1    1.110407 S    
C2    C12   1.414311 S    
C25   C26   1.516672 S    
N2    C24   1.363874 A    
C21   N1    1.363117 A    
C19   H6    1.112691 S    
N4    O11   1.300139 A    
Zn2   O6    1.986666 S    
C8    C9    1.558180 S    
C14   C15   1.400020 A    
Zn1   O5    1.990548 S    
C11   H3    1.109200 S    
C24   C25   1.491245 S    
N1    C22   1.368875 A    
O5    C3    1.285701 A    
Zn2   N1    2.015878 S    
N3    O9    1.300285 A    
C10   C11   1.539349 S    
O1    Zn1   1.986666 S    
C7    C10   1.526721 S    
C3    C17   1.423158 S    
C5    C12   1.520432 S    
O2    Zn2   1.990548 S    
C5    C6    1.519506 S    
C25   F2    1.383882 S    
N4    O12   1.300237 A    
C21   C26   1.491042 S    
O1    C1    1.283218 A    
O6    C3    1.285553 A    
