data_mof_unit_54724.cif
_audit_creation_date              2012-12-10T17:36:43-0500
_audit_creation_method            fapswitch 2.2
_symmetry_space_group_name_H-M    P1
_symmetry_Int_Tables_number       1
_space_group_crystal_system       triclinic
_cell_length_a                    11.99629
_cell_length_b                    12.885817
_cell_length_c                    15.762561
_cell_angle_alpha                 90.467872
_cell_angle_beta                  87.832925
_cell_angle_gamma                 94.351561
_cell_volume                      2427.81213404

loop_
_atom_site_label
_atom_site_type_symbol
_atom_type_description
_atom_site_fract_x
_atom_site_fract_y
_atom_site_fract_z
_atom_type_partial_charge
C1    C     C_R   0.523118 0.700775 0.499343 0.950017
C2    C     C_R   0.548238 0.027446 0.521139 -0.047088
C3    C     C_R   0.953020 0.457338 0.392993 0.325975
C4    C     C_R   0.047246 0.549195 0.605876 0.305624
C5    C     C_R   0.837115 0.452992 0.408004 -0.068125
C6    C     C_R   0.163273 0.551534 0.590875 -0.067002
C7    C     C_R   0.857980 0.511095 0.549761 -0.047174
C8    C     C_R   0.141613 0.487694 0.450893 0.005762
C9    C     C_R   0.975881 0.515435 0.539875 -0.113705
C10   C     C_R   0.023980 0.486682 0.460218 -0.097962
C11   C     C_R   0.501791 0.500334 0.661880 0.895029
C12   C     C_R   0.476853 0.299416 0.501645 0.924939
C13   C     C_R   0.498325 0.500094 0.337995 0.873960
C14   C     C_3   0.557498 0.593196 0.028956 -0.361881
C15   C     C_3   0.446986 0.417175 0.970181 -0.388409
C16   C     C_3   0.609021 0.508989 0.972761 0.386495
C17   C     C_3   0.395219 0.501780 0.026040 0.376615
C18   C     C_1   0.506407 0.501874 0.750396 -0.111463
C19   C     C_1   0.494679 0.502036 0.249235 -0.132922
C20   C     C_3   0.455806 0.588034 0.971213 0.409817
C21   C     C_3   0.549158 0.422414 0.027617 0.395384
C22   C     C_3   0.508031 0.504876 0.916129 -0.193325
C23   C     C_R   0.645418 0.974959 0.531888 0.387114
C24   C     C_3   0.496295 0.505384 0.083125 -0.201578
C25   C     C_1   0.509201 0.503378 0.825395 0.181818
C26   C     C_1   0.493486 0.503923 0.174066 0.156860
C27   C     C_R   0.460788 0.187541 0.505298 -0.228854
C28   C     C_R   0.537903 0.813045 0.502828 -0.235651
C29   C     C_3   0.247829 0.168540 0.374309 0.114978
C30   C     C_3   0.317950 0.246895 0.318051 -0.409073
C31   C     C_3   0.301116 0.223207 0.224332 -0.693200
C32   C     C_3   0.807978 0.832708 0.452011 0.125584
C33   C     C_3   0.905377 0.763264 0.455034 -0.365169
C34   C     C_R   0.348594 0.024707 0.491519 0.395681
C35   C     C_3   0.991479 0.786609 0.382686 -0.856112
C36   C     C_3   0.760919 0.027112 0.637671 0.086152
C37   C     C_3   0.864914 0.097399 0.658100 -0.362445
C38   C     C_3   0.886335 0.097865 0.752911 -0.840515
C39   C     C_3   0.170540 0.978661 0.544845 0.086798
C40   C     C_3   0.175066 0.887373 0.605880 -0.406201
C41   C     C_3   0.087036 0.892108 0.677936 -0.809814
C42   C     C_R   0.641929 0.867296 0.517674 0.366860
C43   C     C_R   0.358742 0.133462 0.484975 0.370907
C44   C     C_R   0.441836 0.866104 0.494644 -0.271167
C45   C     C_R   0.552886 0.134430 0.526052 -0.270534
C46   C     C_R   0.445661 0.972511 0.502857 -0.042370
H1    H     H_    0.602213 0.665105 0.053659 0.231232
H2    H     H_    0.095265 0.477006 0.993578 0.405713
H3    H     H_    0.695647 0.184879 0.004324 0.392930
H4    H     H_    0.322275 0.833565 0.985168 0.390002
H5    H     H_    0.157928 0.178541 0.365320 0.202378
H6    H     H_    0.261776 0.087916 0.352595 0.166897
H7    H     H_    0.293442 0.326552 0.332724 0.254985
H8    H     H_    0.408148 0.244003 0.330577 0.214457
H9    H     H_    0.334782 0.147668 0.206798 0.260393
H10   H     H_    0.346261 0.285563 0.185716 0.299971
H11   H     H_    0.211077 0.219685 0.209912 0.297817
H12   H     H_    0.402279 0.345229 0.945533 0.229477
H13   H     H_    0.842676 0.915183 0.449676 0.183669
H14   H     H_    0.761802 0.813800 0.393023 0.135633
H15   H     H_    0.946977 0.774208 0.516649 0.244091
H16   H     H_    0.872053 0.681147 0.449521 0.244260
H17   H     H_    0.952152 0.773476 0.320443 0.288665
H18   H     H_    0.060260 0.734072 0.387160 0.283186
H19   H     H_    0.027434 0.868428 0.386693 0.267024
H20   H     H_    0.773282 0.946297 0.657977 0.196514
H21   H     H_    0.687592 0.055999 0.673824 0.150599
H22   H     H_    0.938838 0.069776 0.622492 0.223909
H23   H     H_    0.630510 0.177157 0.542440 0.229942
H24   H     H_    0.853644 0.178202 0.637650 0.244244
H25   H     H_    0.814882 0.128610 0.789473 0.288126
H26   H     H_    0.963183 0.148423 0.765317 0.280505
H27   H     H_    0.898222 0.017862 0.774795 0.271119
H28   H     H_    0.085511 0.976119 0.518954 0.169980
H29   H     H_    0.182372 0.053932 0.580098 0.159721
H30   H     H_    0.160491 0.812720 0.570693 0.238414
H31   H     H_    0.259212 0.889667 0.633293 0.240273
H32   H     H_    0.098982 0.966900 0.713144 0.254345
H33   H     H_    0.095136 0.827552 0.722840 0.325134
H34   H     H_    0.363009 0.824084 0.480422 0.235943
H35   H     H_    0.001697 0.884372 0.652479 0.267356
H36   H     H_    0.164822 0.518745 0.256602 0.387804
H37   H     H_    0.855819 0.470707 0.737641 0.372663
H38   H     H_    0.181755 0.460971 0.393442 0.164799
H39   H     H_    0.817026 0.535338 0.607694 0.195711
H40   H     H_    0.218845 0.576276 0.640652 0.199321
H41   H     H_    0.782020 0.430801 0.357337 0.201730
H42   H     H_    0.909791 0.556859 0.993728 0.403275
N1    N     N_R   0.207800 0.519340 0.515560 -0.138742
N2    N     N_R   0.792200 0.480660 0.484440 -0.145210
O1    O     O_R   0.421700 0.658830 0.504150 -0.633921
O2    O     O_2   0.771248 0.604264 0.873591 -0.240240
O3    O     O_3   0.833971 0.539876 0.019251 -0.467968
O4    O     O_2   0.220700 0.408528 0.115372 -0.297018
O5    O     O_2   0.229382 0.598945 0.103950 -0.215701
O6    O     O_3   0.173532 0.488082 0.971325 -0.459912
O7    O     O_2   0.715202 0.348297 0.113297 -0.196098
O8    O     O_2   0.533986 0.246592 0.120308 -0.327189
O9    O     O_3   0.654122 0.240553 0.980151 -0.502890
O10   O     O_2   0.485595 0.761067 0.876953 -0.290345
O11   O     O_2   0.299840 0.667006 0.877683 -0.212336
O12   O     O_R   0.578300 0.341170 0.495850 -0.626243
O13   O     O_3   0.356032 0.774842 0.012068 -0.493492
O14   O     O_3   0.268817 0.186930 0.461284 -0.625825
O15   O     O_3   0.737441 0.814506 0.525191 -0.610230
O16   O     O_3   0.745624 0.029922 0.549424 -0.659537
O17   O     O_3   0.247815 0.969013 0.475602 -0.662005
O18   O     O_2   0.070435 0.340597 0.286831 -0.345531
O19   O     O_2   0.910662 0.418046 0.228145 -0.181916
O20   O     O_3   0.087320 0.540126 0.256262 -0.491478
O21   O     O_2   0.090846 0.623610 0.762741 -0.219417
O22   O     O_2   0.913987 0.664140 0.703588 -0.305442
O23   O     O_R   0.609310 0.646410 0.494170 -0.570223
O24   O     O_3   0.934394 0.474770 0.755094 -0.462222
O25   O     O_R   0.390690 0.353590 0.505830 -0.564598
O26   O     O_R   0.406210 0.506220 0.628210 -0.614510
O27   O     O_R   0.593790 0.493780 0.371790 -0.613696
O28   O     O_R   0.593830 0.493800 0.618230 -0.618409
O29   O     O_R   0.406170 0.506200 0.381770 -0.637665
O30   O     O_2   0.777360 0.415974 0.894234 -0.229605
S1    S     S_3+6 0.751594 0.516867 0.936204 0.118315
S2    S     S_3+6 0.251040 0.499481 0.058009 0.103231
S3    S     S_3+6 0.614512 0.311991 0.064154 0.087981
S4    S     S_3+6 0.397872 0.700244 0.930717 0.094417
S5    S     S_3+6 0.004695 0.435263 0.288247 0.054511
S6    S     S_3+6 0.996490 0.582404 0.708859 0.045457
Zn1   Zn    Zn3+2 0.374730 0.508290 0.506660 0.978472
Zn2   Zn    Zn3+2 0.625270 0.491710 0.493340 0.982393

loop_
_geom_bond_atom_site_label_1
_geom_bond_atom_site_label_2
_ccdc_geom_bond_type
C11   C18   S    
C16   C21   S    
C36   H21   S    
O23   Zn2   S    
C2    C46   A    
C39   O17   S    
C30   H8    S    
C37   C38   S    
C23   C42   A    
O1    Zn1   S    
C34   O17   S    
H36   O20   S    
C36   C37   S    
O3    S1    S    
O12   Zn2   S    
C29   H5    S    
C30   C31   S    
O24   S6    S    
C36   H20   S    
C35   H19   S    
C37   H22   S    
C17   C20   S    
O25   Zn1   S    
C22   C25   S    
C15   C17   S    
C39   H28   S    
C14   C24   S    
C19   C26   T    
C43   O14   S    
C38   H25   S    
O28   Zn2   S    
C15   C22   S    
C33   H16   S    
O26   Zn1   S    
C1    C28   S    
C35   H18   S    
C34   C46   A    
C39   H29   S    
C31   H10   S    
C9    C10   A    
O22   S6    D    
C5    N2    A    
C12   O25   A    
C27   C45   A    
H4    O13   S    
C1    O1    A    
C37   H24   S    
H37   O24   S    
C18   C25   T    
C1    O23   A    
O13   S4    S    
C13   O29   A    
C44   C46   A    
C2    C45   A    
O8    S3    D    
C30   H7    S    
C38   H26   S    
C17   C24   S    
C13   C19   S    
C12   C27   S    
C45   H23   S    
O11   S4    D    
C14   C20   S    
C44   H34   S    
C4    C6    A    
C41   H32   S    
C7    N2    A    
C36   O16   S    
C28   C44   A    
C40   H30   S    
C29   O14   S    
O10   S4    D    
O27   Zn2   S    
C21   S3    S    
C16   S1    S    
C12   O12   A    
C29   C30   S    
H3    O9    S    
C41   H35   S    
O21   S6    D    
C11   O26   A    
O4    S2    D    
O5    S2    D    
O19   S5    D    
C40   C41   S    
C20   C22   S    
C32   O15   S    
O18   S5    D    
C15   H12   S    
C14   C16   S    
C32   H14   S    
C39   C40   S    
O30   S1    D    
O9    S3    S    
N1    Zn1   S    
C7    C9    A    
H42   O3    S    
C16   C22   S    
H2    O6    S    
C8    H38   S    
C8    C10   A    
C34   C43   A    
C24   C26   S    
C3    C5    A    
C41   H33   S    
C13   O27   A    
C3    S5    S    
C14   H1    S    
C4    S6    S    
C6    N1    A    
C6    H40   S    
O6    S2    S    
C32   C33   S    
C31   H11   S    
O7    S3    D    
C3    C10   A    
O2    S1    D    
C23   O16   S    
C7    H39   S    
C28   C42   A    
C33   C35   S    
C42   O15   S    
C20   S4    S    
O20   S5    S    
C5    H41   S    
C27   C43   A    
C17   S2    S    
C15   C21   S    
C33   H15   S    
C21   C24   S    
C2    C23   A    
N2    Zn2   S    
C40   H31   S    
C35   H17   S    
C8    N1    A    
C32   H13   S    
C31   H9    S    
C4    C9    A    
C11   O28   A    
C29   H6    S    
C38   H27   S    
O29   Zn1   S    
