data_mof_unit_35879.cif
_audit_creation_date              2012-12-10T18:43:10-0500
_audit_creation_method            fapswitch 2.2
_symmetry_space_group_name_H-M    P1
_symmetry_Int_Tables_number       1
_space_group_crystal_system       triclinic
_cell_length_a                    10.674059
_cell_length_b                    9.850659
_cell_length_c                    10.7394
_cell_angle_alpha                 90.050678
_cell_angle_beta                  89.912264
_cell_angle_gamma                 90.751011
_cell_volume                      1129.1117381

loop_
_atom_site_label
_atom_site_type_symbol
_atom_type_description
_atom_site_fract_x
_atom_site_fract_y
_atom_site_fract_z
_atom_type_partial_charge
C1    C     C_R   0.260201 0.498888 0.499696 1.032334
C2    C     C_R   0.933702 0.417486 0.414348 0.357103
C3    C     C_R   0.872159 0.503683 0.497613 -0.409645
C4    C     C_R   0.127729 0.496398 0.501531 -0.409349
C5    C     C_R   0.936887 0.591500 0.578467 0.359051
C6    C     C_R   0.066082 0.582730 0.584570 0.350306
C7    C     C_R   0.552178 0.072707 0.596204 -0.070510
C8    C     C_R   0.448086 0.071086 0.403684 -0.073836
C9    C     C_R   0.551945 0.928939 0.596298 -0.062626
C10   C     C_R   0.447811 0.927317 0.403805 -0.055956
C11   C     C_3   0.117466 0.190999 0.378369 -0.209576
C12   C     C_R   0.739760 0.501020 0.500061 1.030907
C13   C     C_3   0.855245 0.414506 0.218248 -0.215242
C14   C     C_3   0.882949 0.809984 0.618787 -0.194385
C15   C     C_3   0.139648 0.587288 0.782403 -0.178971
C16   C     C_R   0.505214 0.499800 0.262734 0.789132
C17   C     C_R   0.495801 0.499872 0.737392 0.789586
C18   C     C_2   0.506990 0.388770 0.933457 -0.293602
C19   C     C_2   0.494919 0.388577 0.066615 -0.281160
C20   C     C_2   0.477483 0.499148 0.868322 0.566231
C21   C     C_2   0.526975 0.498666 0.132356 0.560430
C22   C     C_R   0.062996 0.409015 0.420146 0.365137
F1    F     F_    0.422446 0.609232 0.921169 -0.635994
F2    F     F_    0.588483 0.607168 0.081026 -0.625531
H1    H     H_    0.539445 0.296523 0.888916 0.140483
H2    H     H_    0.948339 0.435302 0.174988 0.182361
H3    H     H_    0.799119 0.353571 0.151083 0.184844
H4    H     H_    0.804933 0.511264 0.234349 0.151472
H5    H     H_    0.826890 0.874888 0.681542 0.163685
H6    H     H_    0.981142 0.848611 0.622479 0.186760
H7    H     H_    0.845058 0.821481 0.522902 0.151633
H8    H     H_    0.188531 0.651569 0.852321 0.231910
H9    H     H_    0.045001 0.562449 0.820411 0.168874
H10   H     H_    0.194683 0.492997 0.770159 0.121437
H11   H     H_    0.457903 0.297046 0.110474 0.148213
H12   H     H_    0.594158 0.127603 0.673131 0.129522
H13   H     H_    0.406907 0.124742 0.326436 0.137118
H14   H     H_    0.593187 0.875294 0.673517 0.157274
H15   H     H_    0.405807 0.872433 0.326890 0.148595
H16   H     H_    0.019409 0.152008 0.374397 0.191049
H17   H     H_    0.173772 0.126807 0.315210 0.161904
H18   H     H_    0.155361 0.178915 0.474187 0.152913
N1    N     N_R   0.500000 0.857200 0.500000 -0.084971
N2    N     N_R   0.500000 0.142810 0.500000 -0.075807
O1    O     O_R   0.316770 0.614620 0.499990 -0.586586
O2    O     O_3   0.867171 0.339423 0.329232 -0.586684
O3    O     O_3   0.872894 0.674365 0.660515 -0.578417
O4    O     O_3   0.132373 0.660560 0.669987 -0.582875
O5    O     O_R   0.683230 0.614620 0.500010 -0.609613
O6    O     O_R   0.316800 0.385290 0.500000 -0.609495
O7    O     O_R   0.683200 0.385290 0.500000 -0.585110
O8    O     O_R   0.500000 0.614630 0.319080 -0.595234
O9    O     O_R   0.500000 0.614630 0.680920 -0.563909
O10   O     O_R   0.500030 0.385300 0.319080 -0.648764
O11   O     O_R   0.499970 0.385300 0.680920 -0.680180
O12   O     O_3   0.127062 0.326950 0.337488 -0.585597
Zn1   Zn    Zn3+2 0.500000 0.653120 0.500000 1.013500
Zn2   Zn    Zn3+2 0.500000 0.346880 0.500000 0.965859

loop_
_geom_bond_atom_site_label_1
_geom_bond_atom_site_label_2
_ccdc_geom_bond_type
C2    C22   A    
C22   O12   S    
C13   H4    S    
C12   O5    A    
C14   O3    S    
C4    C22   A    
C1    O6    A    
C17   O11   A    
C15   H10   S    
C20   F1    S    
C14   H7    S    
C1    C4    S    
O1    Zn1   S    
C17   C20   S    
C2    C3    A    
C15   H8    S    
O7    Zn2   S    
C19   H11   S    
C7    N2    A    
C2    O2    S    
C5    O3    S    
C1    O1    A    
C16   C21   S    
C18   H1    S    
C6    O4    S    
C15   O4    S    
C14   H6    S    
C5    C6    A    
C4    C6    A    
C9    H14   S    
C19   C21   D    
C11   H17   S    
C18   C20   D    
O10   Zn2   S    
C11   H16   S    
C16   O10   A    
C13   H2    S    
C9    N1    A    
C8    H13   S    
N1    Zn1   S    
C14   H5    S    
O8    Zn1   S    
O6    Zn2   S    
C17   O9    A    
C12   O7    A    
O5    Zn1   S    
C11   H18   S    
C8    C10   A    
C18   C19   S    
C7    H12   S    
C21   F2    S    
C16   O8    A    
C7    C9    A    
O11   Zn2   S    
C13   O2    S    
C13   H3    S    
O9    Zn1   S    
C3    C12   S    
C10   N1    A    
C15   H9    S    
C11   O12   S    
C8    N2    A    
N2    Zn2   S    
C10   H15   S    
C3    C5    A    
