data_mof_unit_11279.cif
_audit_creation_date              2012-12-10T16:57:47-0500
_audit_creation_method            fapswitch 2.2
_symmetry_space_group_name_H-M    P1
_symmetry_Int_Tables_number       1
_space_group_crystal_system       triclinic
_cell_length_a                    7.724704
_cell_length_b                    8.626352
_cell_length_c                    18.833755
_cell_angle_alpha                 90.622591
_cell_angle_beta                  86.387904
_cell_angle_gamma                 92.85602
_cell_volume                      1250.91992644

loop_
_atom_site_label
_atom_site_type_symbol
_atom_type_description
_atom_site_fract_x
_atom_site_fract_y
_atom_site_fract_z
_atom_type_partial_charge
C1    C     C_R   0.544744 0.794296 0.499555 0.924513
C2    C     C_R   0.670015 0.642075 0.185328 -0.174228
C3    C     C_R   0.546548 0.633311 0.851832 0.047396
C4    C     C_R   0.521148 0.642465 0.147180 0.061219
C5    C     C_R   0.663655 0.529539 0.820751 -0.178548
C6    C     C_R   0.360110 0.592492 0.179595 -0.204035
C7    C     C_R   0.648596 0.476033 0.750966 0.165114
C8    C     C_R   0.345822 0.538941 0.249769 0.167463
C9    C     C_R   0.515028 0.532381 0.711353 -0.072789
C10   C     C_R   0.498539 0.539999 0.288407 -0.055413
C11   C     C_R   0.536610 0.674601 0.071051 0.296182
C12   C     C_R   0.456048 0.205463 0.503174 0.949957
C13   C     C_R   0.549839 0.669828 0.927552 0.292816
C14   C     C_3   0.771096 0.354124 0.723296 -0.434369
C15   C     C_3   0.954107 0.424992 0.706865 -0.785222
C16   C     C_3   0.167552 0.479266 0.279214 -0.399583
C17   C     C_3   0.159997 0.304040 0.290694 -0.861420
C18   C     C_3   0.686011 0.999802 0.422479 -0.386370
C19   C     C_3   0.873492 0.025391 0.443724 -0.793114
C20   C     C_3   0.321848 0.999604 0.585820 -0.408704
C21   C     C_3   0.355244 0.099578 0.651522 -0.904145
C22   C     C_2   0.562331 0.954372 0.486813 -0.072509
C23   C     C_2   0.444176 0.046387 0.520878 -0.070891
C24   C     C_R   0.503476 0.501880 0.635272 0.839930
C25   C     C_R   0.497466 0.504226 0.364564 0.850765
C26   C     C_R   0.398224 0.635973 0.743259 -0.238360
C27   C     C_R   0.658724 0.592043 0.255026 -0.247560
C28   C     C_R   0.413487 0.685592 0.812811 -0.169041
H1    H     H_    0.296436 0.682015 0.713810 0.162241
H2    H     H_    0.951056 0.524163 0.670070 0.257621
H3    H     H_    0.037318 0.336137 0.681501 0.251775
H4    H     H_    0.776097 0.262449 0.764061 0.200499
H5    H     H_    0.725317 0.293291 0.675404 0.219097
H6    H     H_    0.197372 0.243249 0.240166 0.263701
H7    H     H_    0.247520 0.271745 0.331998 0.250144
H8    H     H_    0.025180 0.264733 0.308121 0.244559
H9    H     H_    0.126664 0.541786 0.328680 0.224556
H10   H     H_    0.067329 0.502877 0.241421 0.192801
H11   H     H_    0.883043 0.112656 0.487157 0.268507
H12   H     H_    0.776768 0.597107 0.283246 0.164837
H13   H     H_    0.924000 0.915372 0.461941 0.255850
H14   H     H_    0.957444 0.066561 0.397111 0.225831
H15   H     H_    0.682965 0.905264 0.381793 0.191925
H16   H     H_    0.645278 0.102225 0.393776 0.203825
H17   H     H_    0.494300 0.099235 0.663210 0.251782
H18   H     H_    0.317701 0.219937 0.643699 0.272846
H19   H     H_    0.275670 0.051978 0.698218 0.250364
H20   H     H_    0.185089 0.009817 0.572022 0.217289
H21   H     H_    0.335111 0.879735 0.604131 0.231786
H22   H     H_    0.320742 0.764623 0.836149 0.155387
H23   H     H_    0.795912 0.679463 0.161100 0.151484
H24   H     H_    0.762964 0.484343 0.851854 0.155700
H25   H     H_    0.245789 0.589104 0.148986 0.147881
H26   H     H_    0.014143 0.380781 0.448180 0.197507
H27   H     H_    0.986205 0.621116 0.550890 0.183368
H28   H     H_    0.012167 0.466438 0.756541 0.246160
N1    N     N_R   0.694647 0.648335 0.962560 -0.176722
N2    N     N_R   0.393849 0.703531 0.035985 -0.176812
N3    N     N_R   0.688212 0.651056 0.033134 -0.172022
N4    N     N_R   0.400480 0.701556 0.965395 -0.170758
N5    N     N_2   0.950330 0.457950 0.481240 -0.177592
N6    N     N_2   0.049670 0.542050 0.518760 -0.178738
O1    O     O_R   0.389250 0.738570 0.504600 -0.638410
O2    O     O_R   0.610750 0.261430 0.495400 -0.609682
O3    O     O_R   0.678400 0.711620 0.492580 -0.617001
O4    O     O_R   0.321600 0.288380 0.507420 -0.624025
O5    O     O_R   0.355380 0.513500 0.607880 -0.627059
O6    O     O_R   0.644620 0.486500 0.392120 -0.619548
O7    O     O_R   0.644530 0.486550 0.595850 -0.607450
O8    O     O_R   0.355470 0.513450 0.404150 -0.616401
Zn1   Zn    Zn3+2 0.306930 0.517990 0.508030 0.909191
Zn2   Zn    Zn3+2 0.693070 0.482010 0.491970 0.924654

loop_
_geom_bond_atom_site_label_1
_geom_bond_atom_site_label_2
_ccdc_geom_bond_type
C10   C27   A    
C9    C26   A    
O7    Zn2   S    
C2    C4    A    
C19   H14   S    
C9    C24   S    
C15   H3    S    
C2    C27   A    
C17   H8    S    
C18   H16   S    
O3    Zn2   S    
C5    C7    A    
C27   H12   S    
C1    O3    A    
O4    Zn1   S    
C3    C13   S    
C20   C23   S    
C16   H9    S    
O6    Zn2   S    
C15   H28   S    
C14   H5    S    
C1    C22   S    
C8    C16   S    
C13   N4    A    
C18   C22   S    
C18   H15   S    
C4    C11   S    
C12   C23   S    
C20   H20   S    
C25   O6    A    
C19   H11   S    
C15   H2    S    
C21   H17   S    
C20   H21   S    
C1    O1    A    
N5    Zn2   S    
C4    C6    A    
C3    C28   A    
H26   N5    S    
O1    Zn1   S    
N6    Zn1   S    
C18   C19   S    
O5    Zn1   S    
O2    Zn2   S    
N5    N6    D    
C12   O2    A    
C11   N3    A    
N1    N3    A    
C13   N1    A    
C17   H6    S    
C6    H25   S    
N2    N4    A    
C11   N2    A    
H27   N6    S    
C3    C5    A    
O8    Zn1   S    
C20   C21   S    
C10   C25   S    
C26   H1    S    
C8    C10   A    
C21   H18   S    
C2    H23   S    
C14   H4    S    
C12   O4    A    
C7    C9    A    
C28   H22   S    
C22   C23   D    
C16   C17   S    
C6    C8    A    
C25   O8    A    
C17   H7    S    
C5    H24   S    
C21   H19   S    
C14   C15   S    
C26   C28   A    
C7    C14   S    
C19   H13   S    
C16   H10   S    
C24   O7    A    
C24   O5    A    
