data_mof_unit_25780.cif
_audit_creation_date              2012-12-10T20:37:27-0500
_audit_creation_method            fapswitch 2.2
_symmetry_space_group_name_H-M    P1
_symmetry_Int_Tables_number       1
_space_group_crystal_system       triclinic
_cell_length_a                    15.715741
_cell_length_b                    10.685609
_cell_length_c                    9.875503
_cell_angle_alpha                 90.221063
_cell_angle_beta                  90.719197
_cell_angle_gamma                 90.362445
_cell_volume                      1658.23888445

loop_
_atom_site_label
_atom_site_type_symbol
_atom_type_description
_atom_site_fract_x
_atom_site_fract_y
_atom_site_fract_z
_atom_type_partial_charge
C1    C     C_R   0.498987 0.260051 0.499946 0.940620
C2    C     C_3   0.083040 0.496392 0.498741 -0.045519
C3    C     C_3   0.973439 0.611516 0.541000 -0.250626
C4    C     C_3   0.916876 0.498559 0.502333 -0.091090
C5    C     C_3   0.027924 0.585684 0.413725 -0.258017
C6    C     C_3   0.970357 0.472953 0.377324 0.376673
C7    C     C_1   0.173832 0.496872 0.497535 0.086303
C8    C     C_1   0.826075 0.499731 0.503041 0.142685
C9    C     C_R   0.504016 0.062928 0.619430 -0.001613
C10   C     C_R   0.487582 0.128586 0.501187 -0.083404
C11   C     C_R   0.450086 0.067144 0.389812 -0.283589
C12   C     C_R   0.337962 0.499487 0.499234 0.895914
C13   C     C_R   0.443104 0.937086 0.389299 0.386840
C14   C     C_R   0.477633 0.870995 0.501625 -0.174523
C15   C     C_R   0.497499 0.936195 0.620350 -0.006059
C16   C     C_3   0.568676 0.922434 0.720845 -0.400045
C17   C     C_3   0.576676 0.064304 0.719616 0.279257
C18   C     C_R   0.443094 0.427591 0.069717 0.172824
C19   C     C_R   0.561074 0.561643 0.074351 -0.050667
C20   C     C_R   0.561161 0.562318 0.930955 0.424620
C21   C     C_R   0.443081 0.427565 0.927221 0.115022
C22   C     C_3   0.348489 0.437096 0.920089 -0.416413
C23   C     C_R   0.493599 0.739590 0.499836 0.923078
C24   C     C_3   0.348583 0.436889 0.073772 -0.424335
C25   C     C_R   0.662013 0.500742 0.500750 0.940090
C26   C     C_3   0.972620 0.410312 0.586220 0.366912
C27   C     C_3   0.026858 0.383024 0.460001 -0.322624
C28   C     C_1   0.249103 0.498030 0.497693 -0.123103
C29   C     C_1   0.750837 0.500431 0.502407 -0.041104
C30   C     C_3   0.030051 0.522073 0.624646 0.430386
H1    H     H_    0.049976 0.290191 0.426211 0.215880
H2    H     H_    0.623750 0.871683 0.677816 0.261565
H3    H     H_    0.559963 0.108707 0.817668 0.100559
H4    H     H_    0.608957 0.614039 0.130672 0.190984
H5    H     H_    0.326600 0.527126 0.876035 0.243929
H6    H     H_    0.318515 0.352012 0.874700 0.219494
H7    H     H_    0.326760 0.526740 0.118202 0.260423
H8    H     H_    0.318832 0.351578 0.117132 0.210625
H9    H     H_    0.052249 0.656495 0.341655 0.207397
H10   H     H_    0.950093 0.704173 0.574949 0.223817
H11   H     H_    0.428648 0.119853 0.302444 0.195373
H12   H     H_    0.545768 0.885930 0.819223 0.209636
N1    N     N_R   0.499430 0.499140 0.142800 -0.119942
N2    N     N_R   0.499430 0.499180 0.857150 -0.142475
O1    O     O_R   0.500010 0.316790 0.614690 -0.616224
O2    O     O_R   0.500000 0.316760 0.385350 -0.627500
O3    O     O_R   0.376780 0.500010 0.614650 -0.630348
O4    O     O_R   0.376770 0.499970 0.385310 -0.598560
O5    O     O_R   0.500000 0.683240 0.614650 -0.599868
O6    O     O_R   0.499990 0.683210 0.385310 -0.553198
O7    O     O_R   0.623230 0.500030 0.614690 -0.528943
O8    O     O_R   0.623220 0.499990 0.385350 -0.627493
Zn1   Zn    Zn3+2 0.500010 0.500020 0.653130 1.038781
Zn2   Zn    Zn3+2 0.499990 0.499980 0.346870 1.034420
S1    S     S_3+6 0.676686 0.116244 0.653483 0.064935
O9    O     O_2   0.685407 0.254820 0.675376 -0.273028
O10   O     O_2   0.747864 0.051280 0.727377 -0.193449
O11   O     O_3   0.682213 0.083276 0.487137 -0.558465
H13   H     H_    0.733700 0.128019 0.455860 0.401359
Cl1   Cl    Cl    0.640725 0.649967 0.852052 -0.548449
Cl2   Cl    Cl    0.933807 0.295333 0.700532 -0.373790
S2    S     S_3+6 0.929156 0.440342 0.211894 0.110517
O12   O     O_2   0.872255 0.327011 0.217278 -0.215442
O13   O     O_2   0.878766 0.550164 0.161530 -0.236309
O14   O     O_3   0.009791 0.412039 0.106060 -0.435154
H14   H     H_    0.046965 0.487047 0.113144 0.367332
Cl3   Cl    Cl    0.072162 0.554410 0.789544 -0.490391
S3    S     S_3+6 0.392105 0.864661 0.247811 0.046061
O15   O     O_2   0.338021 0.756949 0.294034 -0.273257
O16   O     O_2   0.336218 0.956780 0.174803 -0.283262
O17   O     O_3   0.465654 0.811599 0.140017 -0.535257
H15   H     H_    0.499323 0.886488 0.114939 0.349224

loop_
_geom_bond_atom_site_label_1
_geom_bond_atom_site_label_2
_ccdc_geom_bond_type
S1    O9    D    
C18   C21   A    
C19   C20   A    
C12   O4    A    
O4    Zn2   S    
C22   H5    S    
C26   C27   S    
O6    Zn2   S    
C12   C28   S    
C18   C24   S    
C8    C29   T    
C26   Cl2   S    
C5    C6    S    
C1    O2    A    
C23   O5    A    
C15   C16   S    
S2    O13   D    
N2    Zn1   S    
C2    C7    S    
C19   N1    A    
C16   C17   S    
C24   H8    S    
C2    C27   S    
C20   Cl1   S    
C9    C10   A    
C17   S1    S    
C30   Cl3   S    
C4    C8    S    
O3    Zn1   S    
O1    Zn1   S    
C21   C22   S    
C17   H3    S    
C12   O3    A    
C20   N2    A    
O8    Zn2   S    
C25   C29   S    
C27   H1    S    
C4    C6    S    
S3    O15   D    
C23   O6    A    
O11   H13   S    
C7    C28   T    
O7    Zn1   S    
C14   C23   S    
C3    C30   S    
C25   O7    A    
S2    O12   D    
C21   N2    A    
N1    Zn2   S    
C6    C27   S    
O2    Zn2   S    
C24   H7    S    
C9    C17   S    
C3    H10   S    
C26   C30   S    
C5    H9    S    
C22   C24   S    
C2    C5    S    
C3    C4    S    
C16   H12   S    
S2    O14   S    
C1    C10   S    
C3    C5    S    
C19   H4    S    
C4    C26   S    
C16   H2    S    
C22   H6    S    
C2    C30   S    
C6    S2    S    
S1    O10   D    
C9    C15   A    
C25   O8    A    
O17   H15   S    
C18   N1    A    
C11   C13   A    
C1    O1    A    
S3    O17   S    
O5    Zn1   S    
C11   H11   S    
C10   C11   A    
S3    O16   D    
O14   H14   S    
S1    O11   S    
C14   C15   A    
C13   C14   A    
C13   S3    S    
