data_mof_unit_33984.cif
_audit_creation_date              2012-12-10T17:18:53-0500
_audit_creation_method            fapswitch 2.2
_symmetry_space_group_name_H-M    P1
_symmetry_Int_Tables_number       1
_space_group_crystal_system       triclinic
_cell_length_a                    9.605129
_cell_length_b                    10.912335
_cell_length_c                    13.404841
_cell_angle_alpha                 91.17456
_cell_angle_beta                  72.47963
_cell_angle_gamma                 88.545415
_cell_volume                      1338.82582668

loop_
_atom_site_label
_atom_site_type_symbol
_atom_type_description
_atom_site_fract_x
_atom_site_fract_y
_atom_site_fract_z
_atom_type_partial_charge
C1    C     C_R   0.494838 0.737138 0.507683 0.814789
C2    C     C_R   0.420746 0.495665 0.985169 0.030186
C3    C     C_R   0.446683 0.451278 0.880163 -0.088760
C4    C     C_R   0.524632 0.462269 0.037754 0.059373
C5    C     C_R   0.632374 0.368277 0.993815 0.078978
C6    C     C_R   0.629349 0.302797 0.903635 0.188659
C7    C     C_R   0.538744 0.344986 0.845654 -0.148533
C8    C     C_R   0.528435 0.521342 0.131195 -0.164072
C9    C     C_R   0.730434 0.390772 0.140030 -0.163620
C10   C     C_R   0.371656 0.509750 0.816072 -0.091071
C11   C     C_R   0.223874 0.882030 0.621745 -0.156837
C12   C     C_R   0.421267 0.499614 0.700442 0.789465
C13   C     C_R   0.094125 0.949726 0.663718 -0.101905
C14   C     C_R   0.093816 0.076303 0.659803 -0.070482
C15   C     C_R   0.223333 0.135878 0.616393 -0.098394
C16   C     C_R   0.356621 0.069625 0.566815 0.090618
C17   C     C_R   0.355034 0.939302 0.568148 0.103082
C18   C     C_R   0.486541 0.870733 0.520722 -0.165531
C19   C     C_R   0.618090 0.929969 0.488436 -0.214807
C20   C     C_R   0.623362 0.055417 0.493991 0.293099
C21   C     C_R   0.492666 0.128377 0.522592 -0.116147
C22   C     C_R   0.923012 0.353287 0.351327 -0.101311
C23   C     C_R   0.498298 0.262353 0.506916 0.847230
C24   C     C_R   0.027797 0.284244 0.275514 -0.191808
C25   C     C_R   0.171757 0.279643 0.276324 -0.004639
C26   C     C_R   0.208416 0.346148 0.354435 -0.157903
C27   C     C_R   0.106987 0.425729 0.427751 0.215295
C28   C     C_R   0.958193 0.427600 0.426881 0.253528
C29   C     C_R   0.894743 0.568978 0.569772 -0.020823
C30   C     C_R   0.042516 0.568875 0.569757 -0.042570
C31   C     C_R   0.578142 0.500159 0.299959 0.807299
C32   C     C_R   0.737958 0.337806 0.043667 -0.129147
C33   C     C_R   0.620705 0.477910 0.186708 -0.043297
C34   C     C_R   0.254157 0.591306 0.862087 -0.228112
C35   C     C_R   0.210534 0.615824 0.968905 -0.118375
C36   C     C_R   0.290399 0.568646 0.031499 0.255769
Cu1   Cu    Cu3+1 0.359340 0.500010 0.500010 0.956803
Cu2   Cu    Cu3+1 0.640660 0.499990 0.499990 0.995103
H1    H     H_    0.804483 0.357528 0.180627 0.141341
H2    H     H_    0.219950 0.785590 0.636729 0.140216
H3    H     H_    0.994456 0.903986 0.702707 0.161024
H4    H     H_    0.994010 0.129472 0.694789 0.205575
H5    H     H_    0.215345 0.233647 0.629571 0.186974
H6    H     H_    0.814076 0.625678 0.627004 0.141402
H7    H     H_    0.814228 0.337867 0.352188 0.203056
H8    H     H_    0.994145 0.229363 0.219096 0.184847
H9    H     H_    0.317283 0.331155 0.354821 0.227157
H10   H     H_    0.071335 0.624474 0.627624 0.115076
H11   H     H_    0.824232 0.269679 0.010944 0.187546
H12   H     H_    0.460597 0.601088 0.163343 0.190135
H13   H     H_    0.194342 0.635576 0.815165 0.151900
H14   H     H_    0.112681 0.672185 0.003481 0.182262
H15   H     H_    0.720436 0.877733 0.459057 0.206451
N1    N     N_R   0.852480 0.498790 0.499000 -0.195840
N2    N     N_R   0.148360 0.498710 0.498970 -0.197892
O1    O     O_R   0.381190 0.680360 0.500010 -0.577886
O2    O     O_R   0.618760 0.680340 0.500000 -0.578500
O3    O     O_R   0.323240 0.499990 0.650990 -0.594220
O4    O     O_R   0.560820 0.499960 0.650980 -0.572489
O5    O     O_R   0.381240 0.319660 0.500000 -0.635593
O6    O     O_R   0.618810 0.319640 0.499990 -0.536573
O7    O     O_R   0.439180 0.500040 0.349020 -0.570812
O8    O     O_R   0.676760 0.500010 0.349010 -0.599858
Br1   Br    Br    0.817827 0.111554 0.468398 -0.497742
C37   C     C_2   0.284166 0.204024 0.196601 0.878271
O9    O     O_2   0.251487 0.148298 0.127173 -0.569950
O10   O     O_R   0.428278 0.196984 0.200054 -0.783230
H16   H     H_    0.494541 0.143665 0.141080 0.357019
Br2   Br    Br    0.733021 0.145283 0.868591 -0.530028
Br3   Br    Br    0.188925 0.585418 0.179040 -0.557678
C38   C     C_2   0.522269 0.264288 0.760316 0.932590
O11   O     O_2   0.630197 0.229146 0.690104 -0.488106
O12   O     O_R   0.385159 0.224250 0.760818 -0.775736
H17   H     H_    0.303862 0.253190 0.825295 0.308159

loop_
_geom_bond_atom_site_label_1
_geom_bond_atom_site_label_2
_ccdc_geom_bond_type
C6    Br2   S    
C16   C21   A    
O12   H17   S    
C35   C36   A    
C4    C8    A    
C13   H3    S    
Cu1   O7    S    
C1    C18   S    
Cu1   Cu2   S    
C30   H10   S    
C1    O1    A    
C18   C19   A    
C3    C7    A    
C7    C38   S    
C5    C6    A    
C27   N2    A    
C29   N1    A    
C15   C16   A    
C9    H1    S    
C34   C35   A    
C9    C32   A    
Cu1   O1    S    
C19   C20   A    
C16   C17   A    
C37   O10   S    
C31   C33   S    
Cu1   O3    S    
C14   H4    S    
Cu2   O6    S    
C12   O3    A    
C19   H15   S    
C22   C28   A    
C13   C14   A    
C9    C33   A    
C12   O4    A    
C31   O7    A    
C36   Br3   S    
C23   O5    A    
O10   H16   S    
C31   O8    A    
C25   C37   S    
C24   C25   A    
C38   O12   S    
C28   N1    A    
C25   C26   A    
C20   Br1   S    
C2    C4    A    
C29   C30   A    
C1    O2    A    
Cu2   O2    S    
Cu2   N1    S    
C17   C18   A    
C34   H13   S    
C10   C34   A    
C10   C12   S    
C26   H9    S    
C21   C23   S    
C29   H6    S    
C26   C27   A    
C22   C24   A    
C8    H12   S    
C35   H14   S    
Cu2   O8    S    
C2    C36   A    
C11   C17   A    
C4    C5    A    
C6    C7    A    
C30   N2    A    
C24   H8    S    
C5    C32   A    
C2    C3    A    
C15   H5    S    
C38   O11   D    
C3    C10   A    
C11   C13   A    
C8    C33   A    
C11   H2    S    
C32   H11   S    
Cu1   O5    S    
Cu2   O4    S    
Cu1   N2    S    
C23   O6    A    
C22   H7    S    
C20   C21   A    
C37   O9    D    
C27   C28   A    
C14   C15   A    
