data_mof_unit_34859.cif
_audit_creation_date              2012-12-10T18:54:56-0500
_audit_creation_method            fapswitch 2.2
_symmetry_space_group_name_H-M    P1
_symmetry_Int_Tables_number       1
_space_group_crystal_system       triclinic
_cell_length_a                    19.520683
_cell_length_b                    18.27952
_cell_length_c                    15.948852
_cell_angle_alpha                 89.87672
_cell_angle_beta                  90.614035
_cell_angle_gamma                 90.173099
_cell_volume                      5690.64280821

loop_
_atom_site_label
_atom_site_type_symbol
_atom_type_description
_atom_site_fract_x
_atom_site_fract_y
_atom_site_fract_z
_atom_type_partial_charge
C1    C     C_R   0.367910 0.499846 0.499248 0.860916
C2    C     C_R   0.632166 0.500132 0.500466 0.871587
C3    C     C_R   0.707661 0.500095 0.501323 -0.344927
C4    C     C_R   0.292474 0.499176 0.497859 -0.324507
C5    C     C_R   0.961386 0.552581 0.483287 0.274678
C6    C     C_R   0.036119 0.423007 0.503644 0.290107
C7    C     C_R   0.033288 0.554674 0.478201 0.293946
C8    C     C_R   0.965204 0.419923 0.482855 0.282453
C9    C     C_R   0.071398 0.490629 0.495198 -0.113014
C10   C     C_R   0.926703 0.484859 0.481897 -0.102339
C11   C     C_R   0.462451 0.722076 0.441135 0.419280
C12   C     C_R   0.532803 0.277967 0.438094 0.405214
C13   C     C_R   0.537920 0.721902 0.558728 0.430300
C14   C     C_R   0.467247 0.277436 0.561812 0.409297
C15   C     C_R   0.464014 0.799523 0.438086 0.296848
C16   C     C_R   0.526405 0.201155 0.432083 0.309251
C17   C     C_R   0.536507 0.799277 0.561973 0.295422
C18   C     C_R   0.473652 0.200634 0.567693 0.312502
C19   C     C_R   0.500300 0.838766 0.500044 -0.030912
C20   C     C_R   0.500037 0.160601 0.499857 -0.102654
C21   C     C_R   0.557607 0.960683 0.471861 0.245326
C22   C     C_R   0.440128 0.037043 0.519498 0.323446
C23   C     C_R   0.442566 0.960098 0.527404 0.251360
C24   C     C_R   0.560006 0.037589 0.479883 0.325682
C25   C     C_R   0.500068 0.077540 0.499794 -0.126961
C26   C     C_R   0.500229 0.920970 0.499958 -0.058661
C27   C     C_R   0.500184 0.499991 0.341331 0.766857
C28   C     C_R   0.499450 0.499929 0.658627 0.763648
C29   C     C_R   0.485726 0.564843 0.955782 0.312349
C30   C     C_R   0.503327 0.432425 0.043824 0.323753
C31   C     C_R   0.487097 0.564867 0.043622 0.279376
C32   C     C_R   0.501751 0.432412 0.955931 0.302309
C33   C     C_R   0.493350 0.498692 0.912284 -0.213672
C34   C     C_R   0.496441 0.498724 0.087331 -0.208718
C35   C     C_1   0.494595 0.499151 0.822529 0.138663
C36   C     C_1   0.498595 0.498982 0.177150 0.130716
C37   C     C_1   0.499826 0.499710 0.252243 -0.103650
C38   C     C_1   0.496793 0.499620 0.747546 -0.104388
C39   C     C_R   0.744859 0.456606 0.560160 0.298576
C40   C     C_R   0.255653 0.535904 0.561347 0.302520
C41   C     C_R   0.257058 0.461659 0.432659 0.300075
C42   C     C_R   0.742463 0.538716 0.438251 0.261278
C43   C     C_R   0.815870 0.445460 0.548278 0.380742
C44   C     C_R   0.183390 0.540837 0.554111 0.358013
C45   C     C_R   0.185600 0.451594 0.439145 0.393748
C46   C     C_R   0.812760 0.527360 0.426909 0.398011
C47   C     C_R   0.850236 0.483359 0.483585 -0.091667
C48   C     C_R   0.148213 0.493599 0.497450 -0.080862
Cu1   Cu    Cu3+1 0.500000 0.573360 0.500000 1.064745
Cu2   Cu    Cu3+1 0.500000 0.426640 0.500000 1.059430
N1    N     N_R   0.500000 0.683620 0.500000 -0.273385
N2    N     N_R   0.500000 0.316380 0.500000 -0.291474
O1    O     O_R   0.400190 0.561980 0.499990 -0.529135
O2    O     O_R   0.599810 0.438020 0.500010 -0.528035
O3    O     O_R   0.599810 0.561980 0.500010 -0.530039
O4    O     O_R   0.400190 0.438020 0.499990 -0.528678
O5    O     O_R   0.499980 0.561940 0.380310 -0.537435
O6    O     O_R   0.500020 0.438060 0.619690 -0.544945
O7    O     O_R   0.500020 0.561940 0.619690 -0.522552
O8    O     O_R   0.499980 0.438060 0.380310 -0.534753
Cl1   Cl    Cl    0.477100 0.647935 0.098842 -0.517562
Cl2   Cl    Cl    0.510823 0.349358 0.900457 -0.551559
Cl3   Cl    Cl    0.474969 0.647891 0.900162 -0.486367
Cl4   Cl    Cl    0.514103 0.349328 0.099414 -0.527949
O9    O     O_3   0.712568 0.420037 0.625585 -0.570962
C49   C     C_3   0.677291 0.468850 0.679695 0.077027
H1    H     H_    0.627772 0.442730 0.695391 0.184809
H2    H     H_    0.665777 0.523387 0.652155 0.147911
C50   C     C_3   0.717070 0.481740 0.761537 -0.427772
H3    H     H_    0.728428 0.428590 0.792452 0.237610
H4    H     H_    0.765468 0.510708 0.747267 0.221615
C51   C     C_3   0.676933 0.528640 0.822719 -0.809815
H5    H     H_    0.659044 0.579889 0.792125 0.287872
H6    H     H_    0.710261 0.543170 0.877060 0.251269
H7    H     H_    0.632473 0.497382 0.846415 0.267540
O10   O     O_3   0.289579 0.575483 0.623590 -0.579954
C52   C     C_3   0.324379 0.528952 0.681806 0.086403
H8    H     H_    0.358262 0.564348 0.720820 0.196163
H9    H     H_    0.358237 0.488899 0.651514 0.144117
C53   C     C_3   0.276306 0.487089 0.740537 -0.450033
H10   H     H_    0.244415 0.525951 0.775834 0.229201
H11   H     H_    0.243080 0.449688 0.703256 0.217309
C54   C     C_3   0.316494 0.441708 0.804591 -0.768711
H12   H     H_    0.351125 0.402884 0.772708 0.304890
H13   H     H_    0.280313 0.409966 0.843844 0.255478
H14   H     H_    0.347201 0.478078 0.846206 0.252159
O11   O     O_3   0.291775 0.426840 0.368237 -0.576739
C55   C     C_3   0.326638 0.477660 0.315575 0.074059
H15   H     H_    0.370368 0.448172 0.287774 0.178268
H16   H     H_    0.348095 0.525672 0.348994 0.159549
C56   C     C_3   0.281524 0.505915 0.243375 -0.466852
H17   H     H_    0.266294 0.459800 0.202017 0.227591
H18   H     H_    0.235753 0.532680 0.269533 0.224446
C57   C     C_3   0.318723 0.561980 0.189362 -0.758291
H19   H     H_    0.337009 0.608720 0.227856 0.304108
H20   H     H_    0.362650 0.536022 0.157851 0.265746
H21   H     H_    0.283110 0.583156 0.140343 0.251549
O12   O     O_3   0.710689 0.595724 0.395879 -0.548280
C58   C     C_3   0.679951 0.571265 0.320389 0.101187
H22   H     H_    0.624926 0.561661 0.331231 0.155288
H23   H     H_    0.701430 0.519184 0.296205 0.105027
C59   C     C_3   0.686933 0.631761 0.254490 -0.311154
H24   H     H_    0.654724 0.679109 0.272564 0.255478
H25   H     H_    0.740959 0.650827 0.252181 0.238359
C60   C     C_3   0.665155 0.605621 0.167484 -0.852854
H26   H     H_    0.697133 0.558763 0.147619 0.239225
H27   H     H_    0.671326 0.650789 0.121518 0.280029
H28   H     H_    0.610714 0.588812 0.167759 0.287606
O13   O     O_3   0.850290 0.388761 0.588708 -0.536008
C61   C     C_3   0.863156 0.401674 0.674771 0.121524
H29   H     H_    0.896212 0.356295 0.697461 0.159337
H30   H     H_    0.815872 0.396428 0.711027 0.176618
C62   C     C_3   0.901240 0.473658 0.692985 -0.458458
H31   H     H_    0.948955 0.475688 0.656128 0.207112
H32   H     H_    0.868864 0.520779 0.674626 0.209160
C63   C     C_3   0.919201 0.480538 0.785900 -0.913058
H33   H     H_    0.872459 0.475597 0.824586 0.258425
H34   H     H_    0.942691 0.534915 0.797815 0.266013
H35   H     H_    0.956129 0.437286 0.804799 0.265695
O14   O     O_3   0.148558 0.601739 0.584054 -0.537702
C64   C     C_3   0.145358 0.607400 0.672170 0.144314
H36   H     H_    0.118189 0.659336 0.685535 0.171203
H37   H     H_    0.196180 0.614417 0.701780 0.185343
C65   C     C_3   0.103921 0.545443 0.711707 -0.456454
H38   H     H_    0.053648 0.540832 0.679018 0.222886
H39   H     H_    0.131968 0.493486 0.704514 0.206569
C66   C     C_3   0.092222 0.558964 0.804858 -0.895030
H40   H     H_    0.141566 0.568556 0.838322 0.257706
H41   H     H_    0.067176 0.510359 0.833075 0.265066
H42   H     H_    0.058668 0.607288 0.813379 0.258140
O15   O     O_3   0.152812 0.393469 0.399068 -0.535201
C67   C     C_3   0.144378 0.403175 0.311727 0.115748
H43   H     H_    0.115753 0.354635 0.288209 0.157145
H44   H     H_    0.193721 0.400817 0.279556 0.184559
C68   C     C_3   0.102284 0.471051 0.287899 -0.451024
H45   H     H_    0.050930 0.466414 0.316008 0.205455
H46   H     H_    0.126773 0.521241 0.312831 0.212184
C69   C     C_3   0.094818 0.478623 0.192975 -0.909389
H47   H     H_    0.145249 0.490044 0.164275 0.261221
H48   H     H_    0.059869 0.524688 0.177810 0.260653
H49   H     H_    0.073576 0.427555 0.165442 0.255055
O16   O     O_3   0.845513 0.560254 0.359966 -0.543437
C70   C     C_3   0.838753 0.515513 0.287703 0.066534
H50   H     H_    0.812612 0.547777 0.237952 0.166410
H51   H     H_    0.808373 0.464208 0.297237 0.111909
C71   C     C_3   0.909050 0.494181 0.255560 -0.355121
H52   H     H_    0.940448 0.544084 0.245053 0.225409
H53   H     H_    0.934674 0.459583 0.303334 0.207555
C72   C     C_3   0.902585 0.451320 0.173735 -0.905511
H54   H     H_    0.870724 0.401554 0.182836 0.264756
H55   H     H_    0.953863 0.434037 0.152609 0.259084
H56   H     H_    0.878898 0.485918 0.124044 0.259251
O17   O     O_3   0.924652 0.617178 0.485641 -0.560292
C73   C     C_3   0.927941 0.647591 0.567165 0.092005
H57   H     H_    0.959788 0.698035 0.564910 0.178897
H58   H     H_    0.951259 0.610820 0.615641 0.114094
C74   C     C_3   0.855441 0.667675 0.594282 -0.321909
H59   H     H_    0.834483 0.710487 0.551659 0.247621
H60   H     H_    0.821690 0.618779 0.589531 0.210744
C75   C     C_3   0.854569 0.695673 0.684325 -0.929088
H61   H     H_    0.875465 0.653736 0.728044 0.259177
H62   H     H_    0.801023 0.707632 0.702521 0.277898
H63   H     H_    0.885498 0.746561 0.689930 0.263988
O18   O     O_3   0.073350 0.359813 0.520592 -0.550952
C76   C     C_3   0.047655 0.320749 0.590457 0.099434
H64   H     H_    0.065862 0.263467 0.584913 0.183818
H65   H     H_    0.990914 0.317671 0.592553 0.181324
C77   C     C_3   0.075291 0.352707 0.672598 -0.413022
H66   H     H_    0.131523 0.361363 0.668107 0.244144
H67   H     H_    0.049946 0.405813 0.683534 0.208093
C78   C     C_3   0.060431 0.302686 0.746916 -0.867537
H68   H     H_    0.004419 0.293439 0.752629 0.246982
H69   H     H_    0.079683 0.328650 0.805509 0.258511
H70   H     H_    0.086530 0.249265 0.739093 0.273836
O19   O     O_3   0.066986 0.619863 0.461245 -0.545198
C79   C     C_3   0.048602 0.646756 0.380886 0.116544
H71   H     H_    0.006065 0.686594 0.387028 0.196016
H72   H     H_    0.031882 0.602826 0.336676 0.116851
C80   C     C_3   0.110470 0.686127 0.343702 -0.346854
H73   H     H_    0.123975 0.734047 0.383419 0.238945
H74   H     H_    0.155145 0.648567 0.343253 0.223552
C81   C     C_3   0.095770 0.712054 0.254341 -0.905435
H75   H     H_    0.083629 0.664685 0.213218 0.258019
H76   H     H_    0.141597 0.740419 0.229335 0.267189
H77   H     H_    0.051999 0.750741 0.253408 0.265549
O20   O     O_3   0.932126 0.354242 0.465724 -0.559106
C82   C     C_3   0.962254 0.318521 0.396689 0.100790
H78   H     H_    0.996088 0.274101 0.420384 0.183109
H79   H     H_    0.993366 0.355495 0.356348 0.125583
C83   C     C_3   0.905430 0.285023 0.342428 -0.323200
H80   H     H_    0.876795 0.243831 0.379712 0.254563
H81   H     H_    0.869109 0.328636 0.322620 0.228031
C84   C     C_3   0.934387 0.248422 0.264612 -0.896032
H82   H     H_    0.961957 0.289142 0.225544 0.252345
H83   H     H_    0.891860 0.224611 0.226683 0.275261
H84   H     H_    0.970183 0.203914 0.282970 0.264649
Cl5   Cl    Cl    0.409793 0.676826 0.367580 -0.606735
Cl6   Cl    Cl    0.587289 0.321078 0.365763 -0.501153
Cl7   Cl    Cl    0.591561 0.676666 0.631448 -0.593343
Cl8   Cl    Cl    0.412851 0.319901 0.634077 -0.535744
O21   O     O_3   0.437647 0.836067 0.368623 -0.558710
C85   C     C_3   0.366378 0.847557 0.376847 0.137002
H85   H     H_    0.358032 0.903815 0.400495 0.185397
H86   H     H_    0.340992 0.808072 0.420229 0.179806
C86   C     C_3   0.332140 0.841980 0.290403 -0.297470
H87   H     H_    0.354538 0.883805 0.247958 0.233506
H88   H     H_    0.341786 0.787104 0.263243 0.272851
C87   C     C_3   0.254965 0.853925 0.295543 -0.896560
H89   H     H_    0.231307 0.811509 0.336042 0.265736
H90   H     H_    0.231775 0.850096 0.231829 0.261780
H91   H     H_    0.243942 0.908941 0.321493 0.273567
O22   O     O_3   0.549807 0.165941 0.361384 -0.510982
C88   C     C_3   0.494661 0.158669 0.304045 0.087924
H92   H     H_    0.474874 0.213528 0.285147 0.176176
H93   H     H_    0.452325 0.125913 0.332007 0.140454
C89   C     C_3   0.519819 0.119204 0.225945 -0.267803
H94   H     H_    0.562514 0.150918 0.197799 0.263764
H95   H     H_    0.539360 0.064236 0.243962 0.245230
C90   C     C_3   0.462527 0.110419 0.160864 -0.848902
H96   H     H_    0.419735 0.077745 0.187205 0.252618
H97   H     H_    0.482491 0.081620 0.105016 0.267224
H98   H     H_    0.443063 0.164856 0.140881 0.285806
O23   O     O_3   0.563355 0.835171 0.631533 -0.555187
C91   C     C_3   0.633693 0.850898 0.620431 0.138598
H99   H     H_    0.638756 0.908298 0.598662 0.187014
H100  H     H_    0.659294 0.814107 0.574567 0.175554
C92   C     C_3   0.671157 0.844513 0.704774 -0.310084
H101  H     H_    0.645547 0.879660 0.751749 0.240849
H102  H     H_    0.669087 0.786976 0.727170 0.262170
C93   C     C_3   0.745939 0.868129 0.697580 -0.902713
H103  H     H_    0.772252 0.835123 0.649288 0.269890
H104  H     H_    0.772553 0.860029 0.758758 0.264044
H105  H     H_    0.749162 0.926908 0.680194 0.275959
O24   O     O_3   0.450344 0.164899 0.638369 -0.511266
C94   C     C_3   0.505468 0.158164 0.695810 0.086224
H106  H     H_    0.525004 0.213214 0.714597 0.178674
H107  H     H_    0.547969 0.125943 0.667984 0.140922
C95   C     C_3   0.480428 0.118276 0.773986 -0.272033
H108  H     H_    0.437552 0.149435 0.801967 0.259910
H109  H     H_    0.461174 0.063097 0.756113 0.246576
C96   C     C_3   0.537706 0.110088 0.839169 -0.844013
H110  H     H_    0.580677 0.077952 0.812998 0.252517
H111  H     H_    0.517831 0.080977 0.895089 0.266306
H112  H     H_    0.556899 0.164733 0.858988 0.291022
Cl9   Cl    Cl    0.626538 0.914332 0.424553 -0.552095
Cl10  Cl    Cl    0.359788 0.080715 0.528232 -0.474678
Cl11  Cl    Cl    0.373292 0.912919 0.573667 -0.536692
Cl12  Cl    Cl    0.640336 0.081830 0.471127 -0.478588

loop_
_geom_bond_atom_site_label_1
_geom_bond_atom_site_label_2
_ccdc_geom_bond_type
C70   C71   S    
C49   H2    S    
C21   C26   A    
C29   Cl3   S    
C3    C42   A    
C74   H59   S    
C30   Cl4   S    
C68   C69   S    
C39   O9    S    
O21   C85   S    
C14   C18   A    
O23   C91   S    
C89   C90   S    
C78   H68   S    
C91   H99   S    
C6    C9    A    
C66   H41   S    
C63   H35   S    
C68   H45   S    
C46   O16   S    
C76   H64   S    
C12   Cl6   S    
C52   H8    S    
C15   C19   A    
C60   H27   S    
C95   C96   S    
Cu2   O2    S    
C85   H86   S    
C59   C60   S    
C54   H12   S    
C6    C8    A    
C36   C37   T    
C1    O4    A    
C89   H95   S    
C62   H31   S    
C27   O8    A    
C42   O12   S    
Cu1   O1    S    
C77   H67   S    
C86   C87   S    
C49   C50   S    
C56   H18   S    
C20   C25   S    
C44   O14   S    
C70   H50   S    
C29   C33   A    
Cu1   O5    S    
C63   H33   S    
C93   H105  S    
C70   H51   S    
C96   H110  S    
C42   C46   A    
C23   C26   A    
C50   H4    S    
C19   C26   S    
C31   Cl1   S    
C61   H29   S    
C82   C83   S    
C1    O1    A    
C83   C84   S    
C15   O21   S    
C13   N1    A    
C11   C15   A    
C79   C80   S    
C14   N2    A    
C92   H101  S    
C67   H43   S    
C84   H83   S    
C22   C25   A    
C7    O19   S    
Cu2   N2    S    
C94   H106  S    
C79   H71   S    
C73   H58   S    
C84   H82   S    
C57   H20   S    
C62   C63   S    
C52   H9    S    
C49   H1    S    
C3    C39   A    
C74   H60   S    
C51   H5    S    
C94   H107  S    
C59   H24   S    
C28   O7    A    
C51   H7    S    
C5    C10   A    
C12   N2    A    
C71   H53   S    
C77   C78   S    
C50   H3    S    
C61   H30   S    
C41   O11   S    
C78   H70   S    
C95   H109  S    
C82   H79   S    
C85   H85   S    
C30   C34   A    
Cu2   O6    S    
C75   H63   S    
C12   C16   A    
C16   O22   S    
C35   C38   T    
C44   C48   A    
C24   C25   A    
C66   H42   S    
C73   C74   S    
C51   H6    S    
C27   O5    A    
C72   H56   S    
C90   H96   S    
C5    C7    A    
Cu1   N1    S    
C87   H89   S    
C39   C43   A    
C45   C48   A    
C57   H21   S    
C8    O20   S    
C88   H92   S    
C14   Cl8   S    
C85   C86   S    
C67   H44   S    
Cu2   O4    S    
C40   O10   S    
C96   H111  S    
C81   H77   S    
C75   H62   S    
C50   C51   S    
C93   H104  S    
C11   Cl5   S    
C83   H80   S    
C4    C40   A    
C17   O23   S    
C90   H97   S    
C71   C72   S    
C78   H69   S    
O19   C79   S    
C55   C56   S    
C28   C38   S    
C16   C20   A    
C84   H84   S    
C7    C9    A    
C92   C93   S    
C54   H14   S    
C64   H36   S    
C31   C34   A    
C60   H28   S    
O10   C52   S    
C59   H25   S    
C61   C62   S    
C73   H57   S    
C69   H48   S    
C9    C48   S    
C65   C66   S    
C87   H90   S    
C77   H66   S    
C54   H13   S    
C55   H16   S    
O12   C58   S    
C76   C77   S    
C2    O2    A    
C94   C95   S    
C24   Cl12  S    
O24   C94   S    
C17   C19   A    
O15   C67   S    
C91   C92   S    
C22   Cl10  S    
C56   H17   S    
O14   C64   S    
C65   H39   S    
C71   H52   S    
C52   C53   S    
C68   H46   S    
C86   H87   S    
C46   C47   A    
O18   C76   S    
C83   H81   S    
C13   Cl7   S    
C58   H23   S    
O16   C70   S    
C8    C10   A    
C6    O18   S    
C53   H10   S    
C69   H49   S    
C91   H100  S    
C80   C81   S    
C21   Cl9   S    
C18   O24   S    
C45   O15   S    
C66   H40   S    
C28   O6    A    
C74   C75   S    
C60   H26   S    
Cu1   O7    S    
C58   H22   S    
C13   C17   A    
C2    O3    A    
C96   H112  S    
Cu2   O8    S    
C75   H61   S    
C1    C4    S    
C72   H55   S    
C2    C3    S    
O20   C82   S    
C88   H93   S    
C32   Cl2   S    
C93   H103  S    
C29   C31   A    
C92   H102  S    
Cu1   O3    S    
C72   H54   S    
C32   C33   A    
C56   C57   S    
C30   C32   A    
O22   C88   S    
C27   C37   S    
C87   H91   S    
C5    O17   S    
C88   C89   S    
C95   H108  S    
C67   C68   S    
C33   C35   S    
C53   H11   S    
C63   H34   S    
C18   C20   A    
O9    C49   S    
C23   Cl11  S    
C57   H19   S    
C81   H76   S    
C64   H37   S    
C53   C54   S    
C11   N1    A    
C69   H47   S    
C80   H73   S    
C89   H94   S    
C40   C44   A    
C58   C59   S    
C80   H74   S    
C55   H15   S    
C34   C36   S    
O11   C55   S    
C76   H65   S    
Cu1   Cu2   S    
C4    C41   A    
C21   C24   A    
C10   C47   S    
C64   C65   S    
C41   C45   A    
C22   C23   A    
C65   H38   S    
C82   H78   S    
C43   O13   S    
C62   H32   S    
O17   C73   S    
O13   C61   S    
C86   H88   S    
C43   C47   A    
C81   H75   S    
C79   H72   S    
C90   H98   S    
