data_mof_unit_22589.cif
_audit_creation_date              2012-12-11T15:55:39-0500
_audit_creation_method            fapswitch 2.2
_symmetry_space_group_name_H-M    P1
_symmetry_Int_Tables_number       1
_space_group_crystal_system       triclinic
_cell_length_a                    6.962634
_cell_length_b                    14.554544
_cell_length_c                    16.101979
_cell_angle_alpha                 90.145876
_cell_angle_beta                  89.874218
_cell_angle_gamma                 90.084638
_cell_volume                      1631.73076313

loop_
_atom_site_label
_atom_site_type_symbol
_atom_type_description
_atom_site_fract_x
_atom_site_fract_y
_atom_site_fract_z
_atom_type_partial_charge
O1    O     O_R   0.505680 0.583900 0.413320 -0.536976
O2    O     O_R   0.176010 0.594950 0.586080 -0.547327
O3    O     O_R   0.005680 0.416100 0.586680 -0.535407
C1    C     C_R   0.345072 0.617505 0.614630 0.720736
O4    O     O_R   0.175960 0.594930 0.413930 -0.546325
O5    O     O_R   0.005640 0.416080 0.413300 -0.540389
C2    C     C_R   0.347261 0.618917 0.386164 0.673126
O6    O     O_R   0.505720 0.583920 0.586700 -0.536520
O7    O     O_3   0.339190 0.441320 0.500000 -0.365150
V1    V     V_3+5 0.064350 0.510890 0.500000 1.390260
O8    O     O_R   0.675920 0.405050 0.413920 -0.546234
C3    C     C_R   0.844966 0.382993 0.384935 0.671683
O9    O     O_R   0.675960 0.405070 0.586070 -0.531186
C4    C     C_R   0.844411 0.383331 0.615007 0.706389
V2    V     V_3+5 0.564340 0.489110 0.500000 1.416866
O10   O     O_3   0.839370 0.558680 0.500000 -0.377443
C5    C     C_R   0.991222 0.325411 0.747924 -0.084057
C6    C     C_R   0.850850 0.318680 0.686162 -0.111068
C7    C     C_R   0.705865 0.252343 0.698794 -0.133652
H1    H     H_    0.588359 0.246294 0.655222 0.109981
C8    C     C_R   0.718046 0.188744 0.764817 -0.167521
H2    H     H_    0.609324 0.135718 0.769442 0.114513
C9    C     C_R   0.874487 0.190049 0.820895 -0.127849
C10   C     C_R   0.001876 0.264740 0.814190 -0.010801
C11   C     C_3   0.215806 0.275265 0.821427 0.292801
C12   C     C_3   0.205010 0.339085 0.745567 0.342320
H3    H     H_    0.296949 0.210721 0.808698 0.000581
H4    H     H_    0.269851 0.307862 0.689071 0.023377
C13   C     C_R   0.046138 0.225131 0.217078 -0.158616
H5    H     H_    0.186360 0.206627 0.193164 0.112707
C14   C     C_R   0.035027 0.288648 0.282391 -0.150341
H6    H     H_    0.167264 0.317229 0.306606 0.118496
C15   C     C_R   0.856129 0.314868 0.315847 -0.044220
C16   C     C_R   0.688630 0.276000 0.281900 -0.159010
H7    H     H_    0.548392 0.294593 0.305725 0.116376
C17   C     C_R   0.699734 0.212476 0.216596 -0.155661
H8    H     H_    0.567483 0.183974 0.192309 0.116404
C18   C     C_R   0.878669 0.186007 0.183354 -0.042957
C19   C     C_R   0.189593 0.728196 0.714723 -0.188747
H9    H     H_    0.049893 0.711841 0.689175 0.117259
C20   C     C_R   0.200627 0.791404 0.780259 -0.153908
H10   H     H_    0.068878 0.822109 0.802856 0.121441
C21   C     C_R   0.378847 0.814770 0.815875 -0.046292
C22   C     C_R   0.545717 0.773136 0.784035 -0.159861
H11   H     H_    0.685400 0.789335 0.809678 0.117115
C23   C     C_R   0.534633 0.709728 0.718653 -0.139544
H12   H     H_    0.666320 0.678794 0.696230 0.115821
C24   C     C_R   0.356397 0.686298 0.683113 -0.049236
C25   C     C_R   0.210683 0.744495 0.297993 -0.217576
H13   H     H_    0.092077 0.745213 0.338809 0.145985
C26   C     C_R   0.213481 0.805066 0.230865 -0.156510
H14   H     H_    0.087029 0.845961 0.218291 0.126045
C27   C     C_R   0.380553 0.815571 0.183344 -0.067511
C28   C     C_R   0.545058 0.767477 0.207252 -0.179106
H15   H     H_    0.679245 0.780351 0.175062 0.119948
C29   C     C_R   0.542905 0.708617 0.276503 0.140199
C30   C     C_R   0.366887 0.689448 0.318203 -0.063494
O11   O     O_R   0.229200 0.915950 0.913350 -0.538617
O12   O     O_R   0.559090 0.905000 0.086080 -0.542184
O13   O     O_R   0.729280 0.083880 0.086680 -0.540977
C31   C     C_R   0.389981 0.882898 0.114558 0.703070
O14   O     O_R   0.558920 0.904980 0.913920 -0.542222
O15   O     O_R   0.729110 0.083860 0.913300 -0.542466
C32   C     C_R   0.389952 0.882851 0.884994 0.687330
O16   O     O_R   0.229360 0.915970 0.086730 -0.538312
O17   O     O_3   0.395680 0.058580 0.000030 -0.386295
V3    V     V_3+5 0.670570 0.989070 0.999990 1.382867
O18   O     O_R   0.058820 0.094950 0.913870 -0.550586
C33   C     C_R   0.889671 0.118597 0.886461 0.695009
O19   O     O_R   0.058990 0.094970 0.086020 -0.550053
C34   C     C_R   0.889898 0.117361 0.114721 0.681402
V4    V     V_3+5 0.170560 0.010930 0.999930 1.368950
O20   O     O_3   0.895590 0.941310 0.999960 -0.365502
C35   C     C_3   0.733928 0.685590 0.313942 -0.325230
C36   C     C_3   0.760144 0.742719 0.394084 -0.677881
H16   H     H_    0.794227 0.815078 0.377804 0.191187
H17   H     H_    0.629650 0.743725 0.433677 0.209328
H18   H     H_    0.877366 0.714588 0.432706 0.218487
H19   H     H_    0.752447 0.610897 0.323989 0.189484
H20   H     H_    0.848393 0.702116 0.268780 0.148519
O21   O     O_3   0.267117 0.325655 0.893504 -0.534048
C37   C     C_3   0.351048 0.268002 0.953141 -0.145513
H21   H     H_    0.240849 0.222707 0.981200 0.154928
H22   H     H_    0.409725 0.311459 0.003795 0.133806
H23   H     H_    0.472987 0.227929 0.927004 0.139835
O22   O     O_3   0.281308 0.428783 0.760930 -0.526327
C38   C     C_3   0.144816 0.493106 0.790141 -0.110562
H24   H     H_    0.068087 0.468046 0.846303 0.160188
H25   H     H_    0.041348 0.511024 0.740349 0.106934
H26   H     H_    0.221603 0.556756 0.808370 0.145522

loop_
_geom_bond_atom_site_label_1
_geom_bond_atom_site_label_2
_ccdc_geom_bond_type
C38   H24   S    
C20   H10   S    
C9    C33   S    
C7    H1    S    
C1    O6    A    
O21   C37   S    
C19   C20   A    
C27   C28   A    
O14   V3    S    
C5    C12   S    
C17   H8    S    
C7    C8    A    
C16   H7    S    
O5    C3    A    
V2    O10   S    
C25   C30   A    
C29   C30   A    
C6    C7    A    
C4    C6    S    
O14   C32   A    
O12   V3    S    
C28   H15   S    
O8    V2    S    
O17   V4    S    
O15   C33   A    
O13   V3    S    
O18   C33   A    
C25   C26   A    
C13   C18   A    
C9    C10   A    
C14   C15   A    
O19   C34   A    
V3    O20   S    
O7    V1    S    
C12   O22   S    
O17   V3    S    
C35   H20   S    
O9    C4    A    
C11   O21   S    
C20   C21   A    
C18   C34   S    
C27   C31   S    
C22   C23   A    
C21   C32   S    
C5    C6    A    
C28   C29   A    
O11   C32   A    
O15   V3    S    
O12   C31   A    
C5    C10   A    
C29   C35   S    
C35   C36   S    
C26   H14   S    
C10   C11   S    
C19   H9    S    
O4    C2    A    
O22   C38   S    
O13   C34   A    
C11   C12   S    
C26   C27   A    
O2    C1    A    
C36   H16   S    
C13   H5    S    
C14   H6    S    
O18   V4    S    
C15   C16   A    
C36   H17   S    
O3    C4    A    
O1    V2    S    
C25   H13   S    
O6    V2    S    
C37   H22   S    
C35   H19   S    
C8    C9    A    
C21   C22   A    
C37   H23   S    
C22   H11   S    
C1    C24   S    
C23   H12   S    
O1    C2    A    
V4    O20   S    
O5    V1    S    
O8    C3    A    
C11   H3    S    
O16   V4    S    
C12   H4    S    
O9    V2    S    
O7    V2    S    
O4    V1    S    
C13   C14   A    
O3    V1    S    
V1    O10   S    
O11   V4    S    
C17   C18   A    
C16   C17   A    
C36   H18   S    
C23   C24   A    
C31   O16   A    
C37   H21   S    
C38   H26   S    
C38   H25   S    
O19   V4    S    
C3    C15   S    
C8    H2    S    
C2    C30   S    
C19   C24   A    
O2    V1    S    
