data_mof_unit_7300.cif
_audit_creation_date              2012-12-11T15:09:37-0500
_audit_creation_method            fapswitch 2.2
_symmetry_space_group_name_H-M    P1
_symmetry_Int_Tables_number       1
_space_group_crystal_system       triclinic
_cell_length_a                    20.87385
_cell_length_b                    7.126897
_cell_length_c                    14.033612
_cell_angle_alpha                 89.964331
_cell_angle_beta                  98.019264
_cell_angle_gamma                 90.080338
_cell_volume                      2067.3036296

loop_
_atom_site_label
_atom_site_type_symbol
_atom_type_description
_atom_site_fract_x
_atom_site_fract_y
_atom_site_fract_z
_atom_type_partial_charge
O1    O     O_R   0.447130 0.507140 0.597350 -0.539466
O2    O     O_R   0.552870 0.007140 0.402650 -0.532948
O3    O     O_R   0.578910 0.181280 0.586990 -0.538056
O4    O     O_R   0.421090 0.681280 0.413010 -0.539815
C1    C     C_R   0.604532 0.344583 0.607285 0.729931
C2    C     C_R   0.395511 0.844429 0.392603 0.729031
O5    O     O_R   0.449230 0.177860 0.608640 -0.536486
O6    O     O_R   0.550770 0.677860 0.391360 -0.542912
O7    O     O_R   0.422260 0.000770 0.424450 -0.533706
O8    O     O_R   0.577740 0.500770 0.575550 -0.535610
C3    C     C_R   0.432703 0.346009 0.634581 0.693319
C4    C     C_R   0.567262 0.846473 0.365458 0.692973
O9    O     O_3   0.491310 0.336980 0.439550 -0.375417
O10   O     O_3   0.508690 0.836980 0.560450 -0.375473
V1    V     V_3+5 0.501610 0.064760 0.511210 1.450893
V2    V     V_3+5 0.498390 0.564760 0.488790 1.435782
C5    C     C_R   0.620246 0.905049 0.123229 -0.149890
C6    C     C_R   0.380101 0.333863 0.878884 -0.147809
H1    H     H_    0.529047 0.911917 0.177013 0.107972
H2    H     H_    0.471414 0.322111 0.825578 0.107934
H3    H     H_    0.597006 0.929288 0.050423 0.136589
H4    H     H_    0.403466 0.324901 0.952593 0.138300
C7    C     C_R   0.608069 0.857134 0.289442 -0.056224
C8    C     C_R   0.391976 0.351822 0.710934 -0.056296
C9    C     C_R   0.923254 0.851850 0.308280 0.262925
C10   C     C_R   0.077272 0.341204 0.692080 0.250665
C11   C     C_R   0.885603 0.872524 0.382670 -0.226196
C12   C     C_R   0.114716 0.304034 0.619687 -0.220688
C13   C     C_R   0.818022 0.893300 0.363544 0.315315
C14   C     C_R   0.182457 0.290245 0.639564 0.306664
C15   C     C_R   0.785736 0.873660 0.267410 0.038729
C16   C     C_R   0.214486 0.331201 0.734026 0.038605
C17   C     C_R   0.824204 0.867667 0.191495 -0.091617
C18   C     C_R   0.175904 0.352968 0.809228 -0.085439
C19   C     C_R   0.716766 0.868551 0.243266 0.059549
C20   C     C_R   0.283368 0.343303 0.757666 0.058984
C21   C     C_R   0.688062 0.886652 0.145257 0.052755
C22   C     C_R   0.312133 0.343643 0.856092 0.055677
C23   C     C_R   0.726974 0.884834 0.070870 0.274244
C24   C     C_R   0.273068 0.354613 0.930078 0.270415
C25   C     C_R   0.794181 0.871018 0.095135 -0.187500
C26   C     C_R   0.205886 0.366150 0.905356 -0.190290
C27   C     C_R   0.674913 0.838524 0.312804 -0.139046
C28   C     C_R   0.324942 0.362387 0.686846 -0.139332
C29   C     C_R   0.580888 0.894792 0.195192 -0.177098
C30   C     C_R   0.419428 0.333333 0.806672 -0.178466
C31   C     C_R   0.892580 0.859963 0.212605 -0.123447
C32   C     C_R   0.107523 0.358476 0.787650 -0.130249
H5    H     H_    0.692463 0.794541 0.385198 0.162189
H6    H     H_    0.306908 0.390909 0.612532 0.161609
H7    H     H_    0.908969 0.882121 0.456306 0.123034
H8    H     H_    0.090464 0.280746 0.547215 0.131674
H9    H     H_    0.823498 0.861999 0.037779 0.127970
H10   H     H_    0.176672 0.385221 0.962304 0.130637
C33   C     C_1   0.166491 0.856962 0.168528 -0.201378
C34   C     C_1   0.833771 0.357558 0.830803 -0.206138
C35   C     C_1   0.218891 0.854485 0.219656 -0.004942
C36   C     C_1   0.781431 0.355807 0.779495 -0.005130
C37   C     C_1   0.280676 0.853084 0.279565 0.008762
C38   C     C_1   0.719593 0.354216 0.719727 0.009963
C39   C     C_1   0.333082 0.850886 0.330702 -0.186981
C40   C     C_1   0.667085 0.351513 0.668861 -0.186749
O11   O     O_R   0.922300 0.202240 0.924350 -0.535118
O12   O     O_R   0.077700 0.702240 0.075650 -0.529930
O13   O     O_R   0.050780 0.535130 0.891350 -0.546615
O14   O     O_R   0.949220 0.035130 0.108650 -0.544530
C41   C     C_R   0.067179 0.368117 0.865104 0.707526
C42   C     C_R   0.932806 0.867826 0.134877 0.719164
O15   O     O_R   0.921100 0.531560 0.912990 -0.541113
O16   O     O_R   0.078900 0.031560 0.087010 -0.541415
O17   O     O_R   0.947120 0.708470 0.097370 -0.530832
O18   O     O_R   0.052880 0.208470 0.902630 -0.536818
C43   C     C_R   0.896014 0.363547 0.893113 0.717533
C44   C     C_R   0.104088 0.863561 0.106635 0.720645
O19   O     O_3   0.008710 0.375800 0.060400 -0.369610
O20   O     O_3   0.991290 0.875800 0.939600 -0.379325
V3    V     V_3+5 0.998380 0.648080 0.988790 1.422848
V4    V     V_3+5 0.001620 0.148080 0.011210 1.417521
N1    N     N_2   0.697292 0.885803 0.972295 -0.530416
H11   H     H_    0.663103 0.782276 0.954789 0.252443
C45   C     C_3   0.735312 0.929071 0.896368 -0.524165
H12   H     H_    0.702438 0.955910 0.828488 0.203179
H13   H     H_    0.767059 0.808776 0.884498 0.191322
H14   H     H_    0.764692 0.057259 0.914667 0.208959
N2    N     N_2   0.302447 0.365490 0.028502 -0.532148
H15   H     H_    0.333029 0.478404 0.044360 0.252880
C46   C     C_3   0.265745 0.312918 0.104667 -0.520661
H16   H     H_    0.299376 0.291530 0.172362 0.202552
H17   H     H_    0.239335 0.179378 0.086610 0.207677
H18   H     H_    0.231309 0.426213 0.116863 0.191539
N3    N     N_2   0.992178 0.831789 0.327349 -0.520926
H19   H     H_    0.018673 0.923773 0.291580 0.243832
C47   C     C_3   0.022872 0.774282 0.421706 -0.524922
H20   H     H_    0.073570 0.732080 0.417392 0.200089
H21   H     H_    0.997257 0.651708 0.447714 0.217889
H22   H     H_    0.023727 0.892701 0.473092 0.181368
N4    N     N_2   0.008838 0.356633 0.667695 -0.520387
H23   H     H_    0.986789 0.446632 0.710536 0.246627
C48   C     C_3   0.975137 0.179561 0.651850 -0.547771
H24   H     H_    0.922783 0.205761 0.629269 0.196222
H25   H     H_    0.981003 0.095364 0.719189 0.200575
H26   H     H_    0.993902 0.099220 0.594012 0.197282
O21   O     O_3   0.784474 0.949524 0.436810 -0.658426
H27   H     H_    0.814331 0.959285 0.498114 0.285144
O22   O     O_3   0.216568 0.220999 0.569660 -0.658535
H28   H     H_    0.186714 0.197287 0.509444 0.286548

loop_
_geom_bond_atom_site_label_1
_geom_bond_atom_site_label_2
_ccdc_geom_bond_type
O14   C42   A    
C46   H16   S    
C47   H20   S    
C7    C29   A    
C11   C13   A    
O12   V3    S    
O15   V3    S    
O1    C3    A    
O2    C4    A    
C2    O7    A    
N4    H23   S    
C23   C25   A    
N2    H15   S    
O5    C3    A    
C4    C7    S    
C16   C20   A    
C2    C39   S    
C19   C21   A    
C5    C29   A    
C35   C37   S    
O16   V4    S    
C36   C38   S    
C3    C8    S    
C7    C27   A    
C13   O21   S    
C38   C40   T    
C41   O18   A    
C37   C39   T    
O18   V4    S    
N4    C48   S    
C46   H18   S    
C33   C44   S    
O13   C41   A    
C18   C26   A    
O16   C44   A    
C15   C17   A    
O15   C43   A    
C19   C27   A    
C9    C31   A    
C10   C32   A    
C24   C26   A    
O6    V2    S    
C22   C24   A    
C6    C30   A    
C45   H13   S    
C11   H7    S    
C45   H12   S    
N2    C46   S    
O14   V4    S    
C9    N3    S    
O13   V3    S    
O20   V3    S    
O4    C2    A    
N3    H19   S    
N1    C45   S    
C27   H5    S    
O11   C43   A    
C5    H3    S    
C23   N1    S    
C24   N2    S    
O4    V2    S    
N3    C47   S    
C48   H24   S    
O6    C4    A    
O1    V2    S    
C5    C21   A    
O2    V1    S    
O19   V3    S    
C25   H9    S    
C48   H25   S    
C47   H22   S    
C33   C35   T    
C14   O22   S    
C17   C31   A    
C15   C19   A    
C20   C28   A    
C18   C32   A    
C20   C22   A    
C31   C42   S    
O17   V3    S    
C45   H14   S    
O3    V1    S    
C28   H6    S    
C34   C43   S    
C6    H4    S    
O20   V4    S    
O3    C1    A    
H1    C29   S    
C9    C11   A    
O22   H28   S    
C10   C12   A    
C8    C30   A    
C12   C14   A    
C6    C22   A    
C17   C25   A    
C1    O8    A    
C13   C15   A    
O8    V2    S    
C26   H10   S    
C14   C16   A    
C12   H8    S    
C42   O17   A    
C8    C28   A    
O5    V1    S    
C34   C36   T    
C1    C40   S    
C32   C41   S    
O7    V1    S    
O19   V4    S    
C10   N4    S    
N1    H11   S    
C21   C23   A    
C48   H26   S    
C47   H21   S    
O9    V2    S    
O21   H27   S    
C46   H17   S    
O12   C44   A    
O10   V1    S    
H2    C30   S    
C16   C18   A    
O11   V4    S    
