data_mof_unit_63993.cif
_audit_creation_date              2013-03-05T16:09:42-0500
_audit_creation_method            fapswitch 2.2
_symmetry_space_group_name_H-M    P1
_symmetry_Int_Tables_number       1
_space_group_crystal_system       triclinic
_cell_length_a                    10.705058
_cell_length_b                    12.778605
_cell_length_c                    13.897567
_cell_angle_alpha                 98.002328
_cell_angle_beta                  90.121609
_cell_angle_gamma                 94.237257
_cell_volume                      1877.3210498

loop_
_atom_site_label
_atom_site_type_symbol
_atom_site_description
_atom_site_fract_x
_atom_site_fract_y
_atom_site_fract_z
_atom_type_partial_charge
O1    O     O_R   0.492210 0.399110 0.356330 -0.593557
O2    O     O_R   0.507790 0.600890 0.643670 -0.593558
O3    O     O_R   0.505820 0.575890 0.366540 -0.542140
O4    O     O_R   0.494180 0.424110 0.633460 -0.542141
C1    C     C_R   0.498818 0.483518 0.315835 0.838083
C2    C     C_R   0.501182 0.516482 0.684165 0.838082
O5    O     O_R   0.310050 0.411620 0.494870 -0.539723
O6    O     O_R   0.689950 0.588380 0.505130 -0.539724
O7    O     O_R   0.323660 0.588400 0.505080 -0.563766
O8    O     O_R   0.676340 0.411600 0.494920 -0.563765
C3    C     C_R   0.259216 0.498960 0.499676 0.883686
C4    C     C_R   0.740784 0.501039 0.500324 0.883687
Cu1   Cu    Cu3+1 0.491940 0.395330 0.493960 1.075803
Cu2   Cu    Cu3+1 0.508060 0.604670 0.506040 1.075802
C5    C     C_3   0.027658 0.399450 0.501480 -0.068936
C6    C     C_3   0.972341 0.600550 0.498520 -0.068938
C7    C     C_3   0.948502 0.437236 0.421048 -0.353565
C8    C     C_3   0.051498 0.562763 0.578951 -0.353568
H1    H     H_    0.906540 0.387229 0.355524 0.184133
H2    H     H_    0.093460 0.612770 0.644475 0.184133
C9    C     C_3   0.876744 0.504137 0.500842 -0.132767
C10   C     C_3   0.123256 0.495862 0.499157 -0.132767
C11   C     C_3   0.955603 0.466486 0.579403 0.328263
C12   C     C_3   0.044397 0.533513 0.420596 0.328265
C13   C     C_1   0.502177 0.525964 0.787540 -0.087602
C14   C     C_1   0.497823 0.474036 0.212460 -0.087600
C15   C     C_2   0.504114 0.543539 0.978484 -0.124353
C16   C     C_2   0.495886 0.456461 0.021516 -0.124354
C17   C     C_1   0.496889 0.465515 0.125370 0.043584
C18   C     C_1   0.503111 0.534485 0.874630 0.043583
H3    H     H_    0.488379 0.378082 0.979063 0.171582
H4    H     H_    0.511621 0.621918 0.020936 0.171582
N1    N     N_1   0.479830 0.238040 0.484880 -0.121001
N2    N     N_1   0.520170 0.761960 0.515120 -0.121002
C19   C     C_2   0.456049 0.029121 0.481243 -0.122064
C20   C     C_2   0.543951 0.970879 0.518756 -0.122063
C21   C     C_1   0.528613 0.854124 0.516474 0.262999
C22   C     C_1   0.471387 0.145876 0.483526 0.262999
C23   C     C_2   0.042696 0.284058 0.504478 0.466865
H5    H     H_    0.959705 0.230076 0.505177 0.103926
O9    O     O_2   0.145848 0.249889 0.506413 -0.531850
C24   C     C_2   0.957304 0.715942 0.495520 0.466864
H6    H     H_    0.040294 0.769924 0.494826 0.103922
O10   O     O_2   0.854152 0.750109 0.493578 -0.531845
N3    N     N_R   0.910259 0.429869 0.668759 0.130911
O11   O     O_R   0.989283 0.400021 0.728802 -0.322697
O12   O     O_R   0.792272 0.429894 0.690674 -0.352550
N4    N     N_R   0.089743 0.570129 0.331241 0.130906
O13   O     O_R   0.010718 0.599980 0.271196 -0.322689
O14   O     O_R   0.207728 0.570102 0.309323 -0.352549
C25   C     C_2   0.663918 0.020667 0.564403 0.381075
H7    H     H_    0.729308 0.970952 0.592497 0.101254
O15   O     O_2   0.692086 0.115777 0.571447 -0.515594
C26   C     C_2   0.336083 0.979333 0.435596 0.381073
H8    H     H_    0.270691 0.029048 0.407504 0.101258
O16   O     O_2   0.307915 0.884222 0.428550 -0.515592

loop_
_geom_bond_atom_site_label_1
_geom_bond_atom_site_label_2
_geom_bond_distance
_ccdc_geom_bond_type
Cu2   N2    1.990835 S    
C13   C18   1.199986 T    
O7    Cu2   1.969417 S    
Cu1   N1    1.990835 S    
C6    C9    1.546325 S    
C11   N3    1.458592 S    
O3    Cu2   1.922085 S    
C1    C14   1.424807 S    
N2    C21   1.172028 T    
C3    C10   1.453047 S    
C19   C20   1.385870 D    
O5    Cu1   1.973354 S    
O6    C4    1.270983 A    
N4    O14   1.299896 A    
C7    C12   1.543708 S    
C6    C12   1.531181 S    
C8    C10   1.545126 S    
Cu1   Cu2   2.649643 S    
C15   C18   1.431763 S    
O5    C3    1.270980 A    
O7    C3    1.283427 A    
C5    C23   1.501371 S    
O2    C2    1.281811 A    
C20   C25   1.489946 S    
C24   O10   1.218663 D    
O1    C1    1.281812 A    
O8    C4    1.283423 A    
C10   C12   1.529231 S    
C5    C11   1.531168 S    
C20   C21   1.484763 S    
C7    H1    1.110494 S    
C8    H2    1.110494 S    
N3    O12   1.299901 A    
C9    C11   1.529225 S    
O2    Cu2   1.920044 S    
C26   O16   1.220756 D    
C2    C13   1.424807 S    
O1    Cu1   1.920045 S    
C24   H6    1.084686 S    
C23   H5    1.084690 S    
C25   H7    1.086122 S    
C16   C17   1.431763 S    
C6    C24   1.501367 S    
O4    Cu1   1.922083 S    
C19   C22   1.484763 S    
C23   O9    1.218657 D    
C14   C17   1.199986 T    
C6    C8    1.551579 S    
O4    C2    1.284758 A    
C5    C10   1.546325 S    
C15   C16   1.332141 D    
C5    C7    1.551576 S    
C26   H8    1.086123 S    
N4    O13   1.300329 A    
N1    C22   1.172028 T    
O6    Cu2   1.973353 S    
C19   C26   1.489946 S    
O3    C1    1.284758 A    
C15   H4    1.086775 S    
N3    O11   1.300289 A    
C4    C9    1.453046 S    
C16   H3    1.086775 S    
C7    C9    1.545127 S    
C8    C11   1.543706 S    
C25   O15   1.220757 D    
O8    Cu1   1.969416 S    
C12   N4    1.458573 S    
