data_mof_unit_61371.cif
_audit_creation_date              2012-12-10T16:52:15-0500
_audit_creation_method            fapswitch 2.2
_symmetry_space_group_name_H-M    P1
_symmetry_Int_Tables_number       1
_space_group_crystal_system       triclinic
_cell_length_a                    11.001628
_cell_length_b                    10.969938
_cell_length_c                    9.746039
_cell_angle_alpha                 89.334846
_cell_angle_beta                  101.537514
_cell_angle_gamma                 90.497268
_cell_volume                      1152.35323021

loop_
_atom_site_label
_atom_site_type_symbol
_atom_type_description
_atom_site_fract_x
_atom_site_fract_y
_atom_site_fract_z
_atom_type_partial_charge
C1    C     C_R   0.494281 0.265910 0.499437 0.804628
C2    C     C_2   0.519908 0.865227 0.499631 -0.217262
C3    C     C_2   0.482772 0.067012 0.388445 0.437449
C4    C     C_2   0.471993 0.135692 0.498293 0.335227
C5    C     C_2   0.457654 0.410360 0.914562 0.737248
C6    C     C_2   0.435211 0.424793 0.061238 -0.095316
C7    C     C_R   0.263108 0.505756 0.444451 0.698350
C8    C     C_R   0.502378 0.734191 0.499544 0.762790
C9    C     C_R   0.737074 0.504090 0.555859 0.772339
C10   C     C_2   0.127857 0.516191 0.417391 0.486382
C11   C     C_2   0.067797 0.562532 0.513300 -0.226463
C12   C     C_2   0.872183 0.514494 0.585326 0.319030
C13   C     C_2   0.932467 0.557377 0.487285 0.534501
C14   C     C_2   0.460551 0.935714 0.392053 -0.113994
Cu1   Cu    Cu3+1 0.500020 0.500020 0.638640 1.160767
Cu2   Cu    Cu3+1 0.499980 0.499980 0.361360 1.048299
N1    N     N_2   0.498650 0.498660 0.846590 0.017305
N2    N     N_2   0.498620 0.498630 0.152710 -0.297658
O1    O     O_R   0.500020 0.321960 0.617050 -0.487437
O2    O     O_R   0.499980 0.321920 0.382890 -0.580339
O3    O     O_R   0.320700 0.500020 0.574050 -0.586559
O4    O     O_R   0.320660 0.499980 0.339890 -0.554632
O5    O     O_R   0.500020 0.678080 0.617110 -0.503165
O6    O     O_R   0.499980 0.678040 0.382950 -0.586833
O7    O     O_R   0.679340 0.500020 0.660110 -0.532604
O8    O     O_R   0.679300 0.499980 0.425950 -0.576792
F1    F     F_    0.869837 0.596064 0.359896 -0.612218
F2    F     F_    0.476280 0.610657 0.888646 -0.570681
C15   C     C_1   0.339815 0.349219 0.100843 0.519830
N3    N     N_1   0.263138 0.288251 0.132080 -0.168693
C16   C     C_1   0.611941 0.542160 0.128109 0.611927
N4    N     N_1   0.705668 0.578331 0.106896 -0.121034
C17   C     C_1   0.131304 0.622829 0.639850 0.309227
N5    N     N_1   0.181611 0.670975 0.740657 -0.116658
F3    F     F_    0.935770 0.479540 0.714131 -0.628957
F4    F     F_    0.062501 0.472209 0.294116 -0.570300
C18   C     C_1   0.371413 0.886329 0.275608 0.397153
N6    N     N_1   0.300227 0.846986 0.182642 -0.172555
C19   C     C_1   0.615729 0.912963 0.610982 0.383383
N7    N     N_1   0.692250 0.950717 0.699760 -0.171085
F5    F     F_    0.511831 0.116403 0.270152 -0.630501
F6    F     F_    0.431841 0.085680 0.610147 -0.609244
F7    F     F_    0.431319 0.300609 0.852280 -0.604851

loop_
_geom_bond_atom_site_label_1
_geom_bond_atom_site_label_2
_ccdc_geom_bond_type
C7    C10   S    
Cu2   O4    S    
C18   N6    T    
C7    O4    A    
C16   N4    T    
C11   C17   S    
Cu2   O2    S    
C1    C4    S    
C6    C15   S    
Cu1   O5    S    
C17   N5    T    
C5    F7    S    
C9    O7    A    
Cu2   O6    S    
C14   C18   S    
Cu1   O1    S    
C11   C13   S    
C15   N3    T    
C3    C14   S    
C4    F6    S    
C2    C14   D    
C8    O6    A    
C9    O8    A    
Cu2   O8    S    
C5    C6    S    
C6    N2    D    
C9    C12   S    
C2    C8    S    
Cu1   O7    S    
C5    N1    D    
C10   C11   D    
Cu1   Cu2   S    
Cu1   O3    S    
C8    O5    A    
C12   C13   D    
Cu2   N2    S    
C19   N7    T    
Cu1   N1    S    
C13   F1    S    
C1    O2    A    
C10   F4    S    
N2    C16   S    
N1    F2    S    
C7    O3    A    
C1    O1    A    
C2    C19   S    
C3    F5    S    
C3    C4    D    
C12   F3    S    
