data_mof_unit_37969.cif
_audit_creation_date              2013-03-05T16:23:08-0500
_audit_creation_method            fapswitch 2.2
_symmetry_space_group_name_H-M    P1
_symmetry_Int_Tables_number       1
_space_group_crystal_system       triclinic
_cell_length_a                    15.108581
_cell_length_b                    13.911602
_cell_length_c                    15.984045
_cell_angle_alpha                 91.260284
_cell_angle_beta                  93.084543
_cell_angle_gamma                 89.751344
_cell_volume                      3353.90395712

loop_
_atom_site_label
_atom_site_type_symbol
_atom_site_description
_atom_site_fract_x
_atom_site_fract_y
_atom_site_fract_z
_atom_type_partial_charge
O1    O     O_R   0.371450 0.581430 0.500010 -0.513473
O2    O     O_R   0.371450 0.418570 0.500010 -0.568527
C1    C     C_R   0.330112 0.499840 0.499629 0.859299
O3    O     O_R   0.500000 0.581470 0.379440 -0.522625
O4    O     O_R   0.500000 0.418530 0.379440 -0.488247
C2    C     C_R   0.497701 0.499380 0.339937 0.887068
Cu1   Cu    Cu3+1 0.499990 0.596430 0.500000 1.070783
Cu2   Cu    Cu3+1 0.499990 0.403570 0.500000 1.070585
O5    O     O_R   0.628540 0.581440 0.499990 -0.577261
O6    O     O_R   0.628540 0.418560 0.499990 -0.523463
O7    O     O_R   0.499990 0.581400 0.620560 -0.553215
O8    O     O_R   0.499990 0.418600 0.620560 -0.599446
C3    C     C_R   0.670586 0.499180 0.500880 0.906759
C4    C     C_R   0.501721 0.501426 0.659640 0.803565
C5    C     C_3   0.431285 0.593308 0.043562 0.648680
C6    C     C_3   0.460024 0.405028 0.041578 0.587826
C7    C     C_3   0.466467 0.420477 0.943449 0.139315
C8    C     C_3   0.460143 0.606398 0.948031 0.055383
H1    H     H_    0.401125 0.592028 0.908903 0.117071
H2    H     H_    0.398041 0.444345 0.926890 0.164467
C9    C     C_1   0.508517 0.506849 0.748810 0.045518
C10   C     C_3   0.499449 0.507210 0.082160 -0.409129
C11   C     C_3   0.517994 0.516325 0.916564 -0.434956
C12   C     C_3   0.617172 0.521265 0.957150 0.476650
C13   C     C_3   0.606774 0.525803 0.059770 0.373371
C14   C     C_1   0.514782 0.513377 0.824023 0.337325
C15   C     C_1   0.494984 0.502889 0.174402 0.240728
C16   C     C_1   0.494702 0.499473 0.249961 0.031215
C17   C     C_R   0.091521 0.539634 0.432155 0.420293
C18   C     C_R   0.099545 0.444706 0.558961 0.432672
C19   C     C_R   0.183678 0.542183 0.434142 -0.190455
C20   C     C_R   0.192036 0.446688 0.559318 -0.299822
H3    H     H_    0.215447 0.577990 0.385043 0.183219
H4    H     H_    0.231022 0.409487 0.607492 0.163813
C21   C     C_R   0.233916 0.497830 0.498420 -0.147259
C22   C     C_R   0.049621 0.491632 0.495260 -0.075385
C23   C     C_R   0.903912 0.425350 0.449855 -0.222162
C24   C     C_R   0.912775 0.559894 0.547423 -0.159851
H5    H     H_    0.938145 0.371870 0.413247 0.179628
H6    H     H_    0.953432 0.609696 0.585721 0.177704
C25   C     C_R   0.811742 0.424217 0.451871 0.327224
C26   C     C_R   0.821158 0.560495 0.552728 0.362391
C27   C     C_R   0.768268 0.495453 0.501360 -0.295619
C28   C     C_R   0.953494 0.493338 0.496274 0.050956
C29   C     C_R   0.555208 0.117289 0.575853 0.334879
C30   C     C_R   0.587892 0.886364 0.530202 0.281820
C31   C     C_R   0.548736 0.218171 0.565266 -0.043872
C32   C     C_R   0.577892 0.785253 0.526695 -0.106851
H7    H     H_    0.583307 0.264540 0.611173 0.204250
H8    H     H_    0.634961 0.742578 0.543030 0.257344
N1    N     N_R   0.500020 0.258690 0.500000 -0.274216
N2    N     N_R   0.500020 0.741310 0.500000 -0.280807
C33   C     C_R   0.460342 0.197949 0.439369 0.472172
C34   C     C_R   0.428077 0.800237 0.479657 0.475428
C35   C     C_R   0.477085 0.097639 0.440724 0.293826
C36   C     C_R   0.430504 0.899759 0.500846 0.302772
C37   C     C_R   0.517923 0.054741 0.512022 -0.128438
C38   C     C_R   0.512879 0.945956 0.517748 -0.133539
S1    S     S_3+6 0.757232 0.326415 0.397119 0.030023
O9    O     O_2   0.674033 0.359157 0.350844 -0.198946
O10   O     O_2   0.816595 0.280303 0.335107 -0.291387
O11   O     O_3   0.730488 0.243779 0.466599 -0.532757
H9    H     H_    0.787295 0.226788 0.496568 0.340905
S2    S     S_3+6 0.781743 0.636182 0.633180 0.010900
O12   O     O_2   0.787195 0.738801 0.606499 -0.321815
O13   O     O_2   0.688676 0.613028 0.653740 -0.250476
O14   O     O_3   0.848566 0.622414 0.719767 -0.523664
H10   H     H_    0.838750 0.680616 0.754902 0.386474
O15   O     O_3   0.610187 0.084819 0.641849 -0.550976
C39   C     C_3   0.565720 0.024968 0.696596 0.075436
H11   H     H_    0.609511 0.962267 0.710346 0.215980
H12   H     H_    0.501517 0.995770 0.671085 0.100017
C40   C     C_3   0.549580 0.079116 0.778437 -0.353734
H13   H     H_    0.610265 0.119136 0.800496 0.286100
H14   H     H_    0.494534 0.130949 0.766625 0.250818
C41   C     C_3   0.524444 0.010528 0.846535 -0.712830
H15   H     H_    0.463875 0.969561 0.826106 0.250718
H16   H     H_    0.511460 0.052000 0.904733 0.311006
H17   H     H_    0.579495 0.959235 0.860697 0.273435
O16   O     O_3   0.670202 0.924779 0.552461 -0.535439
C42   C     C_3   0.713305 0.946386 0.479075 0.121878
H18   H     H_    0.677708 0.005065 0.444975 0.137650
H19   H     H_    0.717587 0.881574 0.437090 0.128369
C43   C     C_3   0.807069 0.981148 0.503558 -0.293743
H20   H     H_    0.803661 0.044405 0.547016 0.241879
H21   H     H_    0.844667 0.923048 0.536487 0.253615
C44   C     C_3   0.855910 0.009542 0.426748 -0.857249
H22   H     H_    0.861714 0.946789 0.383175 0.265262
H23   H     H_    0.923534 0.034900 0.446663 0.270303
H24   H     H_    0.820036 0.068555 0.393512 0.290142
S3    S     S_3+6 0.385270 0.234278 0.356015 0.036423
O17   O     O_2   0.431733 0.220867 0.276141 -0.265843
O18   O     O_2   0.308271 0.165758 0.352666 -0.274768
O19   O     O_3   0.343914 0.346106 0.358597 -0.562286
H25   H     H_    0.282627 0.339516 0.376837 0.345557
S4    S     S_3+6 0.332855 0.761712 0.418012 0.056843
O20   O     O_2   0.261589 0.735521 0.475312 -0.309983
O21   O     O_2   0.299158 0.842844 0.364183 -0.233527
O22   O     O_3   0.354506 0.669020 0.353655 -0.519709
H26   H     H_    0.304071 0.667232 0.311667 0.360164
O23   O     O_3   0.447064 0.040394 0.372879 -0.492638
C45   C     C_3   0.519039 0.016915 0.323197 0.072098
H27   H     H_    0.558899 0.958164 0.352576 0.107645
H28   H     H_    0.562531 0.080325 0.314698 0.153213
C46   C     C_3   0.483319 0.981176 0.236856 -0.258054
H29   H     H_    0.442363 0.915891 0.243763 0.266451
H30   H     H_    0.440671 0.037618 0.207241 0.276487
C47   C     C_3   0.558717 0.957094 0.179991 -0.722322
H31   H     H_    0.601002 0.021236 0.172903 0.247902
H32   H     H_    0.531035 0.934338 0.116997 0.316223
H33   H     H_    0.599935 0.897604 0.206473 0.259648
O24   O     O_3   0.352038 0.952319 0.493387 -0.496203
C48   C     C_3   0.327344 0.989519 0.572082 0.098761
H34   H     H_    0.265977 0.032489 0.560290 0.192069
H35   H     H_    0.376931 0.040847 0.600063 0.098212
C49   C     C_3   0.307052 0.910437 0.634071 -0.401972
H36   H     H_    0.256104 0.861082 0.604928 0.274533
H37   H     H_    0.367949 0.868189 0.650232 0.201118
C50   C     C_3   0.272945 0.953588 0.714854 -0.834929
H38   H     H_    0.322302 0.004420 0.744576 0.255169
H39   H     H_    0.261363 0.895305 0.759331 0.287299
H40   H     H_    0.209496 0.992361 0.701549 0.256839
O25   O     O_3   0.341996 0.557376 0.045110 -0.604498
C51   C     C_3   0.269515 0.579549 0.987144 0.096660
H41   H     H_    0.214333 0.533189 0.004980 0.161455
H42   H     H_    0.277047 0.553130 0.922245 0.118679
C52   C     C_3   0.232513 0.682243 0.992827 -0.279291
H43   H     H_    0.199657 0.692992 0.052777 0.233762
H44   H     H_    0.285290 0.735942 0.990157 0.305282
C53   C     C_3   0.163534 0.700641 0.921606 -0.897256
H45   H     H_    0.193437 0.691016 0.859965 0.276052
H46   H     H_    0.138330 0.775498 0.926959 0.277014
H47   H     H_    0.106839 0.650541 0.924971 0.251748
O26   O     O_3   0.366235 0.392253 0.050580 -0.588310
C54   C     C_3   0.332800 0.388394 0.132198 0.187610
H48   H     H_    0.324479 0.461214 0.160218 0.166767
H49   H     H_    0.375114 0.347579 0.177279 0.225712
C55   C     C_3   0.240855 0.342343 0.121994 -0.298025
H50   H     H_    0.197772 0.386638 0.079431 0.206323
H51   H     H_    0.246428 0.269588 0.092548 0.265593
C56   C     C_3   0.196690 0.333692 0.204875 -0.872140
H52   H     H_    0.229148 0.275857 0.241735 0.325718
H53   H     H_    0.126000 0.313850 0.192755 0.254319
H54   H     H_    0.200232 0.402741 0.241079 0.241182
S5    S     S_3+6 0.505347 0.289096 0.082404 0.102055
O27   O     O_2   0.429523 0.220628 0.090232 -0.245105
O28   O     O_2   0.567151 0.235861 0.028045 -0.170590
O29   O     O_3   0.553566 0.303488 0.179016 -0.478283
H55   H     H_    0.581133 0.240484 0.192238 0.399940
S6    S     S_3+6 0.418951 0.699298 0.115599 0.064293
O30   O     O_2   0.484859 0.705290 0.188889 -0.233496
O31   O     O_2   0.416850 0.793741 0.072347 -0.255466
O32   O     O_3   0.320997 0.688907 0.159764 -0.565538
H56   H     H_    0.306141 0.754623 0.179818 0.374744
S7    S     S_3+6 0.449724 0.318358 0.869801 0.035508
O33   O     O_2   0.527128 0.301937 0.816180 -0.282726
O34   O     O_2   0.429108 0.227286 0.913301 -0.206109
O35   O     O_3   0.361542 0.343825 0.804948 -0.598064
H57   H     H_    0.357951 0.289858 0.763431 0.356249
S8    S     S_3+6 0.467942 0.724454 0.898453 0.058459
O36   O     O_2   0.375990 0.759506 0.874675 -0.344786
O37   O     O_2   0.513115 0.801536 0.951691 -0.158218
O38   O     O_3   0.520655 0.715232 0.808669 -0.486842
H58   H     H_    0.513516 0.778915 0.782528 0.360000
S9    S     S_3+6 0.647267 0.641166 0.108886 0.121054
O39   O     O_2   0.742709 0.659121 0.092701 -0.189987
O40   O     O_2   0.597032 0.727570 0.079313 -0.196256
O41   O     O_3   0.643225 0.637577 0.213860 -0.490485
H59   H     H_    0.670378 0.698611 0.235277 0.364616
S10   S     S_3+6 0.688577 0.446025 0.115784 0.148492
O42   O     O_2   0.673678 0.448271 0.207672 -0.219154
O43   O     O_2   0.690304 0.343322 0.087086 -0.174931
O44   O     O_3   0.792532 0.486013 0.106583 -0.432803
H60   H     H_    0.829647 0.450075 0.148336 0.363363
S11   S     S_3+6 0.683394 0.620097 0.914201 0.161365
O45   O     O_2   0.675974 0.615366 0.820367 -0.188484
O46   O     O_2   0.660711 0.720621 0.939436 -0.178223
O47   O     O_3   0.791562 0.605446 0.942243 -0.425321
H61   H     H_    0.822764 0.655828 0.912513 0.359373
S12   S     S_3+6 0.682979 0.419489 0.914772 0.134181
O48   O     O_2   0.777204 0.421125 0.949860 -0.181674
O49   O     O_2   0.647335 0.322742 0.930018 -0.187290
O50   O     O_3   0.687414 0.427098 0.810082 -0.484808
H62   H     H_    0.727021 0.373993 0.793223 0.374895
O51   O     O_3   0.042521 0.591787 0.373206 -0.577590
C57   C     C_3   0.028990 0.537154 0.297836 0.050378
H63   H     H_    0.956362 0.534110 0.282728 0.195955
H64   H     H_    0.052757 0.461024 0.301221 0.113688
C58   C     C_3   0.073571 0.587406 0.227011 -0.332271
H65   H     H_    0.056407 0.665192 0.228302 0.259396
H66   H     H_    0.146715 0.580382 0.236346 0.211042
C59   C     C_3   0.043905 0.544597 0.141355 -0.850322
H67   H     H_    0.057435 0.466205 0.138759 0.255596
H68   H     H_    0.080375 0.579482 0.091884 0.251718
H69   H     H_    0.971869 0.557115 0.128502 0.294876
O52   O     O_3   0.057425 0.392817 0.617995 -0.598335
C60   C     C_3   0.063094 0.441917 0.696690 0.053741
H70   H     H_    0.994435 0.457676 0.714872 0.205715
H71   H     H_    0.098602 0.512392 0.697125 0.130173
C61   C     C_3   0.108354 0.376931 0.762187 -0.310965
H72   H     H_    0.071991 0.307710 0.763602 0.240262
H73   H     H_    0.177304 0.361380 0.744902 0.232963
C62   C     C_3   0.110825 0.424327 0.849243 -0.869925
H74   H     H_    0.145154 0.494573 0.848357 0.243809
H75   H     H_    0.147341 0.377479 0.894810 0.271255
H76   H     H_    0.042437 0.435877 0.869851 0.274842

loop_
_geom_bond_atom_site_label_1
_geom_bond_atom_site_label_2
_geom_bond_distance
_ccdc_geom_bond_type
C13   S10   1.863757 S    
C5    C8    1.624652 S    
C18   C20   1.397491 A    
C9    C14   1.202315 T    
S9    O39   1.501584 D    
C2    C16   1.436486 S    
S7    O34   1.500373 D    
C40   H14   1.109572 S    
C40   H13   1.111723 S    
C33   C35   1.417560 A    
O38   H58   0.990807 S    
C41   H17   1.110815 S    
C62   H74   1.109043 S    
C6    O26   1.444121 S    
C42   C43   1.527035 S    
C52   H44   1.098167 S    
O47   H61   0.990425 S    
O51   C57   1.416108 S    
O25   C51   1.432917 S    
S11   O46   1.490538 D    
O44   H60   0.990838 S    
C49   H36   1.110353 S    
Cu1   O7    1.942914 S    
C46   H30   1.111280 S    
C17   C22   1.402192 A    
C29   C37   1.420848 A    
O23   C45   1.413600 S    
C5    O25   1.442347 S    
C4    C9    1.423818 S    
C43   H21   1.111563 S    
Cu1   N2    2.015514 S    
C24   C26   1.391312 A    
C56   H53   1.110116 S    
O4    C2    1.301344 A    
O7    C4    1.287346 A    
S10   O42   1.497444 D    
S4    O22   1.673984 S    
O52   C60   1.416778 S    
C7    H2    1.104770 S    
C47   H31   1.111025 S    
C45   C46   1.528078 S    
C60   H71   1.119349 S    
C8    H1    1.078074 S    
C11   C14   1.477024 S    
C58   H66   1.111314 S    
O5    C3    1.306429 A    
S5    O28   1.492758 D    
C5    C10   1.682043 S    
C18   O52   1.383843 S    
O22   H26   0.987971 S    
C58   C59   1.526581 S    
S12   O49   1.481793 D    
C6    C7    1.596029 S    
S6    O32   1.681745 S    
S4    O21   1.504660 D    
C33   S3    1.782980 S    
C11   C12   1.601636 S    
C19   H3    1.074355 S    
C39   H11   1.111172 S    
C34   S4    1.777302 S    
S12   O50   1.683980 S    
C48   C49   1.539372 S    
C32   H8    1.068742 S    
S1    O9    1.498156 D    
S9    O40   1.490915 D    
O6    C3    1.290797 A    
C30   C38   1.409324 A    
S7    O35   1.684802 S    
C25   C27   1.433542 A    
C45   H27   1.110581 S    
O3    Cu1   1.933694 S    
O24   C48   1.417534 S    
C42   H19   1.115821 S    
N2    C34   1.387510 A    
S5    O27   1.505141 D    
S11   O47   1.683923 S    
C30   C32   1.414917 A    
C41   H15   1.110431 S    
C50   H39   1.110593 S    
C23   H5    1.083299 S    
C46   C47   1.526713 S    
C34   C36   1.418238 A    
S1    O10   1.503693 D    
C29   O15   1.389320 S    
O14   H10   0.990396 S    
C59   H69   1.110376 S    
C62   H76   1.111215 S    
C54   H48   1.107992 S    
C43   H20   1.111827 S    
C25   S1    1.781887 S    
O3    C2    1.292413 A    
S8    O38   1.680572 S    
C56   H54   1.110446 S    
S3    O17   1.497468 D    
Cu1   Cu2   2.682993 S    
C61   H72   1.112000 S    
C31   N1    1.373832 A    
C13   S9    1.862170 S    
C10   C13   1.701327 S    
C42   H18   1.112166 S    
C8    C11   1.611572 S    
C6    S5    1.866678 S    
N1    C33   1.385086 A    
C20   H4    1.083415 S    
C60   C61   1.529761 S    
C53   H46   1.110391 S    
O50   H62   0.990583 S    
S2    O14   1.682588 S    
C24   C28   1.385663 A    
O11   H9    0.990411 S    
S3    O18   1.505180 D    
C62   H75   1.110916 S    
C60   H70   1.111869 S    
C1    C21   1.452857 S    
Cu2   O8    1.933770 S    
S4    O20   1.501717 D    
C39   C40   1.525631 S    
O19   H25   0.990844 S    
C7    C11   1.624463 S    
C12   C13   1.655988 S    
C45   H28   1.117288 S    
Cu2   N1    2.015510 S    
S2    O13   1.499067 D    
C54   C55   1.531506 S    
C55   H51   1.111585 S    
C49   H37   1.111349 S    
C51   C52   1.534468 S    
C17   O51   1.382973 S    
Cu2   O6    1.954278 S    
O41   H59   0.990741 S    
O8    C4    1.298224 A    
S9    O41   1.684155 S    
C10   C15   1.482112 S    
C44   H23   1.110326 S    
O35   H57   0.990723 S    
C40   C41   1.527351 S    
C19   C21   1.397248 A    
C22   C28   1.453393 S    
C53   H47   1.110939 S    
C26   C27   1.426334 A    
C57   H64   1.118338 S    
C52   H43   1.109619 S    
C7    S7    1.834534 S    
C26   S2    1.770413 S    
C3    C27   1.476132 S    
S5    O29   1.679913 S    
S12   O48   1.501848 D    
C51   H42   1.104400 S    
C48   H34   1.110781 S    
C50   H40   1.110750 S    
C58   H65   1.111688 S    
C54   H49   1.102548 S    
C49   C50   1.525781 S    
S1    O11   1.681284 S    
C6    C10   1.649691 S    
O1    Cu1   1.954145 S    
S8    O37   1.497835 D    
O2    Cu2   1.952343 S    
C20   C21   1.398114 A    
C41   H16   1.109833 S    
O16   C42   1.410594 S    
C55   C56   1.522374 S    
O4    Cu2   1.942796 S    
C50   H38   1.110648 S    
C47   H32   1.109414 S    
O26   C54   1.426269 S    
C43   C44   1.526189 S    
C31   H7    1.080845 S    
C46   H29   1.112019 S    
C35   O23   1.388580 S    
C47   H33   1.111075 S    
C18   C22   1.405048 A    
C59   H67   1.108962 S    
C57   C58   1.531324 S    
C35   C37   1.409487 A    
C53   H45   1.111020 S    
C57   H63   1.111592 S    
C52   C53   1.526573 S    
C17   C19   1.391602 A    
S11   O45   1.498022 D    
C56   H52   1.105118 S    
S8    O36   1.502580 D    
S3    O19   1.674475 S    
C24   H6    1.084729 S    
C37   C38   1.520629 S    
S10   O43   1.491502 D    
C23   C28   1.386265 A    
C61   C62   1.525359 S    
C12   S12   1.862829 S    
S2    O12   1.502744 D    
C36   C38   1.413530 A    
O2    C1    1.289242 A    
S6    O31   1.497465 D    
O29   H55   0.990901 S    
C23   C25   1.394828 A    
O15   C39   1.417939 S    
C8    S8    1.846125 S    
C55   H50   1.110666 S    
Cu1   O5    1.952478 S    
C32   N2    1.371411 A    
C29   C31   1.419602 A    
C44   H22   1.110869 S    
C61   H73   1.111195 S    
C44   H24   1.110997 S    
C15   C16   1.209954 T    
S6    O30   1.497240 D    
C39   H12   1.107138 S    
C30   O16   1.381488 S    
O1    C1    1.297644 A    
O32   H56   0.990958 S    
S7    O33   1.500449 D    
C12   S11   1.868173 S    
C36   O24   1.391178 S    
C5    S6    1.865668 S    
C59   H68   1.109280 S    
C51   H41   1.109344 S    
C48   H35   1.107136 S    
S10   O44   1.683448 S    
