data_mof_unit_25039.cif
_audit_creation_date              2012-10-26T20:42:27-0400
_audit_creation_method            fapswitch 2.2
_symmetry_space_group_name_H-M    P1
_symmetry_Int_Tables_number       1
_space_group_crystal_system       triclinic
_cell_length_a                    10.829314
_cell_length_b                    9.664893
_cell_length_c                    10.898906
_cell_angle_alpha                 89.033693
_cell_angle_beta                  92.225362
_cell_angle_gamma                 90.000769
_cell_volume                      1139.70220779

loop_
_atom_site_label
_atom_site_type_symbol
_atom_type_description
_atom_site_fract_x
_atom_site_fract_y
_atom_site_fract_z
_atom_type_partial_charge
C1    C     C_R   0.262544 0.500098 0.500927 0.538567
C2    C     C_R   0.936558 0.375438 0.507828 -0.145787
C3    C     C_R   0.871565 0.500586 0.498866 0.018326
C4    C     C_R   0.128492 0.500693 0.501690 0.017058
C5    C     C_R   0.935731 0.626168 0.490692 -0.138548
C6    C     C_R   0.063648 0.626157 0.491227 -0.139854
C7    C     C_R   0.442074 0.071345 0.404765 0.121668
C8    C     C_R   0.556350 0.067536 0.595546 0.123353
C9    C     C_R   0.438783 0.924337 0.410478 0.010826
C10   C     C_R   0.561386 0.921102 0.589209 0.014493
C11   C     C_3   0.384984 0.128892 0.283853 -0.226441
C12   C     C_R   0.737478 0.500099 0.499260 0.538790
C13   C     C_3   0.260843 0.201612 0.294105 -0.379989
C14   C     C_3   0.604368 0.119868 0.719204 -0.234131
C15   C     C_3   0.731707 0.187458 0.717166 -0.402306
C16   C     C_R   0.503013 0.501492 0.265852 0.546145
C17   C     C_R   0.500327 0.499211 0.734342 0.546560
C18   C     C_2   0.558362 0.407784 0.936713 -0.170110
C19   C     C_2   0.552102 0.402503 0.070497 -0.162800
C20   C     C_2   0.494062 0.499146 0.866319 -0.113577
C21   C     C_2   0.510320 0.508637 0.133960 -0.120209
C22   C     C_R   0.064221 0.375680 0.511996 -0.145644
Cu1   Cu    Cu3+1 0.500000 0.640660 0.500000 0.924796
Cu2   Cu    Cu3+1 0.500000 0.359340 0.500000 0.927467
H1    H     H_    0.617543 0.332932 0.895921 0.127073
H2    H     H_    0.610112 0.860102 0.659860 0.122677
H3    H     H_    0.213959 0.164983 0.377133 0.144321
H4    H     H_    0.272292 0.315262 0.292834 0.183512
H5    H     H_    0.199421 0.177653 0.213174 0.107657
H6    H     H_    0.451526 0.185883 0.229231 0.162570
H7    H     H_    0.365083 0.042762 0.219537 0.075939
H8    H     H_    0.788326 0.139231 0.646822 0.137626
H9    H     H_    0.724656 0.300362 0.702502 0.186211
H10   H     H_    0.780896 0.171690 0.807714 0.106859
H11   H     H_    0.533231 0.176879 0.766507 0.168523
H12   H     H_    0.587579 0.310195 0.117656 0.132255
H13   H     H_    0.616747 0.031602 0.785506 0.079962
H14   H     H_    0.435497 0.577226 0.904055 0.097321
H15   H     H_    0.487755 0.607541 0.090542 0.099900
H16   H     H_    0.112084 0.277965 0.523757 0.123381
H17   H     H_    0.889261 0.277226 0.511949 0.124223
H18   H     H_    0.887427 0.724265 0.483165 0.130680
H19   H     H_    0.111394 0.724208 0.483413 0.129228
H20   H     H_    0.390125 0.865469 0.340173 0.117642
N1    N     N_R   0.500000 0.852070 0.500000 -0.254409
N2    N     N_R   0.500000 0.147940 0.500000 -0.201916
O1    O     O_R   0.319640 0.618740 0.499990 -0.504533
O2    O     O_R   0.680360 0.618740 0.500010 -0.504343
O3    O     O_R   0.319620 0.381170 0.499990 -0.508217
O4    O     O_R   0.680380 0.381170 0.500010 -0.508531
O5    O     O_R   0.500000 0.618750 0.321940 -0.505221
O6    O     O_R   0.500000 0.618750 0.678060 -0.503738
O7    O     O_R   0.499970 0.381180 0.321940 -0.508337
O8    O     O_R   0.500030 0.381180 0.678060 -0.506967

loop_
_geom_bond_atom_site_label_1
_geom_bond_atom_site_label_2
_ccdc_geom_bond_type
C2    C22   A    
C12   O4    A    
C5    H18   S    
C13   H4    S    
C9    N1    A    
C16   C21   S    
Cu1   N1    S    
C4    C22   A    
C15   H10   S    
Cu1   O5    S    
C21   H15   S    
C16   O5    A    
C12   O2    A    
C1    C4    S    
C22   H16   S    
C10   H2    S    
C10   N1    A    
C2    C3    A    
Cu2   O7    S    
C11   H7    S    
C15   H8    S    
Cu1   O2    S    
C14   H13   S    
C7    C11   S    
C11   C13   S    
Cu1   O6    S    
C18   H1    S    
C17   O6    A    
C8    C10   A    
C19   C21   D    
C18   C20   D    
C6    H19   S    
Cu2   O4    S    
C5    C6    A    
C8    N2    A    
Cu1   O1    S    
C2    H17   S    
Cu2   O8    S    
C7    N2    A    
Cu2   O3    S    
C17   C20   S    
C20   H14   S    
C4    C6    A    
C18   C19   S    
C13   H5    S    
C14   H11   S    
C7    C9    A    
C14   C15   S    
C1    O1    A    
C9    H20   S    
C8    C14   S    
C3    C12   S    
Cu1   Cu2   S    
C19   H12   S    
C16   O7    A    
C1    O3    A    
C17   O8    A    
C15   H9    S    
C13   H3    S    
C11   H6    S    
Cu2   N2    S    
C3    C5    A    
