data_mof_unit_42075.cif
_audit_creation_date              2012-12-11T14:58:32-0500
_audit_creation_method            fapswitch 2.2
_symmetry_space_group_name_H-M    P1
_symmetry_Int_Tables_number       1
_space_group_crystal_system       triclinic
_cell_length_a                    10.921249
_cell_length_b                    10.934947
_cell_length_c                    18.717447
_cell_angle_alpha                 90.276629
_cell_angle_beta                  90.556505
_cell_angle_gamma                 60.059118
_cell_volume                      1936.88642599

loop_
_atom_site_label
_atom_site_type_symbol
_atom_type_description
_atom_site_fract_x
_atom_site_fract_y
_atom_site_fract_z
_atom_type_partial_charge
C1    C     C_R   0.357322 0.775373 0.397913 0.541310
C2    C     C_R   0.242787 0.443887 0.198328 -0.151263
C3    C     C_R   0.243738 0.450774 0.272653 -0.039191
C4    C     C_R   0.387301 0.356268 0.386742 0.532574
C5    C     C_R   0.873985 0.788328 0.371609 -0.113810
C6    C     C_R   0.930316 0.650584 0.396931 -0.096415
C7    C     C_R   0.048675 0.539769 0.364319 -0.044781
C8    C     C_R   0.115333 0.566541 0.307459 0.063241
C9    C     C_R   0.366176 0.348711 0.309962 -0.000934
C10   C     C_R   0.955420 0.300352 0.308282 -0.150497
C11   C     C_R   0.984112 0.292672 0.235957 -0.114511
C12   C     C_R   0.617518 0.147927 0.159974 0.006338
C13   C     C_R   0.874477 0.332942 0.185789 0.037371
C14   C     C_R   0.734882 0.390239 0.207157 -0.153112
C15   C     C_R   0.705666 0.401492 0.279442 -0.110298
C16   C     C_R   0.778507 0.378109 0.403453 0.530874
C17   C     C_R   0.816220 0.354947 0.329636 0.043979
C18   C     C_R   0.450384 0.836767 0.291226 -0.138270
C19   C     C_R   0.430674 0.879955 0.219955 -0.140577
C20   C     C_R   0.296172 0.937948 0.188724 0.018488
C21   C     C_R   0.180173 0.964158 0.231034 -0.146882
C22   C     C_R   0.198852 0.925457 0.302178 -0.144436
C23   C     C_R   0.358660 0.339005 0.160857 -0.003205
C24   C     C_R   0.334816 0.853485 0.331479 0.022166
C25   C     C_R   0.376687 0.199623 0.692685 -0.139363
C26   C     C_R   0.365353 0.185961 0.764927 -0.122968
C27   C     C_R   0.297564 0.306553 0.808587 0.031705
C28   C     C_R   0.344984 0.769171 0.604705 0.546525
C29   C     C_R   0.229896 0.441074 0.778844 -0.159740
C30   C     C_R   0.239864 0.454936 0.706008 -0.135588
C31   C     C_R   0.319713 0.334002 0.663639 0.029969
C32   C     C_R   0.908095 0.394561 0.707421 -0.130814
C33   C     C_R   0.945155 0.376089 0.778907 -0.131072
C34   C     C_R   0.486761 0.254153 0.271262 -0.150526
C35   C     C_R   0.922528 0.283411 0.820569 0.028621
C36   C     C_R   0.872802 0.200114 0.788527 -0.136015
C37   C     C_R   0.833260 0.220188 0.716628 -0.136749
C38   C     C_R   0.844494 0.322770 0.676834 0.027193
C39   C     C_R   0.195857 0.849196 0.711049 -0.137576
C40   C     C_R   0.368424 0.350496 0.595135 0.546563
C41   C     C_R   0.185820 0.858665 0.784413 -0.138249
C42   C     C_R   0.300972 0.841908 0.825571 0.032934
C43   C     C_R   0.428166 0.810296 0.792792 -0.142245
C44   C     C_R   0.438875 0.799135 0.719257 -0.141482
C45   C     C_R   0.486727 0.251839 0.197287 -0.025028
C46   C     C_R   0.323035 0.817292 0.678043 0.030189
C47   C     C_R   0.910576 0.316201 0.111704 0.532019
C48   C     C_R   0.329574 0.296342 0.091473 0.540219
C49   C     C_R   0.271262 0.964181 0.111997 0.566031
C50   C     C_R   0.948732 0.280421 0.897162 0.575303
C51   C     C_R   0.292866 0.285125 0.884012 0.542079
C52   C     C_R   0.768864 0.373627 0.609114 0.547203
C53   C     C_R   0.275999 0.892672 0.898289 0.549965
C54   C     C_R   0.833323 0.941159 0.075506 -0.089038
C55   C     C_R   0.767972 0.082690 0.055624 -0.116784
C56   C     C_R   0.057277 0.706022 0.282432 -0.039509
C57   C     C_R   0.661871 0.186111 0.097867 -0.080206
C58   C     C_3   0.768817 0.714109 0.104737 -0.101568
C59   C     C_R   0.937279 0.815936 0.314308 -0.084967
C60   C     C_R   0.685686 0.005629 0.180458 -0.079084
C61   C     C_R   0.789848 0.902089 0.137305 0.270208
Cr1   Cr    Cr6+3 0.601770 0.606860 0.505860 0.996313
Cr2   Cr    Cr6+3 0.291380 0.601660 0.495070 1.014630
Cr3   Cr    Cr6+3 0.606880 0.291510 0.499120 1.006347
Cr4   Cr    Cr6+3 0.062440 0.063090 0.008210 0.976439
Cr5   Cr    Cr6+3 0.062880 0.375170 0.998920 0.984748
Cr6   Cr    Cr6+3 0.374700 0.061720 0.992470 0.992631
H1    H     H_    0.585117 0.183726 0.298554 0.140115
H2    H     H_    0.521022 0.859465 0.188448 0.133500
H3    H     H_    0.074832 0.009950 0.208200 0.141788
H4    H     H_    0.107996 0.943249 0.332937 0.131768
H5    H     H_    0.436879 0.105931 0.660462 0.122293
H6    H     H_    0.412999 0.080497 0.786945 0.140769
H7    H     H_    0.173950 0.534221 0.811919 0.117278
H8    H     H_    0.194681 0.560364 0.684100 0.140929
H9    H     H_    0.920203 0.472406 0.677495 0.129663
H10   H     H_    0.984784 0.440003 0.802661 0.135452
H11   H     H_    0.856909 0.126022 0.819631 0.123565
H12   H     H_    0.781960 0.873800 0.396715 0.105823
H13   H     H_    0.785129 0.162909 0.693781 0.131316
H14   H     H_    0.105478 0.861979 0.680440 0.127284
H15   H     H_    0.894224 0.922889 0.295006 0.100588
H16   H     H_    0.085674 0.885506 0.808458 0.125255
H17   H     H_    0.517529 0.799008 0.823812 0.125978
H18   H     H_    0.539125 0.771658 0.695086 0.135023
H19   H     H_    0.912788 0.861335 0.041385 0.108763
H20   H     H_    0.795933 0.111794 0.006063 0.156372
H21   H     H_    0.608342 0.294630 0.079789 0.105562
H22   H     H_    0.105719 0.730034 0.238547 0.123700
H23   H     H_    0.883190 0.630105 0.442492 0.131545
H24   H     H_    0.650276 0.973296 0.226781 0.112946
H25   H     H_    0.145739 0.514522 0.170031 0.174054
H26   H     H_    0.836296 0.664920 0.057332 0.152231
H27   H     H_    0.662391 0.797582 0.085800 0.111892
H28   H     H_    0.751513 0.635506 0.133152 0.166159
H29   H     H_    0.091320 0.434077 0.385096 0.093559
H30   H     H_    0.040485 0.264278 0.347096 0.096488
H31   H     H_    0.092022 0.252910 0.218843 0.118142
H32   H     H_    0.649515 0.427618 0.168460 0.101724
H33   H     H_    0.596811 0.448467 0.296507 0.125009
H34   H     H_    0.556771 0.781617 0.313026 0.144390
O1    O     O_R   0.748800 0.497470 0.428000 -0.530018
O2    O     O_R   0.417600 0.174890 0.067840 -0.511350
O3    O     O_R   0.375320 0.946260 0.070860 -0.511218
O4    O     O_R   0.476420 0.724060 0.429470 -0.508033
O5    O     O_R   0.160600 0.919630 0.926660 -0.532991
O6    O     O_R   0.933060 0.190520 0.936020 -0.528383
O7    O     O_R   0.908880 0.403460 0.925020 -0.524750
O8    O     O_R   0.179600 0.361450 0.918490 -0.525532
O9    O     O_R   0.391510 0.170860 0.907530 -0.524084
O10   O     O_R   0.351130 0.942530 0.922260 -0.508158
O11   O     O_3   0.166667 0.166667 0.999870 -0.283469
O12   O     O_R   0.300070 0.471040 0.567100 -0.510667
O13   O     O_R   0.264580 0.744340 0.416750 -0.512347
O14   O     O_R   0.309380 0.472470 0.418200 -0.496967
O15   O     O_R   0.501710 0.260430 0.414300 -0.531096
O16   O     O_R   0.728090 0.305600 0.428960 -0.506828
O17   O     O_R   0.738760 0.495930 0.588610 -0.529862
O18   O     O_R   0.467110 0.722640 0.578360 -0.506399
O19   O     O_R   0.254530 0.742800 0.577360 -0.528732
O20   O     O_3   0.837051 0.762301 0.152171 -0.588351
O21   O     O_R   0.491670 0.258900 0.574910 -0.518425
O22   O     O_R   0.718780 0.304180 0.577850 -0.502121
O23   O     O_3   0.500010 0.500010 0.500020 -0.241840
O24   O     O_R   0.186690 0.923650 0.086970 -0.513183
O25   O     O_R   0.957250 0.194250 0.084630 -0.520311
O26   O     O_R   0.934970 0.407490 0.085330 -0.528680
O27   O     O_R   0.203780 0.365190 0.067090 -0.504554

loop_
_geom_bond_atom_site_label_1
_geom_bond_atom_site_label_2
_ccdc_geom_bond_type
C25   C31   A    
C23   C45   A    
C27   C29   A    
C41   C42   A    
C22   H4    S    
C4    O14   A    
C35   C36   A    
C59   H15   S    
C15   H33   S    
C43   C44   A    
C8    C56   A    
C49   O3    A    
Cr1   O23   S    
Cr2   O23   S    
Cr6   O2    S    
C14   H32   S    
C39   C41   A    
Cr1   O4    S    
C31   C40   S    
C7    H29   S    
C28   C46   S    
C26   C27   A    
C29   C30   A    
C11   H31   S    
Cr3   O15   S    
C5    C6    A    
C36   C37   A    
C37   C38   A    
C42   C53   S    
C30   C31   A    
C52   O22   A    
C38   C52   S    
C10   C17   A    
C41   H16   S    
C26   H6    S    
Cr5   O26   S    
C61   O20   S    
C18   C19   A    
C58   H26   S    
Cr2   O13   S    
C13   C47   S    
C53   O5    A    
C19   C20   A    
C27   C51   S    
C16   C17   S    
C32   C38   A    
C5    H12   S    
Cr2   O14   S    
C53   O10   A    
C51   O8    A    
C21   C22   A    
C50   O7    A    
C43   H17   S    
C44   C46   A    
Cr6   O3    S    
C37   H13   S    
C5    C59   A    
C7    C8    A    
C39   H14   S    
C3    C8    S    
C28   O19   A    
C34   H1    S    
C25   H5    S    
C29   H7    S    
C25   C26   A    
Cr3   O23   S    
C48   O2    A    
Cr3   O16   S    
C60   C61   A    
C18   H34   S    
Cr4   O24   S    
C10   H30   S    
C58   H28   S    
Cr4   O11   S    
C20   C49   S    
C3    C9    A    
C48   O27   A    
Cr6   O9    S    
C40   O12   A    
C35   C50   S    
C34   C45   A    
C2    H25   S    
Cr1   O18   S    
C39   C46   A    
C12   C57   A    
C16   O1    A    
C56   H22   S    
C51   O9    A    
C55   C57   A    
C50   O6    A    
C18   C24   A    
C19   H2    S    
C42   C43   A    
C44   H18   S    
Cr4   O5    S    
C49   O24   A    
C47   O25   A    
C54   H19   S    
C60   H24   S    
Cr6   O10   S    
C15   C17   A    
C54   C55   A    
C58   O20   S    
C23   C48   S    
C4    O15   A    
Cr5   O7    S    
C12   C45   S    
C28   O18   A    
C32   H9    S    
C57   H21   S    
C47   O26   A    
C6    C7    A    
C54   C61   A    
Cr3   O22   S    
C40   O21   A    
C56   C59   A    
C21   H3    S    
Cr4   O25   S    
C2    C3    A    
C58   H27   S    
C6    H23   S    
C16   O16   A    
C32   C33   A    
Cr2   O19   S    
C11   C13   A    
C33   H10   S    
C9    C34   A    
Cr3   O21   S    
C33   C35   A    
Cr5   O27   S    
Cr2   O12   S    
C22   C24   A    
Cr5   O8    S    
C55   H20   S    
Cr1   O17   S    
C10   C11   A    
C12   C60   A    
Cr6   O11   S    
C30   H8    S    
C20   C21   A    
C1    C24   S    
C1    O13   A    
C2    C23   A    
C14   C15   A    
C36   H11   S    
Cr5   O11   S    
C4    C9    S    
C13   C14   A    
Cr4   O6    S    
C1    O4    A    
Cr1   O1    S    
C52   O17   A    
