data_mof_unit_55697.cif
_audit_creation_date              2012-12-10T17:47:38-0500
_audit_creation_method            fapswitch 2.2
_symmetry_space_group_name_H-M    P1
_symmetry_Int_Tables_number       1
_space_group_crystal_system       triclinic
_cell_length_a                    10.638301
_cell_length_b                    10.657372
_cell_length_c                    9.890501
_cell_angle_alpha                 90.617227
_cell_angle_beta                  89.769941
_cell_angle_gamma                 91.138447
_cell_volume                      1121.05421232

loop_
_atom_site_label
_atom_site_type_symbol
_atom_type_description
_atom_site_fract_x
_atom_site_fract_y
_atom_site_fract_z
_atom_type_partial_charge
Br1   Br    Br    0.306053 0.773609 0.790292 -0.566674
C1    C     C_R   0.509264 0.259847 0.499790 0.891077
C2    C     C_R   0.525667 0.060552 0.624067 0.071078
C3    C     C_R   0.513386 0.125269 0.500740 -0.083414
C4    C     C_R   0.257726 0.498972 0.499874 0.844491
C5    C     C_R   0.479238 0.061458 0.381865 -0.201863
C6    C     C_R   0.458559 0.934315 0.384388 -0.211672
C7    C     C_R   0.461730 0.871662 0.507531 -0.111185
C8    C     C_R   0.338674 0.333274 0.139034 -0.178254
C9    C     C_R   0.260010 0.250520 0.067983 -0.210914
C10   C     C_R   0.259369 0.251184 0.928171 -0.166859
C11   C     C_R   0.337637 0.334382 0.858652 -0.128826
C12   C     C_3   0.878434 0.497951 0.498484 0.151661
C13   C     C_R   0.420217 0.418109 0.927088 0.165982
C14   C     C_R   0.420475 0.417877 0.071784 0.167764
C15   C     C_R   0.575995 0.578638 0.072145 -0.122613
C16   C     C_R   0.483817 0.738743 0.501743 0.903507
C17   C     C_R   0.576037 0.578530 0.928875 -0.084994
C18   C     C_R   0.742182 0.499565 0.499523 0.837058
C19   C     C_3   0.068441 0.375803 0.569705 -0.159231
C20   C     C_3   0.923268 0.377053 0.568019 -0.447407
C21   C     C_3   0.074024 0.613090 0.577976 -0.385919
C22   C     C_3   0.071631 0.504474 0.351258 -0.361847
C23   C     C_3   0.930041 0.615272 0.575327 -0.413719
C24   C     C_3   0.121060 0.496549 0.498906 0.063625
C25   C     C_2   0.118128 0.254528 0.510170 0.875758
C26   C     C_3   0.928954 0.499750 0.350914 -0.371383
C27   C     C_R   0.583599 0.113291 0.740764 -0.165133
C28   C     C_R   0.567442 0.057055 0.866271 -0.196848
C29   C     C_R   0.490732 0.950550 0.877467 -0.181846
C30   C     C_R   0.441473 0.892279 0.761410 0.303894
C31   C     C_R   0.473880 0.939414 0.631328 0.057665
H1    H     H_    0.098171 0.380280 0.677697 0.128539
H2    H     H_    0.638037 0.642846 0.126540 0.142738
H3    H     H_    0.332082 0.328288 0.246126 0.217316
H4    H     H_    0.198584 0.185972 0.121765 0.176174
H5    H     H_    0.197374 0.187300 0.873086 0.190243
H6    H     H_    0.330214 0.330480 0.751723 0.228498
H7    H     H_    0.637974 0.642767 0.875322 0.143057
H8    H     H_    0.882888 0.293105 0.514552 0.179258
H9    H     H_    0.887524 0.373428 0.673932 0.165506
H10   H     H_    0.105273 0.609863 0.685005 0.226565
H11   H     H_    0.893536 0.617569 0.680986 0.187478
H12   H     H_    0.894105 0.583110 0.296478 0.170827
H13   H     H_    0.104839 0.594004 0.304728 0.179966
H14   H     H_    0.107698 0.427256 0.286527 0.220015
H15   H     H_    0.895780 0.414242 0.294771 0.202848
H16   H     H_    0.119775 0.130747 0.354672 0.337656
H17   H     H_    0.113371 0.700972 0.533187 0.193190
H18   H     H_    0.898907 0.702188 0.524902 0.170712
H19   H     H_    0.469722 0.109196 0.286373 0.167042
H20   H     H_    0.641795 0.197554 0.736007 0.158129
H21   H     H_    0.608579 0.100102 0.955775 0.154478
H22   H     H_    0.467818 0.914458 0.976678 0.161279
H23   H     H_    0.443233 0.884771 0.289411 0.169815
N1    N     N_R   0.498810 0.498800 0.142780 -0.120276
N2    N     N_R   0.498760 0.498720 0.857170 -0.110625
O1    O     O_R   0.500000 0.316780 0.614690 -0.641066
O2    O     O_R   0.080889 0.213500 0.381468 -0.833371
O3    O     O_R   0.499990 0.316750 0.385360 -0.645869
O4    O     O_R   0.314800 0.499990 0.614670 -0.615356
O5    O     O_R   0.314790 0.499970 0.385330 -0.646494
O6    O     O_R   0.500010 0.683250 0.614640 -0.588168
O7    O     O_R   0.500000 0.683220 0.385310 -0.622883
O8    O     O_R   0.685210 0.500030 0.614670 -0.633800
O9    O     O_R   0.685200 0.500010 0.385330 -0.627275
O10   O     O_2   0.189507 0.191194 0.576402 -0.658436
Zn1   Zn    Zn3+2 0.500010 0.500020 0.653130 0.956614
Zn2   Zn    Zn3+2 0.499990 0.499980 0.346870 0.932719

loop_
_geom_bond_atom_site_label_1
_geom_bond_atom_site_label_2
_ccdc_geom_bond_type
C2    C31   A    
C1    C3    S    
C10   C11   A    
C1    O1    A    
C28   C29   A    
C22   H13   S    
C22   C26   S    
C5    H19   S    
C27   H20   S    
C8    C9    A    
C17   N2    A    
C7    C16   S    
C6    H23   S    
C17   H7    S    
O8    Zn1   S    
C14   N1    A    
C15   N1    A    
C8    C14   A    
C4    O4    A    
C6    C7    A    
C22   H14   S    
O7    Zn2   S    
C16   O6    A    
C11   H6    S    
C29   H22   S    
O4    Zn1   S    
C21   H10   S    
C20   H8    S    
C28   H21   S    
O3    Zn2   S    
H16   O2    S    
C21   H17   S    
C4    C24   S    
C25   O10   D    
C21   C23   S    
O1    Zn1   S    
C27   C28   A    
N1    Zn2   S    
C11   C13   A    
C4    O5    A    
C18   O8    A    
C5    C6    A    
C1    O3    A    
C22   C24   S    
C16   O7    A    
C23   H18   S    
C29   C30   A    
C23   H11   S    
C20   H9    S    
O9    Zn2   S    
C19   C24   S    
C19   H1    S    
N2    Zn1   S    
C12   C20   S    
C2    C3    A    
C7    C31   A    
Br1   C30   S    
C19   C20   S    
O5    Zn2   S    
C18   O9    A    
C8    H3    S    
C3    C5    A    
C9    C10   A    
C26   H15   S    
C10   H5    S    
C13   N2    A    
C12   C18   S    
C13   C14   A    
C2    C27   A    
C25   O2    S    
C9    H4    S    
C15   H2    S    
O6    Zn1   S    
C26   H12   S    
C15   C17   A    
C12   C26   S    
C30   C31   A    
C12   C23   S    
C19   C25   S    
C21   C24   S    
