data_mof_unit_8473.cif
_audit_creation_date              2012-12-10T18:05:55-0500
_audit_creation_method            fapswitch 2.2
_symmetry_space_group_name_H-M    P1
_symmetry_Int_Tables_number       1
_space_group_crystal_system       triclinic
_cell_length_a                    12.717017
_cell_length_b                    13.119485
_cell_length_c                    14.94762
_cell_angle_alpha                 92.663314
_cell_angle_beta                  102.641
_cell_angle_gamma                 81.55577
_cell_volume                      2406.77576906

loop_
_atom_site_label
_atom_site_type_symbol
_atom_type_description
_atom_site_fract_x
_atom_site_fract_y
_atom_site_fract_z
_atom_type_partial_charge
C1    C     C_R   0.438909 0.690950 0.487232 0.832617
C2    C     C_R   0.413958 0.465055 0.075525 0.151236
C3    C     C_R   0.644647 0.613918 0.078531 0.525799
C4    C     C_R   0.647916 0.608898 0.985699 -0.317700
C5    C     C_R   0.573631 0.557762 0.923227 0.036302
C6    C     C_R   0.494607 0.510942 0.953170 0.057369
C7    C     C_R   0.419215 0.459526 0.890522 0.136868
C8    C     C_R   0.341107 0.412822 0.920279 -0.221541
C9    C     C_R   0.338515 0.415546 0.012674 -0.220800
C10   C     C_R   0.576912 0.552498 0.830983 -0.222033
C11   C     C_R   0.501626 0.501867 0.769281 -0.067190
C12   C     C_R   0.501006 0.500299 0.672936 0.869731
C13   C     C_R   0.423417 0.455300 0.798899 -0.256161
C14   C     C_R   0.700311 0.056769 0.438905 -0.224741
C15   C     C_R   0.596389 0.198546 0.504093 -0.054723
C16   C     C_R   0.305529 0.839885 0.510947 -0.199585
C17   C     C_R   0.276741 0.945339 0.519935 -0.163837
C18   C     C_R   0.346733 0.012077 0.505832 -0.192986
C19   C     C_R   0.445803 0.973606 0.479246 0.086102
C20   C     C_R   0.464850 0.868564 0.455013 0.083825
C21   C     C_R   0.527590 0.035207 0.477518 0.080047
C22   C     C_R   0.618845 0.995626 0.439751 0.182461
C23   C     C_R   0.561025 0.308722 0.509790 0.880935
C24   C     C_R   0.626850 0.896120 0.402794 -0.258097
C25   C     C_R   0.550339 0.833333 0.409740 -0.205974
C26   C     C_R   0.522395 0.134556 0.514604 -0.269686
C27   C     C_R   0.688763 0.158476 0.470610 -0.188242
C28   C     C_R   0.399836 0.800866 0.479526 -0.108018
C29   C     C_R   0.117736 0.307307 0.426848 -0.286298
C30   C     C_R   0.794482 0.638737 0.601994 0.023740
C31   C     C_R   0.897053 0.669390 0.625112 -0.285636
C32   C     C_R   0.981967 0.614552 0.590515 -0.110182
C33   C     C_R   0.964576 0.528825 0.531472 -0.040904
C34   C     C_R   0.497544 0.503172 0.327116 0.878097
C35   C     C_R   0.859413 0.497283 0.512016 0.114945
C36   C     C_R   0.048437 0.471154 0.492944 -0.129015
C37   C     C_R   0.035454 0.370192 0.459291 0.062135
C38   C     C_R   0.936576 0.335826 0.449736 -0.357698
C39   C     C_R   0.845113 0.405709 0.457767 0.513079
C40   C     C_R   0.143354 0.509283 0.482799 0.625888
C41   C     C_R   0.211692 0.346318 0.424595 -0.096872
C42   C     C_R   0.414428 0.464225 0.168029 -0.255540
C43   C     C_R   0.492232 0.510657 0.230602 -0.107759
C44   C     C_R   0.567221 0.562166 0.201464 -0.245438
C45   C     C_R   0.568152 0.564233 0.108975 -0.011952
C46   C     C_R   0.491869 0.514032 0.045828 -0.006159
H1    H     H_    0.356514 0.424630 0.191455 0.159474
H2    H     H_    0.693574 0.865971 0.370361 0.147193
H3    H     H_    0.770746 0.027100 0.410955 0.132168
H4    H     H_    0.458462 0.166171 0.549060 0.148855
H5    H     H_    0.256456 0.788794 0.532190 0.193313
H6    H     H_    0.320673 0.093086 0.515372 0.131236
H7    H     H_    0.202648 0.975245 0.542409 0.143360
H8    H     H_    0.559138 0.756727 0.379721 0.165044
H9    H     H_    0.277396 0.297574 0.402026 0.165476
H10   H     H_    0.927523 0.258634 0.423210 0.151358
H11   H     H_    0.108731 0.229405 0.402023 0.153450
H12   H     H_    0.625763 0.599290 0.251219 0.201693
H13   H     H_    0.728375 0.681384 0.628844 0.139910
H14   H     H_    0.061598 0.637412 0.614394 0.196314
H15   H     H_    0.911032 0.734963 0.670611 0.152498
H16   H     H_    0.708849 0.644628 0.962781 0.166886
H17   H     H_    0.636590 0.589161 0.807083 0.156368
H18   H     H_    0.365782 0.415394 0.750675 0.161390
H19   H     H_    0.282794 0.373580 0.872266 0.147119
H20   H     H_    0.278464 0.378093 0.035116 0.145508
H21   H     H_    0.749072 0.206198 0.464963 0.189098
N1    N     N_R   0.222190 0.444670 0.452360 -0.142717
N2    N     N_R   0.776970 0.554790 0.547140 -0.117434
O1    O     O_R   0.366740 0.627160 0.477250 -0.566572
O2    O     O_R   0.544830 0.662520 0.507680 -0.630364
O3    O     O_R   0.410940 0.482340 0.616930 -0.607620
O4    O     O_R   0.589030 0.517700 0.647360 -0.630894
O5    O     O_R   0.455170 0.337480 0.492320 -0.638593
O6    O     O_R   0.633260 0.372840 0.522750 -0.554053
O7    O     O_R   0.410970 0.482300 0.352640 -0.627999
O8    O     O_R   0.589060 0.517660 0.383070 -0.564935
Zn1   Zn    Zn3+2 0.381090 0.476390 0.479680 0.966625
Zn2   Zn    Zn3+2 0.618910 0.523610 0.520320 0.976811
O9    O     O_3   0.154631 0.612116 0.495801 -0.628961
C47   C     C_3   0.105970 0.662545 0.412378 -0.328281
H22   H     H_    0.106426 0.746617 0.423027 0.181848
H23   H     H_    0.019210 0.650796 0.388282 0.161818
H24   H     H_    0.152560 0.636806 0.358477 0.182792
O10   O     O_3   0.744145 0.383876 0.412620 -0.566918
C48   C     C_3   0.742279 0.353256 0.319965 -0.307172
H25   H     H_    0.781948 0.272811 0.314232 0.138330
H26   H     H_    0.778523 0.407352 0.284234 0.177350
H27   H     H_    0.656826 0.352762 0.283289 0.186840
O11   O     O_3   0.721585 0.660868 0.139985 -0.611850
C49   C     C_3   0.682803 0.766916 0.144325 -0.357818
H28   H     H_    0.743298 0.804497 0.195020 0.191729
H29   H     H_    0.604637 0.780446 0.167966 0.163481
H30   H     H_    0.673234 0.804077 0.077023 0.170431

loop_
_geom_bond_atom_site_label_1
_geom_bond_atom_site_label_2
_ccdc_geom_bond_type
C16   C28   A    
C21   C26   A    
O1    Zn1   S    
C31   H15   S    
C10   H17   S    
C16   H5    S    
C47   H24   S    
O2    Zn2   S    
C47   H22   S    
C18   H6    S    
C7    C8    A    
O10   C48   S    
C2    C46   A    
C1    O2    A    
C3    O11   S    
C5    C6    A    
C36   C37   A    
C19   C21   A    
O7    Zn1   S    
C26   H4    S    
C34   O8    A    
C30   C31   A    
C48   H26   S    
C14   H3    S    
C20   C25   A    
C4    H16   S    
C33   C36   A    
C18   C19   A    
C9    H20   S    
C41   H9    S    
O3    Zn1   S    
C19   C20   A    
C44   H12   S    
C16   C17   A    
C1    C28   S    
C40   O9    S    
C14   C27   A    
C15   C23   S    
C12   O3    A    
C8    H19   S    
C12   O4    A    
C47   H23   S    
C41   N1    A    
O8    Zn2   S    
N1    Zn1   S    
C24   H2    S    
C36   C40   A    
C24   C25   A    
C49   H28   S    
C48   H25   S    
C8    C9    A    
C15   C26   A    
C20   C28   A    
C45   C46   A    
C3    C45   A    
C35   C39   A    
C43   C44   A    
C37   C38   A    
C49   H29   S    
C15   C27   A    
C31   C32   A    
C7    C13   A    
C30   H13   S    
C17   C18   A    
O4    Zn2   S    
C25   H8    S    
C29   H11   S    
O5    Zn1   S    
C22   C24   A    
N2    Zn2   S    
C42   C43   A    
C39   O10   S    
C23   O5    A    
C3    C4    A    
C17   H7    S    
C30   N2    A    
C44   C45   A    
C6    C46   A    
C29   C41   A    
C34   C43   S    
C23   O6    A    
O9    C47   S    
C48   H27   S    
C11   C12   S    
C6    C7    A    
C1    O1    A    
C32   C33   A    
C14   C22   A    
C5    C10   A    
C49   H30   S    
C11   C13   A    
O11   C49   S    
C38   C39   A    
C13   H18   S    
C2    C42   A    
C33   C35   A    
C42   H1    S    
C27   H21   S    
C10   C11   A    
C4    C5    A    
C38   H10   S    
C35   N2    A    
C40   N1    A    
C29   C37   A    
C32   H14   S    
C21   C22   A    
C2    C9    A    
O6    Zn2   S    
C34   O7    A    
