data_mof_unit_12586.cif
_audit_creation_date              2012-12-10T18:35:04-0500
_audit_creation_method            fapswitch 2.2
_symmetry_space_group_name_H-M    P1
_symmetry_Int_Tables_number       1
_space_group_crystal_system       triclinic
_cell_length_a                    15.129349
_cell_length_b                    13.859972
_cell_length_c                    10.770272
_cell_angle_alpha                 90.005966
_cell_angle_beta                  89.777504
_cell_angle_gamma                 90.236503
_cell_volume                      2258.40740646

loop_
_atom_site_label
_atom_site_type_symbol
_atom_type_description
_atom_site_fract_x
_atom_site_fract_y
_atom_site_fract_z
_atom_type_partial_charge
C1    C     C_R   0.329932 0.499899 0.499868 0.765875
C2    C     C_R   0.670173 0.500180 0.499607 0.793763
C3    C     C_R   0.233590 0.499944 0.498886 -0.032040
C4    C     C_R   0.766753 0.500570 0.498430 -0.030267
C5    C     C_R   0.186507 0.419295 0.541777 -0.187158
C6    C     C_R   0.812942 0.416774 0.465814 -0.190701
C7    C     C_R   0.094657 0.419848 0.541819 -0.172100
C8    C     C_R   0.904784 0.417067 0.464265 -0.170371
C9    C     C_R   0.048817 0.500491 0.497131 0.102705
C10   C     C_R   0.951722 0.500815 0.496763 0.108452
C11   C     C_R   0.543355 0.108124 0.406181 -0.285271
C12   C     C_R   0.454963 0.107710 0.592384 -0.285742
C13   C     C_R   0.543532 0.209603 0.408829 0.084213
C14   C     C_R   0.455816 0.209228 0.590610 0.080165
C15   C     C_R   0.498997 0.054693 0.499132 0.132927
C16   C     C_R   0.429146 0.891631 0.552400 -0.287890
C17   C     C_R   0.569261 0.892626 0.445986 -0.283988
C18   C     C_R   0.431251 0.790182 0.552672 0.077702
C19   C     C_R   0.568094 0.791155 0.446556 0.078859
C20   C     C_R   0.499042 0.945340 0.499075 0.129026
C21   C     C_R   0.496124 0.500003 0.262501 0.794898
C22   C     C_R   0.495777 0.500040 0.737529 0.794606
C23   C     C_R   0.365306 0.616540 0.130228 -0.241641
C24   C     C_R   0.365663 0.617692 0.872081 -0.249282
C25   C     C_R   0.306965 0.677593 0.067411 0.014528
C26   C     C_R   0.307790 0.678904 0.936216 0.014786
C27   C     C_R   0.427550 0.559705 0.935155 0.082436
C28   C     C_R   0.427663 0.559567 0.065985 0.081428
C29   C     C_R   0.488598 0.499730 0.128875 -0.084461
C30   C     C_R   0.488404 0.499868 0.871283 -0.089880
C31   C     C_R   0.544432 0.437871 0.063567 -0.210622
C32   C     C_R   0.544308 0.437914 0.935769 -0.207021
C33   C     C_R   0.096233 0.580798 0.453141 -0.177560
C34   C     C_R   0.905398 0.584623 0.529557 -0.174230
C35   C     C_R   0.188048 0.580834 0.455053 -0.194925
C36   C     C_R   0.813494 0.584661 0.529666 -0.189639
Cu1   Cu    Cu3+1 0.500000 0.596430 0.500000 0.928679
Cu2   Cu    Cu3+1 0.500000 0.403570 0.500000 0.935800
H1    H     H_    0.590251 0.391218 0.111856 0.143917
H2    H     H_    0.590053 0.391283 0.886809 0.154031
H3    H     H_    0.372295 0.927169 0.592572 0.136149
H4    H     H_    0.625788 0.929022 0.405518 0.125997
H5    H     H_    0.377194 0.750719 0.594970 0.132588
H6    H     H_    0.622290 0.752380 0.404299 0.122143
H7    H     H_    0.062378 0.643205 0.416437 0.134856
H8    H     H_    0.940167 0.649671 0.556832 0.120060
H9    H     H_    0.223419 0.643552 0.421008 0.165544
H10   H     H_    0.779098 0.650018 0.555823 0.146533
H11   H     H_    0.220646 0.356512 0.577054 0.143252
H12   H     H_    0.778149 0.351324 0.440151 0.144702
H13   H     H_    0.059533 0.357702 0.578208 0.124956
H14   H     H_    0.939052 0.352064 0.436470 0.125162
H15   H     H_    0.576966 0.072298 0.330429 0.126249
H16   H     H_    0.420899 0.071527 0.667712 0.127945
H17   H     H_    0.578395 0.249091 0.337051 0.114417
H18   H     H_    0.421105 0.248441 0.662503 0.119195
N1    N     N_R   0.500000 0.258690 0.500000 -0.169634
N2    N     N_R   0.500000 0.741330 0.500000 -0.173563
O1    O     O_R   0.371460 0.581430 0.500010 -0.611046
O2    O     O_R   0.628540 0.581430 0.499990 -0.590420
O3    O     O_R   0.371470 0.418560 0.500010 -0.579883
O4    O     O_R   0.628530 0.418560 0.499990 -0.584997
O5    O     O_R   0.500000 0.581450 0.319650 -0.585903
O6    O     O_R   0.500000 0.581450 0.680350 -0.578513
O7    O     O_R   0.500010 0.418580 0.319650 -0.586482
O8    O     O_R   0.499990 0.418580 0.680350 -0.589130
H19   H     H_    0.359376 0.612638 0.230124 0.160627
H20   H     H_    0.361868 0.617110 0.772006 0.154924
C37   C     C_R   0.243994 0.735531 0.142429 0.092139
C38   C     C_R   0.152567 0.729714 0.120790 -0.114249
C39   C     C_R   0.093498 0.780862 0.195950 -0.142780
C40   C     C_R   0.125044 0.837633 0.293608 -0.133679
C41   C     C_R   0.215776 0.843693 0.316066 -0.142490
C42   C     C_R   0.275097 0.792918 0.240974 -0.171927
H21   H     H_    0.126953 0.684470 0.047154 0.129800
H22   H     H_    0.023145 0.775746 0.179219 0.127346
H23   H     H_    0.079155 0.876549 0.352250 0.118261
H24   H     H_    0.240136 0.887231 0.392161 0.134442
H25   H     H_    0.345227 0.797916 0.260053 0.144210
C43   C     C_R   0.252939 0.746486 0.862744 0.091597
C44   C     C_R   0.258102 0.846396 0.884204 -0.120992
C45   C     C_R   0.210590 0.910474 0.809948 -0.148024
C46   C     C_R   0.157865 0.875505 0.713546 -0.130992
C47   C     C_R   0.152369 0.776368 0.691385 -0.133866
C48   C     C_R   0.199814 0.711975 0.765292 -0.172007
H26   H     H_    0.300057 0.874757 0.956940 0.130566
H27   H     H_    0.215195 0.987343 0.826552 0.125179
H28   H     H_    0.121436 0.925233 0.655803 0.118345
H29   H     H_    0.111538 0.749543 0.616628 0.130958
H30   H     H_    0.195316 0.635344 0.746416 0.138421

loop_
_geom_bond_atom_site_label_1
_geom_bond_atom_site_label_2
_ccdc_geom_bond_type
C14   H18   S    
C4    C36   A    
C33   H7    S    
C41   C42   A    
C24   C27   A    
C35   H9    S    
C44   C45   A    
C43   C48   A    
C28   C29   A    
C24   C26   A    
C1    O1    A    
C39   H22   S    
C2    O2    A    
C13   N1    A    
C45   H27   S    
C17   C20   A    
C23   H19   S    
C17   H4    S    
C22   O8    A    
C40   H23   S    
C17   C19   A    
C11   C15   A    
C18   N2    A    
Cu2   O8    S    
C41   H24   S    
Cu2   O7    S    
C38   C39   A    
C34   H8    S    
C9    C10   S    
C8    H14   S    
Cu1   N2    S    
C11   H15   S    
Cu2   O3    S    
C32   H2    S    
C46   H28   S    
C27   C30   A    
C9    C33   A    
C5    H11   S    
Cu1   O5    S    
C19   N2    A    
C15   C20   S    
C47   C48   A    
C4    C6    A    
C5    C7    A    
C43   C44   A    
C6    C8    A    
C25   C26   A    
C21   C29   S    
C26   C43   S    
C1    C3    S    
C2    C4    S    
Cu1   Cu2   S    
Cu2   N1    S    
C46   C47   A    
C12   C15   A    
C3    C35   A    
C16   C20   A    
C37   C42   A    
C10   C34   A    
C23   C28   A    
C6    H12   S    
Cu1   O1    S    
C16   C18   A    
C12   C14   A    
C42   H25   S    
C25   C37   S    
C47   H29   S    
C38   H21   S    
Cu1   O6    S    
C19   H6    S    
C7    C9    A    
C14   N1    A    
C22   C30   S    
C21   O7    A    
C31   C32   A    
C44   H26   S    
C40   C41   A    
C3    C5    A    
C1    O3    A    
C48   H30   S    
C7    H13   S    
C39   C40   A    
C29   C31   A    
C18   H5    S    
C30   C32   A    
C11   C13   A    
C33   C35   A    
C31   H1    S    
C36   H10   S    
C34   C36   A    
C23   C25   A    
C37   C38   A    
C21   O5    A    
Cu1   O2    S    
C24   H20   S    
C22   O6    A    
C8    C10   A    
C45   C46   A    
C27   C28   A    
C13   H17   S    
C16   H3    S    
C12   H16   S    
C2    O4    A    
Cu2   O4    S    
