data_mof_unit_42278.cif
_audit_creation_date              2012-12-10T19:06:30-0500
_audit_creation_method            fapswitch 2.2
_symmetry_space_group_name_H-M    P1
_symmetry_Int_Tables_number       1
_space_group_crystal_system       triclinic
_cell_length_a                    23.525746
_cell_length_b                    10.837864
_cell_length_c                    9.54206
_cell_angle_alpha                 90.544194
_cell_angle_beta                  90.027267
_cell_angle_gamma                 90.330059
_cell_volume                      2432.777481

loop_
_atom_site_label
_atom_site_type_symbol
_atom_type_description
_atom_site_fract_x
_atom_site_fract_y
_atom_site_fract_z
_atom_type_partial_charge
C1    C     C_R   0.498995 0.262449 0.499221 0.811093
C2    C     C_R   0.970117 0.289105 0.405310 -0.159723
C3    C     C_R   0.029425 0.289533 0.405371 -0.156636
C4    C     C_R   0.059818 0.393895 0.452568 -0.016319
C5    C     C_R   0.030014 0.498535 0.500209 -0.016829
C6    C     C_R   0.060063 0.603627 0.547851 -0.018071
C7    C     C_R   0.029912 0.707530 0.595053 -0.156275
C8    C     C_R   0.970606 0.707071 0.595091 -0.159582
C9    C     C_R   0.119449 0.396400 0.453776 0.537607
C10   C     C_R   0.119689 0.602030 0.546616 0.539601
C11   C     C_R   0.238907 0.502379 0.627107 -0.090153
C12   C     C_R   0.390924 0.500025 0.500019 0.817569
C13   C     C_R   0.298172 0.502512 0.627221 -0.180301
C14   C     C_R   0.328324 0.500162 0.500040 -0.044731
C15   C     C_R   0.298080 0.497888 0.372914 -0.202926
C16   C     C_R   0.238816 0.497715 0.373122 -0.088666
C17   C     C_R   0.209022 0.499891 0.500137 0.344857
C18   C     C_R   0.761193 0.496252 0.373062 -0.100869
C19   C     C_R   0.701928 0.496704 0.372895 -0.219437
C20   C     C_R   0.671720 0.498040 0.500002 -0.035516
C21   C     C_R   0.701958 0.497551 0.627116 -0.220825
C22   C     C_R   0.761217 0.497261 0.627016 -0.100160
C23   C     C_R   0.499008 0.737824 0.500398 0.818419
C24   C     C_R   0.791034 0.496878 0.500063 0.356420
C25   C     C_R   0.474973 0.065480 0.613179 0.056353
C26   C     C_R   0.493692 0.129576 0.495839 -0.099468
C27   C     C_R   0.504892 0.063274 0.371911 -0.169012
C28   C     C_R   0.505494 0.934837 0.373547 -0.171443
C29   C     C_R   0.494188 0.871193 0.498463 -0.169062
C30   C     C_R   0.474434 0.938198 0.614524 0.109529
C31   C     C_3   0.491543 0.936586 0.765615 0.291868
C32   C     C_3   0.492222 0.076920 0.763004 -0.493470
C33   C     C_R   0.548266 0.528702 0.074112 0.247657
C34   C     C_R   0.609090 0.499471 0.499987 0.790343
C35   C     C_R   0.454274 0.458356 0.073826 -0.054074
C36   C     C_R   0.454288 0.458235 0.925089 -0.000003
C37   C     C_R   0.548425 0.527783 0.926743 0.242442
C38   C     C_3   0.581436 0.645245 0.922105 -0.473760
C39   C     C_3   0.580745 0.646961 0.081058 -0.472871
C40   C     C_R   0.880586 0.600198 0.546719 0.534251
C41   C     C_R   0.880338 0.394669 0.453586 0.534646
C42   C     C_R   0.939966 0.393016 0.452482 -0.015557
C43   C     C_R   0.970017 0.498085 0.500198 -0.016764
C44   C     C_R   0.940214 0.602713 0.547893 -0.015239
Cu1   Cu    Cu3+1 0.500000 0.499980 0.640670 0.986206
Cu2   Cu    Cu3+1 0.500000 0.500020 0.359330 0.957886
H1    H     H_    0.948021 0.207144 0.368211 0.191736
H2    H     H_    0.679879 0.495803 0.273339 0.150468
H3    H     H_    0.679937 0.497057 0.726620 0.149533
H4    H     H_    0.784046 0.496969 0.725584 0.141812
H5    H     H_    0.516680 0.110004 0.276275 0.178881
H6    H     H_    0.518003 0.886153 0.279147 0.187662
H7    H     H_    0.534303 0.897253 0.782545 0.056280
H8    H     H_    0.458942 0.122261 0.827807 0.238989
H9    H     H_    0.535578 0.116898 0.775855 0.168896
H10   H     H_    0.416932 0.426073 0.128573 0.140111
H11   H     H_    0.051332 0.207887 0.368315 0.193361
H12   H     H_    0.416936 0.425988 0.869567 0.133970
H13   H     H_    0.624626 0.632514 0.877593 0.182114
H14   H     H_    0.556667 0.720662 0.875530 0.233214
H15   H     H_    0.623598 0.635563 0.127851 0.184683
H16   H     H_    0.555417 0.723965 0.125871 0.229551
H17   H     H_    0.052007 0.789505 0.632114 0.193654
H18   H     H_    0.948699 0.788707 0.632178 0.191677
H19   H     H_    0.216125 0.503765 0.725688 0.147583
H20   H     H_    0.320290 0.504402 0.726786 0.166612
H21   H     H_    0.320124 0.496178 0.273318 0.158410
H22   H     H_    0.215962 0.496183 0.274578 0.147322
H23   H     H_    0.784003 0.495863 0.274515 0.142112
N1    N     N_R   0.852000 0.497231 0.500132 -0.470312
N2    N     N_R   0.148042 0.499436 0.500178 -0.471205
N3    N     N_R   0.500360 0.500930 0.147930 -0.186516
N4    N     N_R   0.500360 0.500890 0.852020 -0.169136
O1    O     O_R   0.500000 0.319640 0.618810 -0.584720
O2    O     O_2   0.850867 0.294371 0.409561 -0.532659
O3    O     O_2   0.148669 0.296423 0.410022 -0.523517
O4    O     O_2   0.149143 0.702444 0.590371 -0.517078
O5    O     O_R   0.500010 0.319680 0.381230 -0.585403
O6    O     O_R   0.417880 0.499940 0.618820 -0.570628
O7    O     O_R   0.417880 0.499980 0.381240 -0.591154
O8    O     O_R   0.499990 0.680320 0.618770 -0.547508
O9    O     O_R   0.500000 0.680360 0.381190 -0.581247
O10   O     O_R   0.582120 0.500020 0.618760 -0.591083
O11   O     O_R   0.582120 0.500060 0.381180 -0.586755
O12   O     O_2   0.851356 0.700086 0.590705 -0.533578
S1    S     S_3+6 0.436733 0.875576 0.876014 0.002016
O13   O     O_2   0.381105 0.937458 0.845475 -0.258539
O14   O     O_2   0.430521 0.739224 0.850762 -0.284170
O15   O     O_3   0.454664 0.901591 0.044206 -0.562034
H24   H     H_    0.426543 0.854190 0.099481 0.377594

loop_
_geom_bond_atom_site_label_1
_geom_bond_atom_site_label_2
_ccdc_geom_bond_type
C23   O9    A    
C28   H6    S    
C41   C42   A    
C35   C36   A    
C18   H23   S    
C21   H3    S    
C24   N1    S    
C7    C8    A    
Cu1   Cu2   S    
C5    C6    A    
C26   C27   A    
C29   C30   A    
C40   N1    A    
C18   C24   A    
C1    O1    A    
C23   C29   S    
C28   C29   A    
C36   H12   S    
C30   C31   S    
S1    O14   D    
C15   C16   A    
C12   O6    A    
Cu1   N4    S    
C18   C19   A    
C33   N3    A    
Cu2   O9    S    
C19   C20   A    
C16   C17   A    
C16   H22   S    
C9    O3    S    
C32   H9    S    
Cu2   N3    S    
C22   H4    S    
C20   C34   S    
C10   N2    A    
C25   C32   S    
C5    C43   A    
C31   S1    S    
C21   C22   A    
C1    O5    A    
Cu1   O10   S    
C34   O11   A    
C32   H8    S    
C10   O4    S    
C27   H5    S    
C13   H20   S    
C39   H15   S    
C9    N2    A    
Cu2   O5    S    
S1    O13   D    
C25   C26   A    
C33   C37   A    
Cu1   O1    S    
C40   O12   S    
C43   C44   A    
C37   C38   S    
C41   O2    S    
C31   C32   S    
C15   H21   S    
Cu1   O6    S    
C33   C39   S    
C31   H7    S    
C7    H17   S    
C8    H18   S    
C38   H14   S    
C3    H11   S    
C12   C14   S    
C35   N3    A    
C17   N2    S    
C1    C26   S    
Cu2   O11   S    
C42   C43   A    
C3    C4    A    
C25   C30   A    
C39   H16   S    
C37   N4    A    
C11   C17   A    
C23   O8    A    
C35   H10   S    
C19   H2    S    
Cu1   O8    S    
C8    C44   A    
C4    C5    A    
S1    O15   S    
C6    C10   A    
C6    C7    A    
C2    H1    S    
C2    C3    A    
C4    C9    A    
Cu2   O7    S    
C11   C13   A    
C38   C39   S    
C2    C42   A    
C12   O7    A    
C22   C24   A    
C36   N4    A    
C38   H13   S    
C40   C44   A    
C20   C21   A    
C34   O10   A    
C27   C28   A    
C14   C15   A    
O15   H24   S    
C13   C14   A    
C11   H19   S    
C41   N1    A    
