data_mof_unit_67608.cif
_audit_creation_date              2013-03-05T16:07:31-0500
_audit_creation_method            fapswitch 2.2
_symmetry_space_group_name_H-M    P1
_symmetry_Int_Tables_number       1
_space_group_crystal_system       triclinic
_cell_length_a                    10.896824
_cell_length_b                    10.913411
_cell_length_c                    9.664635
_cell_angle_alpha                 94.18081
_cell_angle_beta                  92.297216
_cell_angle_gamma                 88.538168
_cell_volume                      1145.05914961

loop_
_atom_site_label
_atom_site_type_symbol
_atom_site_description
_atom_site_fract_x
_atom_site_fract_y
_atom_site_fract_z
_atom_type_partial_charge
O1    O     O_R   0.499990 0.319660 0.618740 -0.598146
O2    O     O_R   0.500010 0.680340 0.381260 -0.600849
O3    O     O_R   0.499990 0.319630 0.381170 -0.523805
O4    O     O_R   0.500010 0.680370 0.618830 -0.529466
C1    C     C_R   0.504994 0.262199 0.495646 0.819217
C2    C     C_R   0.495179 0.737767 0.504561 0.797297
O5    O     O_R   0.319650 0.500020 0.618780 -0.557274
O6    O     O_R   0.680350 0.499980 0.381220 -0.555277
O7    O     O_R   0.319640 0.500000 0.381210 -0.550598
O8    O     O_R   0.680360 0.500000 0.618790 -0.547811
C3    C     C_R   0.262562 0.499253 0.497291 0.823575
C4    C     C_R   0.737454 0.500953 0.502523 0.860275
Cu1   Cu    Cu3+1 0.500000 0.500020 0.640660 1.038867
Cu2   Cu    Cu3+1 0.500000 0.499980 0.359340 1.039705
C5    C     C_R   0.138334 0.766047 0.120180 -0.089571
C6    C     C_R   0.860935 0.238655 0.882454 -0.074110
C7    C     C_R   0.120199 0.723596 0.253046 -0.080457
C8    C     C_R   0.877667 0.279567 0.748953 -0.069773
C9    C     C_R   0.105776 0.596064 0.263426 0.022310
C10   C     C_R   0.894126 0.406210 0.736350 0.034631
C11   C     C_R   0.123395 0.513595 0.148045 -0.122850
C12   C     C_R   0.882068 0.490149 0.851243 -0.108554
H1    H     H_    0.111003 0.416399 0.155400 0.199287
H2    H     H_    0.895833 0.586836 0.841913 0.195451
C13   C     C_R   0.143275 0.555739 0.019146 -0.230099
C14   C     C_R   0.864940 0.449750 0.981381 -0.235791
H3    H     H_    0.146966 0.489754 0.930062 0.160323
H4    H     H_    0.863208 0.516636 0.069701 0.157347
C15   C     C_R   0.139476 0.681689 0.002191 -0.000659
C16   C     C_R   0.864399 0.324115 0.999710 -0.029865
C17   C     C_R   0.928269 0.549816 0.394707 -0.136131
C18   C     C_R   0.071765 0.447260 0.602730 -0.182914
H5    H     H_    0.873032 0.590176 0.313184 0.146621
H6    H     H_    0.126919 0.406933 0.684384 0.149464
C19   C     C_R   0.871653 0.502408 0.505845 -0.015921
C20   C     C_R   0.128490 0.496463 0.492742 -0.031615
C21   C     C_R   0.944660 0.451792 0.611595 0.028678
C22   C     C_R   0.055507 0.546819 0.386576 0.039222
C23   C     C_R   0.576887 0.048112 0.404133 -0.006998
C24   C     C_R   0.424436 0.951726 0.598173 -0.006690
C25   C     C_R   0.574271 0.922107 0.418371 -0.176579
C26   C     C_R   0.427863 0.077872 0.584340 -0.165403
H7    H     H_    0.631074 0.860805 0.352974 0.175674
H8    H     H_    0.371442 0.139478 0.649752 0.177246
C27   C     C_R   0.498751 0.872233 0.512323 -0.098775
C28   C     C_R   0.502240 0.127621 0.489170 -0.105212
C29   C     C_R   0.449642 0.405139 0.061433 0.097071
C30   C     C_R   0.550146 0.594866 0.938490 0.101310
C31   C     C_R   0.449907 0.406736 0.914380 -0.059311
C32   C     C_R   0.549921 0.593383 0.085544 -0.055174
H9    H     H_    0.407831 0.332824 0.850043 0.154914
H10   H     H_    0.591946 0.667415 0.149741 0.153346
N1    N     N_R   0.500030 0.500030 0.852070 -0.197012
N2    N     N_R   0.499970 0.499970 0.147930 -0.194841
C33   C     C_2   0.111756 0.721832 0.861599 0.830133
O9    O     O_2   0.162737 0.671622 0.761950 -0.553627
O10   O     O_R   0.018776 0.810209 0.841963 -0.745938
H11   H     H_    0.001747 0.824603 0.740539 0.379503
C34   C     C_2   0.880584 0.286082 0.142168 0.832298
O11   O     O_2   0.815427 0.331632 0.232604 -0.539246
O12   O     O_R   0.978309 0.207263 0.175951 -0.719351
H12   H     H_    0.985584 0.194757 0.278906 0.368087
C35   C     C_2   0.153839 0.897850 0.102639 0.956190
O13   O     O_2   0.075891 0.972844 0.143237 -0.506425
O14   O     O_R   0.259557 0.936160 0.042984 -0.715608
H13   H     H_    0.259429 0.028384 0.036581 0.364461
C36   C     C_2   0.824386 0.111129 0.896327 0.916661
O15   O     O_2   0.892924 0.039958 0.955383 -0.505620
O16   O     O_R   0.712263 0.071737 0.836011 -0.734814
H14   H     H_    0.697225 0.982547 0.850026 0.360897
C37   C     C_2   0.114298 0.812028 0.378123 0.861106
O17   O     O_2   0.042632 0.797053 0.469140 -0.600305
O18   O     O_R   0.189872 0.914120 0.390575 -0.762610
H15   H     H_    0.167475 0.974750 0.470331 0.360720
C38   C     C_2   0.883704 0.190583 0.624753 0.836298
O19   O     O_2   0.843338 0.220144 0.511945 -0.601230
O20   O     O_R   0.935844 0.073215 0.636416 -0.731990
H16   H     H_    0.933339 0.021588 0.544867 0.370538
C39   C     C_2   0.661993 0.087696 0.301906 0.935679
O21   O     O_2   0.633718 0.170954 0.228671 -0.525104
O22   O     O_R   0.772113 0.021330 0.282017 -0.748611
H17   H     H_    0.817286 0.046828 0.200082 0.383755
C40   C     C_2   0.336555 0.912164 0.698177 0.904728
O23   O     O_2   0.356968 0.821178 0.762019 -0.509029
O24   O     O_R   0.232105 0.985919 0.725256 -0.769895
H18   H     H_    0.180180 0.955290 0.798876 0.381567
C41   C     C_2   0.395779 0.295135 0.113403 0.886895
O25   O     O_2   0.424644 0.193534 0.061283 -0.567044
O26   O     O_R   0.305970 0.305554 0.212422 -0.754858
H19   H     H_    0.274968 0.222933 0.235644 0.337032
C42   C     C_2   0.604171 0.704250 0.885846 0.887685
O27   O     O_2   0.573889 0.806353 0.935357 -0.569037
O28   O     O_R   0.695507 0.692422 0.788679 -0.754834
H20   H     H_    0.726565 0.774313 0.763462 0.326644

loop_
_geom_bond_atom_site_label_1
_geom_bond_atom_site_label_2
_geom_bond_distance
_ccdc_geom_bond_type
C41   O25   1.222946 D    
C35   O14   1.395448 S    
O28   H20   1.013137 S    
C2    C27   1.465366 S    
O18   H15   1.011944 S    
C33   O9    1.219342 D    
O22   H17   1.008543 S    
C29   C31   1.422705 A    
O20   H16   1.013508 S    
O5    C3    1.306123 A    
C32   N2    1.357699 A    
O1    C1    1.306211 A    
C18   C20   1.397573 A    
C3    C20   1.460879 S    
C9    C11   1.397277 A    
C6    C16   1.414130 A    
C26   C28   1.397376 A    
O4    Cu1   1.994746 S    
C31   H9    1.081849 S    
C30   C42   1.476107 S    
C32   H10   1.081859 S    
C17   H5    1.084498 S    
C8    C38   1.490411 S    
C23   C28   1.415491 A    
O12   H12   1.013860 S    
C40   O24   1.399368 S    
C24   C26   1.394418 A    
C34   O11   1.218007 D    
Cu1   Cu2   2.718824 S    
C25   H7    1.085699 S    
C24   C40   1.481125 S    
O2    C2    1.307693 A    
C26   H8    1.085251 S    
C5    C15   1.412628 A    
Cu1   N1    2.043180 S    
C13   C15   1.395472 A    
C30   N1    1.390413 A    
C34   O12   1.395287 S    
C36   O15   1.219718 D    
O4    C2    1.307399 A    
C42   O27   1.222970 D    
C37   O18   1.397627 S    
O7    Cu2   1.985084 S    
C15   C33   1.475315 S    
O24   H18   1.007347 S    
C39   O21   1.217985 D    
C36   O16   1.396610 S    
C23   C39   1.476111 S    
C38   O19   1.221397 D    
C9    C22   1.471737 S    
C42   O28   1.392765 S    
C38   O20   1.398195 S    
C40   O23   1.217878 D    
O6    C4    1.304518 A    
C16   C34   1.469391 S    
C6    C36   1.474215 S    
C18   C21   1.390515 A    
C4    C19   1.461870 S    
C30   C32   1.422596 A    
O7    C3    1.305015 A    
O3    Cu2   1.994746 S    
O8    C4    1.306866 A    
C29   N2    1.391667 A    
Cu2   N2    2.043180 S    
C10   C12   1.395225 A    
C14   C16   1.395441 A    
C33   O10   1.397935 S    
C12   H2    1.080316 S    
O1    Cu1   1.964297 S    
C39   O22   1.398317 S    
C5    C7    1.419275 A    
C11   C13   1.385881 A    
O6    Cu2   1.968140 S    
C19   C21   1.406162 A    
O3    C1    1.309349 A    
O8    Cu1   1.985083 S    
C7    C37   1.493240 S    
C13   H3    1.082754 S    
C1    C28   1.466498 S    
C14   H4    1.082373 S    
C17   C22   1.391269 A    
C11   H1    1.080520 S    
C37   O17   1.221839 D    
C25   C27   1.397416 A    
C10   C21   1.469379 S    
O10   H11   1.013086 S    
C31   N1    1.357109 A    
C17   C19   1.397302 A    
C20   C22   1.407763 A    
C7    C9    1.415871 A    
C8    C10   1.412859 A    
O16   H14   1.010837 S    
O2    Cu2   1.964297 S    
C35   O13   1.220518 D    
O5    Cu1   1.968141 S    
C24   C27   1.417695 A    
C23   C25   1.393080 A    
C6    C8    1.415744 A    
O14   H13   1.012835 S    
C12   C14   1.383832 A    
C41   O26   1.392839 S    
C5    C35   1.475330 S    
O26   H19   1.014213 S    
C18   H6    1.084804 S    
C29   C41   1.478349 S    
