data_mof_unit_51336.cif
_audit_creation_date              2012-12-10T19:15:20-0500
_audit_creation_method            fapswitch 2.2
_symmetry_space_group_name_H-M    P1
_symmetry_Int_Tables_number       1
_space_group_crystal_system       triclinic
_cell_length_a                    10.66187
_cell_length_b                    9.772912
_cell_length_c                    23.386618
_cell_angle_alpha                 90.633598
_cell_angle_beta                  91.248444
_cell_angle_gamma                 88.689911
_cell_volume                      2435.47629702

loop_
_atom_site_label
_atom_site_type_symbol
_atom_type_description
_atom_site_fract_x
_atom_site_fract_y
_atom_site_fract_z
_atom_type_partial_charge
C1    C     C_R   0.257278 0.501053 0.498744 0.810924
C2    C     C_R   0.620178 0.465465 0.121053 0.509291
C3    C     C_R   0.593525 0.593200 0.242487 -0.091048
C4    C     C_R   0.501156 0.499641 0.389607 0.853747
C5    C     C_R   0.589527 0.589000 0.301719 -0.188000
C6    C     C_R   0.507386 0.500419 0.327936 -0.037610
C7    C     C_R   0.429301 0.416482 0.294950 -0.177921
C8    C     C_R   0.433208 0.420626 0.235767 -0.095200
C9    C     C_R   0.515088 0.509225 0.209558 0.301999
C10   C     C_R   0.501687 0.382763 0.762768 -0.099200
C11   C     C_R   0.498748 0.380037 0.703386 -0.228990
C12   C     C_R   0.304598 0.619350 0.970163 -0.157888
C13   C     C_R   0.502241 0.502952 0.673013 -0.044640
C14   C     C_R   0.508598 0.628349 0.702722 -0.226506
C15   C     C_R   0.511767 0.630658 0.762036 -0.099246
C16   C     C_R   0.741920 0.498381 0.501747 0.851859
C17   C     C_R   0.508296 0.508011 0.792002 0.319919
C18   C     C_3   0.072078 0.586959 0.549499 -0.405793
C19   C     C_3   0.074646 0.352444 0.509526 -0.433106
C20   C     C_3   0.928511 0.589225 0.549472 -0.407395
C21   C     C_3   0.931854 0.348763 0.508985 -0.421891
C22   C     C_3   0.060707 0.554813 0.437533 0.247953
C23   C     C_R   0.306121 0.620844 0.029680 -0.158734
C24   C     C_3   0.119519 0.501660 0.497539 0.138297
C25   C     C_3   0.877391 0.495792 0.500659 0.137311
C26   C     C_3   0.915534 0.546375 0.441231 -0.397616
C27   C     C_3   0.392437 0.081953 0.463910 -0.046880
C28   C     C_3   0.402688 0.920147 0.458120 -0.096464
C29   C     C_3   0.619259 0.076602 0.477437 -0.212127
C30   C     C_3   0.624495 0.916119 0.484127 -0.197087
C31   C     C_3   0.484646 0.082888 0.557338 -0.284581
C32   C     C_3   0.472450 0.921457 0.556287 -0.287467
C33   C     C_R   0.500404 0.500750 0.610656 0.876302
C34   C     C_R   0.411239 0.569555 0.060379 -0.014298
C35   C     C_R   0.615178 0.462290 0.881580 0.502877
C36   C     C_R   0.408312 0.562667 0.880711 0.502635
C37   C     C_R   0.408280 0.566819 0.940393 -0.014301
C38   C     C_R   0.514686 0.516208 0.970822 -0.021441
C39   C     C_R   0.619325 0.463570 0.941313 -0.014442
C40   C     C_3   0.097769 0.704593 0.420524 -0.380407
C41   C     C_3   0.051018 0.829720 0.456204 -0.365091
C42   C     C_3   0.046931 0.960661 0.420899 -0.957435
C43   C     C_3   0.105937 0.455057 0.387898 -0.481749
C44   C     C_3   0.063669 0.494166 0.326317 -0.377498
C45   C     C_R   0.516136 0.517490 0.030904 -0.021854
C46   C     C_3   0.061597 0.369666 0.286237 -0.793655
C47   C     C_2   0.368601 0.153675 0.407735 0.435532
C48   C     C_2   0.415989 0.870186 0.396546 0.540921
C49   C     C_R   0.622104 0.465839 0.061359 -0.014684
C50   C     C_R   0.726274 0.414547 0.031577 -0.158125
C51   C     C_R   0.724932 0.413517 0.972035 -0.157742
C52   C     C_R   0.414080 0.567825 0.120062 0.507009
H1    H     H_    0.221939 0.658986 0.947623 0.194145
H2    H     H_    0.899919 0.305831 0.549977 0.179672
H3    H     H_    0.891953 0.695929 0.545242 0.168495
H4    H     H_    0.899318 0.279787 0.473724 0.177198
H5    H     H_    0.867308 0.644959 0.430589 0.159407
H6    H     H_    0.876824 0.473800 0.408668 0.153662
H7    H     H_    0.224545 0.661480 0.051486 0.193217
H8    H     H_    0.304387 0.104600 0.487533 0.061382
H9    H     H_    0.311573 0.880516 0.471033 0.075446
H10   H     H_    0.632399 0.103691 0.432060 0.216281
H11   H     H_    0.662527 0.865151 0.445496 0.197688
H12   H     H_    0.493694 0.282130 0.681397 0.151037
H13   H     H_    0.566153 0.111483 0.585164 0.158048
H14   H     H_    0.538033 0.876566 0.588972 0.163216
H15   H     H_    0.400477 0.130610 0.577414 0.158394
H16   H     H_    0.376514 0.893654 0.569168 0.148979
H17   H     H_    0.700045 0.120650 0.501533 0.132546
H18   H     H_    0.694697 0.889317 0.518404 0.122516
H19   H     H_    0.808784 0.374563 0.054124 0.192635
H20   H     H_    0.806490 0.372864 0.950221 0.193860
H21   H     H_    0.656574 0.662005 0.222119 0.150589
H22   H     H_    0.650656 0.654042 0.327078 0.171600
H23   H     H_    0.511558 0.724506 0.680277 0.150280
H24   H     H_    0.363309 0.351012 0.314876 0.169284
H25   H     H_    0.372009 0.356252 0.210185 0.147503
H26   H     H_    0.498538 0.287924 0.786156 0.140539
H27   H     H_    0.140052 0.979392 0.402607 0.247282
H28   H     H_    0.976016 0.952756 0.385578 0.278560
H29   H     H_    0.020358 0.049182 0.448576 0.246014
H30   H     H_    0.955752 0.816573 0.472394 0.225718
H31   H     H_    0.114830 0.849107 0.492976 0.213204
H32   H     H_    0.200497 0.707638 0.417293 0.181293
H33   H     H_    0.060783 0.723726 0.376659 0.212088
H34   H     H_    0.517059 0.727491 0.784832 0.140381
H35   H     H_    0.154301 0.315907 0.286446 0.248128
H36   H     H_    0.989190 0.297383 0.299680 0.260409
H37   H     H_    0.038380 0.403111 0.241957 0.273689
H38   H     H_    0.968195 0.542018 0.325556 0.228675
H39   H     H_    0.129903 0.568852 0.309075 0.232574
H40   H     H_    0.210002 0.447059 0.388708 0.174064
H41   H     H_    0.070863 0.351072 0.395329 0.218687
H42   H     H_    0.281477 0.211011 0.400802 0.011327
H43   H     H_    0.335012 0.832308 0.373211 0.013754
H44   H     H_    0.108673 0.691185 0.551782 0.169792
H45   H     H_    0.112243 0.275054 0.478979 0.161949
H46   H     H_    0.107720 0.539505 0.589985 0.169436
H47   H     H_    0.110603 0.317891 0.552215 0.185838
H48   H     H_    0.896301 0.552203 0.591444 0.169115
N1    N     N_R   0.510648 0.510905 0.852852 -0.359342
N2    N     N_R   0.516951 0.515213 0.148831 -0.356497
N3    N     N_3   0.499750 0.138610 0.498760 -0.060538
N4    N     N_3   0.499750 0.861390 0.498760 -0.061017
O1    O     O_R   0.314910 0.616040 0.499990 -0.638647
O2    O     O_2   0.306778 0.608795 0.850601 -0.556516
O3    O     O_2   0.315144 0.618225 0.149292 -0.560340
O4    O     O_2   0.719632 0.414306 0.151199 -0.560211
O5    O     O_2   0.444200 0.146516 0.369306 -0.547449
O6    O     O_2   0.513417 0.880264 0.370642 -0.558779
O7    O     O_R   0.314910 0.383960 0.499990 -0.646711
O8    O     O_R   0.500080 0.616070 0.416130 -0.618515
O9    O     O_R   0.500080 0.383930 0.416130 -0.581963
O10   O     O_R   0.685320 0.616040 0.499970 -0.640420
O11   O     O_R   0.685320 0.383960 0.499970 -0.633670
O12   O     O_R   0.500150 0.616010 0.583820 -0.628369
O13   O     O_R   0.500150 0.383990 0.583820 -0.629932
O14   O     O_2   0.714702 0.413668 0.852294 -0.556420
Zn1   Zn    Zn3+2 0.500150 0.654960 0.499970 0.912181
Zn2   Zn    Zn3+2 0.500150 0.345040 0.499970 0.925096

loop_
_geom_bond_atom_site_label_1
_geom_bond_atom_site_label_2
_ccdc_geom_bond_type
C39   C51   A    
C42   H28   S    
C48   H43   S    
C18   H44   S    
C41   C42   S    
C40   H32   S    
C48   O6    D    
N3    Zn2   S    
C50   H19   S    
C10   H26   S    
C7    C8    A    
C46   H37   S    
C33   O13   A    
C12   C23   A    
C52   N2    A    
C37   C38   A    
C18   C24   S    
C36   C37   A    
C19   C21   S    
C27   H8    S    
C5    C6    A    
C20   C25   S    
C2    N2    A    
C10   C17   A    
C41   H31   S    
C12   C37   A    
C29   N3    S    
C15   C17   A    
C27   N3    S    
C5    H22   S    
C17   N1    S    
C38   C45   A    
C31   C32   S    
C52   O3    S    
C8    C9    A    
C32   N4    S    
C29   H17   S    
C12   H1    S    
C32   H16   S    
N4    Zn1   S    
C28   H9    S    
C4    O8    A    
C42   H27   S    
C13   C14   A    
C42   H29   S    
C20   H3    S    
C30   H18   S    
C44   C46   S    
C46   H36   S    
C19   H45   S    
C38   C39   A    
C36   O2    S    
C4    O9    A    
C4    C6    S    
C11   H12   S    
O13   Zn2   S    
C19   H47   S    
C9    N2    S    
C3    C5    A    
C25   C26   S    
C47   O5    D    
C36   N1    A    
C31   N3    S    
C40   H33   S    
C31   H15   S    
C43   C44   S    
C13   C33   S    
C29   C30   S    
C3    C9    A    
C2    C49   A    
C21   H4    S    
O9    Zn2   S    
C28   N4    S    
C22   C43   S    
C20   H48   S    
C45   C49   A    
C23   C34   A    
C22   C40   S    
C50   C51   A    
C34   C45   A    
C26   H6    S    
C6    C7    A    
C44   H39   S    
C15   H34   S    
C40   C41   S    
O11   Zn2   S    
C8    H25   S    
C22   C24   S    
C51   H20   S    
C16   O11   A    
C44   H38   S    
C32   H14   S    
C46   H35   S    
C27   C47   S    
C16   C25   S    
C31   H13   S    
C21   C25   S    
C29   H10   S    
C28   C48   S    
C33   O12   A    
C23   H7    S    
O10   Zn1   S    
C35   N1    A    
C16   O10   A    
O8    Zn1   S    
C7    H24   S    
C34   C52   A    
C43   H40   S    
O12   Zn1   S    
C14   H23   S    
C19   C24   S    
C41   H30   S    
C1    O7    A    
C11   C13   A    
C21   H2    S    
C35   C39   A    
C2    O4    S    
C43   H41   S    
C47   H42   S    
C18   C20   S    
O7    Zn2   S    
C3    H21   S    
C26   H5    S    
C10   C11   A    
C1    C24   S    
C49   C50   A    
C22   C26   S    
C30   N4    S    
C27   C28   S    
C14   C15   A    
O1    Zn1   S    
C35   O14   S    
C18   H46   S    
C30   H11   S    
C1    O1    A    
