data_mof_unit_58225.cif
_audit_creation_date              2012-12-10T17:01:35-0500
_audit_creation_method            fapswitch 2.2
_symmetry_space_group_name_H-M    P1
_symmetry_Int_Tables_number       1
_space_group_crystal_system       triclinic
_cell_length_a                    12.898954
_cell_length_b                    10.719126
_cell_length_c                    9.984654
_cell_angle_alpha                 90.100657
_cell_angle_beta                  97.485753
_cell_angle_gamma                 90.183974
_cell_volume                      1368.7570702

loop_
_atom_site_label
_atom_site_type_symbol
_atom_type_description
_atom_site_fract_x
_atom_site_fract_y
_atom_site_fract_z
_atom_type_partial_charge
C1    C     C_R   0.501569 0.262517 0.499796 1.016579
C2    C     C_2   0.501067 0.130342 0.496153 -0.432526
C3    C     C_2   0.574632 0.549489 0.937389 -0.301014
C4    C     C_R   0.297755 0.501447 0.472733 0.916954
C5    C     C_2   0.568072 0.564745 0.089021 0.516834
C6    C     C_R   0.505579 0.737652 0.500760 0.969899
C7    C     C_R   0.701865 0.498408 0.526756 0.888533
C8    C     C_R   0.813939 0.495999 0.542945 -0.090803
C9    C     C_R   0.184804 0.501623 0.454163 -0.208524
C10   C     C_R   0.017273 0.465756 0.317668 0.318116
C11   C     C_R   0.126029 0.482021 0.326124 0.344165
C12   C     C_R   0.028680 0.510357 0.560475 0.110178
C13   C     C_R   0.135532 0.518696 0.569060 -0.355556
C14   C     C_3   0.720400 0.688590 0.116240 0.092610
C15   C     C_3   0.788787 0.765475 0.221601 -0.748850
C16   C     C_3   0.168969 0.589647 0.145467 0.120957
C17   C     C_3   0.215243 0.578584 0.013498 -0.851249
C18   C     C_3   0.451490 0.934008 0.175851 0.123098
C19   C     C_3   0.430271 0.852670 0.050273 -0.790188
C20   C     C_R   0.969420 0.481752 0.435040 0.055438
C21   C     C_R   0.862356 0.471726 0.428800 -0.181383
C22   C     C_R   0.872514 0.522910 0.667528 -0.194452
C23   C     C_R   0.980309 0.529382 0.676425 -0.165492
C24   C     C_2   0.535917 0.935294 0.393023 0.383490
C25   C     C_2   0.527685 0.868408 0.504760 -0.484725
C26   C     C_2   0.553496 0.069423 0.408977 0.336825
H1    H     H_    0.815901 0.448729 0.333506 0.227172
H2    H     H_    0.698135 0.749536 0.027115 0.129329
H3    H     H_    0.767097 0.607315 0.088960 0.150310
H4    H     H_    0.810304 0.709685 0.314490 0.251953
H5    H     H_    0.861351 0.794483 0.181133 0.190098
H6    H     H_    0.746191 0.850124 0.247698 0.264783
H7    H     H_    0.001384 0.414267 0.127726 0.368543
H8    H     H_    0.214291 0.661382 0.209664 0.142952
H9    H     H_    0.086507 0.621528 0.121155 0.134718
H10   H     H_    0.173554 0.504974 0.948948 0.250504
H11   H     H_    0.207805 0.668823 0.958679 0.203015
H12   H     H_    0.450448 0.083537 0.559162 0.100049
H13   H     H_    0.299101 0.553927 0.034336 0.245033
H14   H     H_    0.475630 0.028076 0.144421 0.160625
H15   H     H_    0.377199 0.941656 0.221338 0.118313
H16   H     H_    0.404309 0.758537 0.078285 0.254124
H17   H     H_    0.367805 0.895101 0.977668 0.194986
H18   H     H_    0.502295 0.843847 0.001009 0.255417
H19   H     H_    0.653821 0.070383 0.280008 0.342481
H20   H     H_    0.642563 0.583685 0.895504 0.160138
H21   H     H_    0.432210 0.477904 0.887239 0.160087
H22   H     H_    0.460292 0.431211 0.093978 0.116740
H23   H     H_    0.835166 0.541354 0.756606 0.156501
H24   H     H_    0.025461 0.551453 0.772796 0.136386
H25   H     H_    0.180390 0.538177 0.666558 0.194052
H26   H     H_    0.539774 0.910967 0.604520 0.128507
N1    N     N_2   0.501130 0.501330 0.852280 -0.193529
N2    N     N_2   0.501160 0.501360 0.147950 -0.216933
O1    O     O_R   0.499980 0.319060 0.613040 -0.623488
O2    O     O_3   0.956242 0.435802 0.197231 -0.801143
O3    O     O_3   0.174742 0.472531 0.210943 -0.596679
O4    O     O_3   0.531683 0.879284 0.266647 -0.557235
O5    O     O_3   0.618825 0.132520 0.332369 -0.745867
O6    O     O_R   0.500020 0.319100 0.386900 -0.566971
O7    O     O_R   0.346340 0.499960 0.594380 -0.632768
O8    O     O_R   0.346380 0.500000 0.368250 -0.584435
O9    O     O_R   0.499980 0.680900 0.613100 -0.631257
O10   O     O_R   0.500020 0.680940 0.386960 -0.518778
O11   O     O_R   0.653620 0.500000 0.631750 -0.628444
O12   O     O_R   0.653660 0.500040 0.405620 -0.578869
O13   O     O_3   0.630638 0.648635 0.171103 -0.526907
Zn1   Zn    Zn3+2 0.499980 0.499970 0.650990 0.940191
Zn2   Zn    Zn3+2 0.500020 0.500030 0.349010 1.037381

loop_
_geom_bond_atom_site_label_1
_geom_bond_atom_site_label_2
_ccdc_geom_bond_type
C6    O9    A    
C8    C22   A    
C14   O13   S    
C15   H5    S    
C17   H10   S    
C7    O11   A    
C10   O2    S    
C26   O5    S    
C2    H12   S    
C3    H20   S    
O7    Zn1   S    
C19   H16   S    
H21   N1    S    
C5    O13   S    
O11   Zn1   S    
C14   H2    S    
C12   C20   A    
H7    O2    S    
C8    C21   A    
C21   H1    S    
C25   H26   S    
C15   H6    S    
C2    C26   D    
C17   H11   S    
O10   Zn2   S    
C24   C25   D    
C7    O12   A    
H22   N2    S    
C12   C13   A    
C3    N1    D    
C12   C23   A    
N2    Zn2   S    
O6    Zn2   S    
C22   H23   S    
C13   H25   S    
C1    C2    S    
C24   O4    S    
C24   C26   S    
O1    Zn1   S    
C16   O3    S    
C9    C11   A    
C16   H9    S    
C1    O1    A    
C14   C15   S    
C18   H15   S    
O12   Zn2   S    
C10   C11   A    
C14   H3    S    
C6    C25   S    
C4    O8    A    
C5    N2    D    
C7    C8    S    
C19   H18   S    
C15   H4    S    
C20   C21   A    
C18   C19   S    
C17   H13   S    
C1    O6    A    
C6    O10   A    
N1    Zn1   S    
C18   H14   S    
C22   C23   A    
H19   O5    S    
C23   H24   S    
C9    C13   A    
O9    Zn1   S    
C16   H8    S    
C4    C9    S    
C11   O3    S    
C4    O7    A    
C18   O4    S    
O8    Zn2   S    
C10   C20   A    
C16   C17   S    
C3    C5    S    
C19   H17   S    
