data_mof_unit_26607.cif
_audit_creation_date              2013-03-05T15:56:46-0500
_audit_creation_method            fapswitch 2.2
_symmetry_space_group_name_H-M    P1
_symmetry_Int_Tables_number       1
_space_group_crystal_system       triclinic
_cell_length_a                    21.320308
_cell_length_b                    21.295687
_cell_length_c                    13.778968
_cell_angle_alpha                 90.065402
_cell_angle_beta                  89.906806
_cell_angle_gamma                 89.874876
_cell_volume                      6256.04589516

loop_
_atom_site_label
_atom_site_type_symbol
_atom_site_description
_atom_site_fract_x
_atom_site_fract_y
_atom_site_fract_z
_atom_type_partial_charge
O1    O     O_R   0.064880 0.435140 0.582280 -0.599831
O2    O     O_R   0.935120 0.564860 0.417720 -0.601123
O3    O     O_R   0.935120 0.564860 0.582280 -0.598997
O4    O     O_R   0.064880 0.435140 0.417720 -0.597896
O5    O     O_R   0.935120 0.435140 0.417720 -0.580641
O6    O     O_R   0.064880 0.564860 0.582280 -0.581500
O7    O     O_R   0.064880 0.564860 0.417720 -0.580618
O8    O     O_R   0.935120 0.435140 0.582280 -0.580782
O9    O     O_R   0.564880 0.935140 0.582280 -0.599850
O10   O     O_R   0.435120 0.064860 0.417720 -0.601089
O11   O     O_R   0.435120 0.064860 0.582280 -0.599029
O12   O     O_R   0.564880 0.935140 0.417720 -0.597912
O13   O     O_R   0.435120 0.935140 0.417720 -0.580628
O14   O     O_R   0.564880 0.064860 0.582280 -0.581489
O15   O     O_R   0.564880 0.064860 0.417720 -0.580631
O16   O     O_R   0.435120 0.935140 0.582280 -0.580769
C1    C     C_R   0.085616 0.414358 0.499927 0.812616
C2    C     C_R   0.914357 0.585609 0.500074 0.808133
C3    C     C_R   0.914188 0.414437 0.500011 0.811614
C4    C     C_R   0.085621 0.585758 0.499997 0.811531
C5    C     C_R   0.585629 0.914370 0.499924 0.812718
C6    C     C_R   0.414356 0.085607 0.500075 0.807929
C7    C     C_R   0.414182 0.914443 0.500012 0.811508
C8    C     C_R   0.585625 0.085755 0.499997 0.811550
Cu1   Cu    Cu3+1 1.000000 0.500000 0.597420 0.935568
Cu2   Cu    Cu3+1 1.000000 0.500000 0.402580 0.936189
Cu3   Cu    Cu3+1 0.500000 1.000000 0.597420 0.935534
Cu4   Cu    Cu3+1 0.500000 0.000000 0.402580 0.936127
C9    C     C_R   0.153540 0.661130 0.412316 -0.207164
C10   C     C_R   0.844758 0.340582 0.587869 -0.207017
C11   C     C_R   0.863145 0.677437 0.576030 -0.224137
C12   C     C_R   0.136672 0.322363 0.424110 -0.220902
C13   C     C_R   0.653762 0.160907 0.412277 -0.207170
C14   C     C_R   0.344927 0.840414 0.587845 -0.207029
C15   C     C_R   0.363158 0.177450 0.575998 -0.224062
C16   C     C_R   0.636853 0.822539 0.423911 -0.221055
C17   C     C_R   0.133641 0.634612 0.500091 -0.095619
C18   C     C_R   0.865273 0.366490 0.500002 -0.095629
C19   C     C_R   0.865950 0.633862 0.500139 -0.070827
C20   C     C_R   0.133972 0.366041 0.499882 -0.071414
C21   C     C_R   0.633656 0.134597 0.500088 -0.095645
C22   C     C_R   0.365252 0.866513 0.500008 -0.095648
C23   C     C_R   0.365924 0.133833 0.500160 -0.070089
C24   C     C_R   0.634020 0.866087 0.499852 -0.071559
C25   C     C_R   0.159398 0.655092 0.588120 -0.215935
C26   C     C_R   0.838771 0.346774 0.412092 -0.215027
C27   C     C_R   0.822568 0.636313 0.424144 -0.240888
C28   C     C_R   0.177398 0.363617 0.575820 -0.239546
C29   C     C_R   0.659222 0.155269 0.588145 -0.215916
C30   C     C_R   0.338542 0.847007 0.412138 -0.215296
C31   C     C_R   0.322454 0.136193 0.424279 -0.242383
C32   C     C_R   0.677372 0.863588 0.575886 -0.239596
C33   C     C_R   0.205100 0.701978 0.589342 0.015069
C34   C     C_R   0.791787 0.301167 0.411083 0.014460
C35   C     C_R   0.775485 0.682102 0.423587 0.011669
C36   C     C_R   0.224475 0.317825 0.576365 0.011659
C37   C     C_R   0.704930 0.202148 0.589360 0.015047
C38   C     C_R   0.291542 0.801415 0.411139 0.014450
C39   C     C_R   0.275292 0.181901 0.423830 0.011107
C40   C     C_R   0.724479 0.817826 0.576391 0.011693
C41   C     C_R   0.225049 0.728476 0.500475 -0.006902
C42   C     C_R   0.771506 0.274995 0.500001 -0.007018
C43   C     C_R   0.773215 0.726599 0.499826 -0.000096
C44   C     C_R   0.226643 0.273231 0.500252 0.000199
C45   C     C_R   0.725085 0.228439 0.500457 -0.006881
C46   C     C_R   0.271466 0.775036 0.500021 -0.007031
C47   C     C_R   0.273109 0.226488 0.499950 0.000341
C48   C     C_R   0.726751 0.773338 0.500137 0.000188
C49   C     C_R   0.198986 0.707996 0.411902 0.058938
C50   C     C_R   0.798069 0.294968 0.588486 0.059056
C51   C     C_R   0.817402 0.724292 0.575915 0.057253
C52   C     C_R   0.182369 0.275451 0.424277 0.056007
C53   C     C_R   0.699223 0.207758 0.411854 0.058942
C54   C     C_R   0.298233 0.794805 0.588468 0.059055
C55   C     C_R   0.317390 0.224280 0.575911 0.057217
C56   C     C_R   0.682582 0.775662 0.424027 0.056699
C57   C     C_R   0.231058 0.723015 0.677573 0.484842
C58   C     C_R   0.764570 0.281379 0.323072 0.487576
C59   C     C_R   0.730641 0.684152 0.348594 0.480648
C60   C     C_R   0.269423 0.315838 0.651231 0.478472
C61   C     C_R   0.730690 0.223384 0.677616 0.484926
C62   C     C_R   0.264112 0.781840 0.323174 0.487636
C63   C     C_R   0.230292 0.183837 0.349031 0.480549
C64   C     C_R   0.769356 0.815768 0.651354 0.478478
C65   C     C_R   0.777854 0.268942 0.676336 -0.300422
C66   C     C_R   0.218765 0.734472 0.324127 -0.300197
C67   C     C_R   0.184629 0.231118 0.349227 -0.311999
C68   C     C_R   0.815022 0.768486 0.651136 -0.314157
C69   C     C_R   0.278217 0.768579 0.676284 -0.300442
C70   C     C_R   0.719216 0.234018 0.324040 -0.300191
C71   C     C_R   0.684987 0.731479 0.348775 -0.312856
C72   C     C_R   0.315081 0.268548 0.651033 -0.314235
H1    H     H_    0.133553 0.645503 0.344140 0.155133
H2    H     H_    0.865190 0.355745 0.655977 0.155718
H3    H     H_    0.897134 0.675347 0.634447 0.137130
H4    H     H_    0.102635 0.324417 0.365756 0.139788
H5    H     H_    0.633934 0.145125 0.344076 0.155185
H6    H     H_    0.365523 0.855414 0.655921 0.155707
H7    H     H_    0.397211 0.175424 0.634332 0.137060
H8    H     H_    0.602889 0.824662 0.365462 0.139856
H9    H     H_    0.143798 0.634381 0.655741 0.200357
H10   H     H_    0.854685 0.367190 0.344431 0.200433
H11   H     H_    0.825169 0.601836 0.366326 0.181107
H12   H     H_    0.174846 0.398130 0.633589 0.182484
H13   H     H_    0.643460 0.134720 0.655796 0.200375
H14   H     H_    0.354302 0.867581 0.344506 0.200387
H15   H     H_    0.325050 0.101707 0.366476 0.180557
H16   H     H_    0.674739 0.898017 0.633765 0.182455
H17   H     H_    0.798685 0.283800 0.744288 0.160294
H18   H     H_    0.199127 0.718444 0.255956 0.158943
H19   H     H_    0.151252 0.233368 0.290044 0.160680
H20   H     H_    0.848299 0.766114 0.710441 0.157992
H21   H     H_    0.299202 0.783281 0.744203 0.160328
H22   H     H_    0.699742 0.217823 0.255849 0.158977
H23   H     H_    0.651775 0.733942 0.289394 0.159660
H24   H     H_    0.348421 0.266240 0.710260 0.157964
C73   C     C_R   0.038143 0.460042 0.793310 0.004455
C74   C     C_R   0.961885 0.539987 0.206692 -0.001304
C75   C     C_R   0.960777 0.538924 0.793619 -0.002962
C76   C     C_R   0.039190 0.461045 0.206379 0.004131
C77   C     C_R   0.538229 0.960122 0.793309 0.004463
C78   C     C_R   0.461701 0.039810 0.206690 -0.001255
C79   C     C_R   0.460690 0.038834 0.793620 -0.002947
C80   C     C_R   0.539364 0.961220 0.206380 0.004036
N1    N     N_R   1.000000 0.500000 0.743810 -0.187433
N2    N     N_R   1.000000 0.500000 0.256190 -0.187378
N3    N     N_R   0.500000 0.000000 0.743810 -0.187427
N4    N     N_R   0.500000 0.000000 0.256190 -0.187368
C81   C     C_R   0.959708 0.541086 0.896766 -0.038631
C82   C     C_R   0.040269 0.458899 0.103234 -0.036285
C83   C     C_R   0.040459 0.459127 0.896411 -0.036828
C84   C     C_R   0.959549 0.540887 0.103591 -0.038664
C85   C     C_R   0.459619 0.040990 0.896764 -0.038596
C86   C     C_R   0.540390 0.959016 0.103237 -0.036342
C87   C     C_R   0.540536 0.959196 0.896412 -0.036821
C88   C     C_R   0.459412 0.040748 0.103587 -0.038587
C89   C     C_R   0.000066 0.500081 0.948479 0.020947
C90   C     C_R   0.999929 0.499923 0.051521 0.021224
C91   C     C_R   0.500061 0.000068 0.948478 0.020973
C92   C     C_R   0.499922 0.999910 0.051521 0.021235
C93   C     C_R   0.919215 0.582876 0.948475 0.068403
C94   C     C_R   0.080744 0.417094 0.051527 0.072130
C95   C     C_R   0.081850 0.418214 0.947701 0.053556
C96   C     C_R   0.918145 0.581788 0.052304 0.049733
C97   C     C_R   0.419047 0.082702 0.948468 0.068358
C98   C     C_R   0.580930 0.917271 0.051535 0.072183
C99   C     C_R   0.581991 0.918346 0.947705 0.053497
C100  C     C_R   0.417932 0.081569 0.052293 0.049876
H25   H     H_    0.065789 0.427988 0.751339 0.148158
H26   H     H_    0.934276 0.572071 0.248667 0.148733
H27   H     H_    0.929451 0.567335 0.751817 0.148874
H28   H     H_    0.070482 0.432595 0.248178 0.147965
H29   H     H_    0.565957 0.928144 0.751332 0.148110
H30   H     H_    0.433911 0.071733 0.248665 0.148704
H31   H     H_    0.429296 0.067172 0.751820 0.148896
H32   H     H_    0.570829 0.932957 0.248176 0.147999
O17   O     O_3   0.213476 0.696075 0.764717 -0.576404
C101  C     C_3   0.170947 0.736794 0.811752 -0.343857
H33   H     H_    0.128823 0.745859 0.766100 0.153437
H34   H     H_    0.193795 0.781825 0.832218 0.162787
H35   H     H_    0.154693 0.714000 0.879606 0.196033
O18   O     O_3   0.785146 0.305272 0.235374 -0.574474
C102  C     C_3   0.742030 0.351290 0.204241 -0.352604
H36   H     H_    0.759747 0.372283 0.135871 0.194940
H37   H     H_    0.737406 0.389897 0.258422 0.154034
H38   H     H_    0.695341 0.330361 0.188590 0.160794
O19   O     O_3   0.734395 0.642908 0.271171 -0.593262
C103  C     C_3   0.687966 0.596461 0.282700 -0.362385
H39   H     H_    0.640028 0.616832 0.276129 0.170390
H40   H     H_    0.693119 0.571340 0.353195 0.161518
H41   H     H_    0.693669 0.561229 0.223948 0.186479
O20   O     O_3   0.265943 0.357172 0.728540 -0.594731
C104  C     C_3   0.311115 0.404572 0.714911 -0.347824
H42   H     H_    0.303496 0.430060 0.645357 0.165350
H43   H     H_    0.359560 0.385131 0.717856 0.164100
H44   H     H_    0.306401 0.439244 0.774634 0.196056
O21   O     O_3   0.712910 0.196642 0.764811 -0.576322
C105  C     C_3   0.670291 0.237477 0.811411 -0.344105
H45   H     H_    0.653879 0.214835 0.879297 0.195961
H46   H     H_    0.628271 0.246457 0.765489 0.153458
H47   H     H_    0.693109 0.282544 0.831766 0.162678
O22   O     O_3   0.284460 0.805956 0.235497 -0.574465
C106  C     C_3   0.241312 0.852119 0.204988 -0.352988
H48   H     H_    0.258838 0.873268 0.136616 0.194944
H49   H     H_    0.236919 0.890589 0.259445 0.153807
H50   H     H_    0.194541 0.831300 0.189568 0.160864
O23   O     O_3   0.233693 0.142468 0.271764 -0.592510
C107  C     C_3   0.189203 0.094545 0.286352 -0.364051
H51   H     H_    0.140523 0.113441 0.284457 0.170771
H52   H     H_    0.197731 0.069148 0.355728 0.161678
H53   H     H_    0.193784 0.059913 0.226545 0.186843
O24   O     O_3   0.765794 0.857012 0.728767 -0.594840
C108  C     C_3   0.810958 0.904447 0.715358 -0.348032
H54   H     H_    0.803383 0.930013 0.645861 0.165405
H55   H     H_    0.859407 0.885022 0.718340 0.164179
H56   H     H_    0.806182 0.939046 0.775170 0.195979
C109  C     C_3   0.876140 0.627768 0.893001 -0.423412
C110  C     C_3   0.814521 0.594713 0.866429 -0.348399
C111  C     C_3   0.768526 0.639617 0.818072 -0.837912
H57   H     H_    0.759823 0.680907 0.865448 0.253575
H58   H     H_    0.787566 0.655455 0.747489 0.268581
H59   H     H_    0.723323 0.615289 0.804908 0.241144
H60   H     H_    0.824026 0.554859 0.816384 0.217762
H61   H     H_    0.792191 0.575440 0.932928 0.218562
H62   H     H_    0.866303 0.671202 0.934495 0.204160
H63   H     H_    0.899367 0.647248 0.827692 0.172858
C112  C     C_3   0.123730 0.372117 0.107003 -0.424675
C113  C     C_3   0.185369 0.405069 0.133759 -0.346725
C114  C     C_3   0.231309 0.360026 0.181931 -0.836294
H64   H     H_    0.212189 0.343968 0.252343 0.267990
H65   H     H_    0.240063 0.318882 0.134276 0.252963
H66   H     H_    0.276498 0.384313 0.195390 0.242960
H67   H     H_    0.207735 0.424450 0.067364 0.222675
H68   H     H_    0.175889 0.444835 0.183982 0.219494
H69   H     H_    0.100425 0.352622 0.172238 0.176178
H70   H     H_    0.133548 0.328703 0.065448 0.205178
C115  C     C_3   0.126558 0.375014 0.891690 -0.395166
C116  C     C_3   0.093389 0.313414 0.864901 -0.367102
C117  C     C_3   0.137498 0.268140 0.812884 -0.789534
H71   H     H_    0.150786 0.287475 0.741252 0.272974
H72   H     H_    0.180304 0.260100 0.856868 0.257688
H73   H     H_    0.113583 0.222489 0.801297 0.231470
H74   H     H_    0.075531 0.290269 0.931650 0.218374
H75   H     H_    0.052567 0.323180 0.817182 0.218243
H76   H     H_    0.145973 0.398341 0.826421 0.205156
H77   H     H_    0.169980 0.365029 0.932815 0.215226
C118  C     C_3   0.873468 0.625012 0.108328 -0.392872
C119  C     C_3   0.906663 0.686618 0.135010 -0.370616
C120  C     C_3   0.862645 0.731852 0.187295 -0.791018
H78   H     H_    0.819715 0.739851 0.143581 0.258561
H79   H     H_    0.849565 0.712509 0.259015 0.273180
H80   H     H_    0.886547 0.777526 0.198727 0.229142
H81   H     H_    0.947590 0.676854 0.182514 0.216043
H82   H     H_    0.924369 0.709793 0.068189 0.213974
H83   H     H_    0.830021 0.634989 0.067263 0.214685
H84   H     H_    0.854084 0.601710 0.173640 0.203078
C121  C     C_3   0.375986 0.127604 0.892987 -0.423469
C122  C     C_3   0.314393 0.094552 0.866270 -0.348387
C123  C     C_3   0.268407 0.139494 0.817972 -0.837760
H85   H     H_    0.259601 0.180683 0.865512 0.253518
H86   H     H_    0.287515 0.155492 0.747518 0.268559
H87   H     H_    0.223247 0.115141 0.804568 0.241191
H88   H     H_    0.323932 0.054753 0.816137 0.217713
H89   H     H_    0.292037 0.075200 0.932693 0.218661
H90   H     H_    0.366114 0.171014 0.934522 0.204254
H91   H     H_    0.399252 0.147119 0.827732 0.172923
C124  C     C_3   0.623984 0.872362 0.107021 -0.424841
C125  C     C_3   0.685639 0.905360 0.133552 -0.346575
C126  C     C_3   0.731574 0.860427 0.181986 -0.836428
H92   H     H_    0.712508 0.844653 0.252589 0.267935
H93   H     H_    0.740231 0.819098 0.134671 0.253028
H94   H     H_    0.776807 0.884706 0.195126 0.242963
H95   H     H_    0.707998 0.924567 0.067032 0.222627
H96   H     H_    0.676179 0.945256 0.183537 0.219429
H97   H     H_    0.600751 0.852928 0.172360 0.176138
H98   H     H_    0.633767 0.828905 0.065552 0.204959
C127  C     C_3   0.626664 0.875107 0.891697 -0.395014
C128  C     C_3   0.593446 0.813517 0.865000 -0.367152
C129  C     C_3   0.637498 0.768187 0.812985 -0.789442
H99   H     H_    0.650738 0.787462 0.741294 0.273026
H100  H     H_    0.680333 0.760157 0.856906 0.257780
H101  H     H_    0.613554 0.722538 0.801519 0.231325
H102  H     H_    0.575605 0.790414 0.931796 0.218243
H103  H     H_    0.552609 0.823290 0.817315 0.218256
H104  H     H_    0.646077 0.898398 0.826399 0.205158
H105  H     H_    0.670093 0.865105 0.932789 0.215242
C130  C     C_3   0.373163 0.124705 0.108300 -0.393093
C131  C     C_3   0.406270 0.186332 0.135130 -0.370454
C132  C     C_3   0.362104 0.231564 0.187112 -0.791446
H106  H     H_    0.319308 0.239563 0.143089 0.258311
H107  H     H_    0.348806 0.212215 0.258728 0.273365
H108  H     H_    0.385972 0.277237 0.198721 0.229286
H109  H     H_    0.447082 0.176600 0.182884 0.216154
H110  H     H_    0.424131 0.209496 0.068398 0.214013
H111  H     H_    0.329742 0.134659 0.067159 0.214688
H112  H     H_    0.353751 0.101343 0.173541 0.202726

loop_
_geom_bond_atom_site_label_1
_geom_bond_atom_site_label_2
_geom_bond_distance
_ccdc_geom_bond_type
C84   C96   1.427363 A    
C101  H34   1.112792 S    
C10   C18   1.400865 A    
C60   C72   1.399101 A    
C113  H67   1.111298 S    
C130  H111  1.106555 S    
O2    C2    1.294304 A    
C109  H62   1.106334 S    
C128  H102  1.111101 S    
C14   C22   1.400862 A    
C73   H25   1.069613 S    
C88   C92   1.417828 A    
C129  H101  1.110244 S    
C23   C31   1.399188 A    
C97   C100  1.430995 A    
C105  H45   1.109320 S    
C116  C117  1.523137 S    
C47   C55   1.411450 A    
C45   C53   1.410850 A    
C116  H74   1.111088 S    
C12   C52   1.393921 A    
C79   H31   1.069672 S    
C104  H42   1.113919 S    
O10   C6    1.294318 A    
C87   C91   1.417835 A    
C118  H84   1.107973 S    
C26   H10   1.083449 S    
O13   C7    1.295992 A    
C126  H92   1.106584 S    
O17   C101  1.409794 S    
C7    C22   1.461097 S    
C77   H29   1.069570 S    
C79   C85   1.422057 A    
C107  H53   1.109328 S    
C76   C82   1.422065 A    
C100  C130  1.530565 S    
C19   C27   1.399198 A    
C66   H18   1.084118 S    
C123  H85   1.109643 S    
C39   C63   1.409801 A    
C53   C70   1.399777 A    
C77   N3    1.360447 A    
C120  H80   1.110244 S    
C65   H17   1.084111 S    
C38   C62   1.409644 A    
C86   C92   1.418018 A    
O20   C104  1.409190 S    
C125  H96   1.111016 S    
C105  H46   1.113962 S    
O6    Cu1   1.967945 S    
C67   H19   1.084199 S    
C84   C90   1.417822 A    
C28   H12   1.084026 S    
C122  H89   1.111299 S    
C114  H66   1.110254 S    
C29   C37   1.396750 A    
C42   C50   1.410781 A    
O3    C2    1.294666 A    
C107  H52   1.113844 S    
C127  C128  1.536558 S    
Cu2   N2    2.017103 S    
O14   C8    1.295927 A    
C74   H26   1.069613 S    
Cu1   N1    2.017103 S    
O22   C106  1.409847 S    
C16   C56   1.393884 A    
C101  H35   1.109318 S    
C114  H65   1.109630 S    
C43   C48   1.402773 A    
Cu3   N3    2.017103 S    
C41   C46   1.402429 A    
C38   C46   1.414074 A    
C103  H41   1.109493 S    
C102  H36   1.109316 S    
C11   C19   1.398406 A    
C113  C114  1.522994 S    
C108  H55   1.112716 S    
C97   C121  1.530282 S    
C131  H109  1.111050 S    
C111  H59   1.110258 S    
C36   C44   1.414648 A    
C96   C118  1.530596 S    
C110  C111  1.522996 S    
C30   H14   1.083449 S    
O14   Cu3   1.967945 S    
C32   C40   1.397938 A    
C59   C71   1.399611 A    
C108  H54   1.113919 S    
C115  H77   1.106578 S    
C80   N4    1.360595 A    
C118  H83   1.106560 S    
C39   C47   1.414637 A    
C124  H98   1.106361 S    
C24   C32   1.399206 A    
O16   Cu3   1.968091 S    
C103  H40   1.114918 S    
C25   C33   1.396753 A    
C111  H57   1.109650 S    
C132  H106  1.109433 S    
O1    Cu1   1.963367 S    
C8    C21   1.461225 S    
C78   H30   1.069569 S    
O2    Cu2   1.963367 S    
C63   O23   1.382826 S    
C109  H63   1.107899 S    
C33   C41   1.414077 A    
C15   H7    1.084838 S    
C83   C95   1.427365 A    
C21   C29   1.401805 A    
C119  C120  1.523144 S    
C10   C50   1.392378 A    
C31   C39   1.397979 A    
C9    C49   1.392555 A    
C104  H43   1.112715 S    
C75   H27   1.069644 S    
C86   C98   1.427603 A    
C69   H21   1.084109 S    
C130  H112  1.107984 S    
C126  H93   1.109658 S    
O8    C3    1.296115 A    
C76   H28   1.069658 S    
C98   C99   1.431016 A    
C121  H90   1.106354 S    
C112  C113  1.536355 S    
C30   C38   1.396864 A    
C44   C47   1.402839 A    
O3    Cu1   1.964180 S    
C102  H38   1.112863 S    
C27   H11   1.084047 S    
C123  H86   1.106585 S    
C93   C96   1.431014 A    
C16   H8    1.084816 S    
C117  H71   1.106579 S    
C98   C124  1.530303 S    
C125  H95   1.111283 S    
C10   H2    1.084434 S    
C81   C93   1.427641 A    
C29   H13   1.083451 S    
C34   C42   1.414074 A    
C131  H110  1.111103 S    
C115  C116  1.536557 S    
C62   C66   1.398827 A    
C115  H76   1.107984 S    
C122  H88   1.111009 S    
C58   C70   1.398832 A    
O5    Cu2   1.967948 S    
C35   C43   1.414630 A    
C107  H51   1.112709 S    
C1    C20   1.454984 S    
C99   C127  1.530611 S    
C33   C57   1.409613 A    
C2    C19   1.454791 S    
C106  H48   1.109312 S    
C120  H78   1.109459 S    
C83   C89   1.417839 A    
C3    C18   1.461108 S    
C124  H97   1.107916 S    
C117  H72   1.109458 S    
C5    C24   1.455006 S    
C35   C59   1.409583 A    
C79   N3    1.360581 A    
C118  C119  1.536556 S    
O11   Cu3   1.964180 S    
C91   C92   1.419830 A    
C108  H56   1.109279 S    
C15   C55   1.393731 A    
C26   C34   1.396851 A    
C112  H69   1.107927 S    
C114  H64   1.106569 S    
C127  H104  1.107948 S    
O13   Cu4   1.967948 S    
C94   C112  1.530281 S    
C77   C87   1.421738 A    
C116  H75   1.111047 S    
C72   H24   1.084204 S    
C78   C88   1.421729 A    
C119  H81   1.111061 S    
C88   C100  1.427374 A    
C25   H9    1.083452 S    
C55   C72   1.399991 A    
C22   C30   1.401743 A    
O5    C3    1.295987 A    
O4    C1    1.294723 A    
C75   N1    1.360618 A    
C13   C53   1.392532 A    
C103  H39   1.113313 S    
C12   H4    1.084823 S    
C43   C51   1.411466 A    
C85   C91   1.418027 A    
O16   C7    1.296104 A    
C87   C99   1.427416 A    
C12   C20   1.398549 A    
C80   H32   1.069691 S    
C110  H61   1.111305 S    
C101  H33   1.113961 S    
C37   C61   1.409614 A    
C16   C24   1.398555 A    
C85   C97   1.427585 A    
C60   O20   1.382877 S    
C17   C25   1.401798 A    
C129  H99   1.106573 S    
C82   C90   1.418023 A    
O19   C103  1.409806 S    
C52   C67   1.400176 A    
C15   C23   1.398413 A    
C125  C126  1.523025 S    
O9    Cu3   1.963367 S    
C27   C35   1.397958 A    
O18   C102  1.409852 S    
C104  H44   1.109278 S    
O10   Cu4   1.963367 S    
C28   C36   1.397934 A    
C122  C123  1.523010 S    
O15   C8    1.296236 A    
C126  H94   1.110257 S    
C113  H68   1.111002 S    
C42   C45   1.402418 A    
C102  H37   1.114004 S    
C119  H82   1.111095 S    
C128  H103  1.111055 S    
C127  H105  1.106540 S    
C64   C68   1.399082 A    
C37   C45   1.414078 A    
C129  H100  1.109459 S    
C63   C67   1.399051 A    
O4    Cu2   1.964180 S    
C124  C125  1.536348 S    
C93   C109  1.530272 S    
C58   O18   1.382820 S    
C57   C69   1.398919 A    
C54   C69   1.399673 A    
C48   C56   1.411430 A    
O6    C4    1.295927 A    
C89   C90   1.419828 A    
C62   O22   1.382804 S    
O11   C6    1.294642 A    
O1    C1    1.294339 A    
C36   C60   1.409760 A    
C80   C86   1.422065 A    
C106  H50   1.112871 S    
C130  C131  1.536563 S    
C41   C49   1.410854 A    
O24   C108  1.409183 S    
C14   H6    1.084433 S    
C132  H107  1.106558 S    
C128  C129  1.523132 S    
Cu1   Cu2   2.684693 S    
C13   C21   1.400921 A    
O23   C107  1.409164 S    
C120  H79   1.106611 S    
O8    Cu1   1.968091 S    
C117  H73   1.110244 S    
C9    H1    1.084425 S    
C4    C17   1.461231 S    
C40   C64   1.409761 A    
O9    C5    1.294382 A    
O15   Cu4   1.968088 S    
C73   C83   1.421715 A    
O7    Cu2   1.968088 S    
C11   H3    1.084834 S    
O12   C5    1.294691 A    
C11   C51   1.393734 A    
C112  H70   1.106339 S    
C75   C81   1.422088 A    
C34   C58   1.409643 A    
C71   H23   1.084176 S    
C121  H91   1.107933 S    
C64   O24   1.382874 S    
C123  H87   1.110253 S    
C76   N2    1.360594 A    
C70   H22   1.084119 S    
C78   N4    1.360438 A    
C109  C110  1.536368 S    
C82   C94   1.427604 A    
C18   C26   1.401756 A    
C105  H47   1.112793 S    
C74   C84   1.421731 A    
C40   C48   1.414663 A    
O21   C105  1.409797 S    
C56   C71   1.400171 A    
C61   O21   1.382942 S    
C51   C68   1.399996 A    
C68   H20   1.084206 S    
C81   C89   1.418023 A    
C131  C132  1.523097 S    
O12   Cu4   1.964180 S    
C106  H49   1.114003 S    
C31   H15   1.084026 S    
O7    C4    1.296235 A    
C132  H108  1.110246 S    
C9    C17   1.400924 A    
C110  H60   1.111023 S    
C111  H58   1.106558 S    
C95   C115  1.530597 S    
C94   C95   1.430997 A    
C32   H16   1.084018 S    
C14   C54   1.392383 A    
C74   N2    1.360429 A    
C13   H5    1.084427 S    
C59   O19   1.383191 S    
C121  C122  1.536369 S    
C50   C65   1.399674 A    
C73   N1    1.360421 A    
C20   C28   1.399207 A    
C6    C23   1.454766 S    
C61   C65   1.398919 A    
C49   C66   1.399786 A    
Cu4   N4    2.017103 S    
C44   C52   1.411491 A    
C57   O17   1.382936 S    
Cu3   Cu4   2.684693 S    
C46   C54   1.410780 A    
