data_mof_unit_12690.cif
_audit_creation_date              2012-12-11T15:50:25-0500
_audit_creation_method            fapswitch 2.2
_symmetry_space_group_name_H-M    P1
_symmetry_Int_Tables_number       1
_space_group_crystal_system       triclinic
_cell_length_a                    19.042057
_cell_length_b                    11.008527
_cell_length_c                    18.666973
_cell_angle_alpha                 90.380416
_cell_angle_beta                  90.607961
_cell_angle_gamma                 91.283288
_cell_volume                      3911.7699366

loop_
_atom_site_label
_atom_site_type_symbol
_atom_type_description
_atom_site_fract_x
_atom_site_fract_y
_atom_site_fract_z
_atom_type_partial_charge
C1    C     C_R   0.290028 0.997875 0.861068 0.585427
C2    C     C_R   0.728278 0.041287 0.146888 0.560486
C3    C     C_R   0.790028 0.497875 0.861068 0.585427
C4    C     C_R   0.228278 0.541287 0.146888 0.560485
C5    C     C_3   0.533783 0.725583 0.963034 -0.190293
C6    C     C_3   0.484021 0.740000 0.026850 -0.176245
C7    C     C_3   0.033783 0.225583 0.963034 -0.190293
C8    C     C_3   0.984021 0.240000 0.026850 -0.176244
C9    C     C_R   0.248606 0.574771 0.075242 0.027826
C10   C     C_R   0.780353 0.516445 0.938092 -0.008350
C11   C     C_R   0.748606 0.074771 0.075242 0.027826
C12   C     C_R   0.280353 0.016445 0.938092 -0.008349
C13   C     C_R   0.279889 0.487531 0.031201 -0.031545
C14   C     C_R   0.720507 0.472834 0.972812 -0.041033
C15   C     C_R   0.779889 0.987531 0.031201 -0.031545
C16   C     C_R   0.220507 0.972834 0.972812 -0.041033
C17   C     C_R   0.283663 0.504268 0.957765 0.005688
C18   C     C_R   0.709668 0.495701 0.045027 0.096288
C19   C     C_R   0.783663 0.004268 0.957765 0.005688
C20   C     C_R   0.209668 0.995701 0.045027 0.096287
C21   C     C_R   0.213041 0.681015 0.969619 -0.079753
C22   C     C_R   0.823792 0.591576 0.053202 -0.098374
C23   C     C_R   0.713041 0.181015 0.969619 -0.079753
C24   C     C_R   0.323792 0.091576 0.053202 -0.098375
C25   C     C_R   0.215021 0.671879 0.043274 0.311072
C26   C     C_R   0.833879 0.571506 0.980362 0.329863
C27   C     C_R   0.715021 0.171879 0.043274 0.311073
C28   C     C_R   0.333879 0.071506 0.980362 0.329864
C29   C     C_3   0.353121 0.441610 0.034079 -0.263083
C30   C     C_3   0.645643 0.493180 0.954316 -0.281605
C31   C     C_3   0.853121 0.941610 0.034079 -0.263084
C32   C     C_3   0.145643 0.993180 0.954316 -0.281605
C33   C     C_3   0.357344 0.462359 0.953882 -0.265433
C34   C     C_3   0.632969 0.511059 0.033933 -0.238652
C35   C     C_3   0.857344 0.962359 0.953882 -0.265432
C36   C     C_3   0.132969 0.011059 0.033933 -0.238653
C37   C     C_R   0.250894 0.602346 0.925851 0.013454
C38   C     C_R   0.758401 0.565692 0.084663 -0.039407
C39   C     C_R   0.750894 0.102346 0.925851 0.013454
C40   C     C_R   0.258401 0.065692 0.084663 -0.039408
C41   C     C_R   0.490466 0.834089 0.418493 0.032520
C42   C     C_R   0.479978 0.829971 0.568721 -0.019910
C43   C     C_R   0.990473 0.334087 0.418497 0.032513
C44   C     C_R   0.979983 0.329978 0.568725 -0.019902
C45   C     C_R   0.471486 0.823080 0.854205 0.540609
C46   C     C_R   0.560463 0.817904 0.137473 0.553035
C47   C     C_R   0.971486 0.323080 0.854205 0.540608
C48   C     C_R   0.060463 0.317904 0.137473 0.553040
C49   C     C_R   0.463511 0.731452 0.453452 0.061274
C50   C     C_R   0.459689 0.730593 0.526274 0.026079
C51   C     C_R   0.963537 0.231451 0.453457 0.061260
C52   C     C_R   0.959712 0.230595 0.526280 0.026093
C53   C     C_R   0.493252 0.940511 0.533814 -0.172543
C54   C     C_R   0.496724 0.943463 0.458653 -0.162859
C55   C     C_R   0.993251 0.440518 0.533817 -0.172547
C56   C     C_R   0.996722 0.443466 0.458655 -0.162859
C57   C     C_3   0.468513 0.594822 0.450401 0.175455
C58   C     C_3   0.470445 0.597979 0.532057 0.177852
C59   C     C_3   0.968534 0.094825 0.450406 0.175448
C60   C     C_3   0.970458 0.097983 0.532063 0.177851
C61   C     C_R   0.247443 0.571975 0.425110 0.022111
C62   C     C_R   0.781648 0.507675 0.561873 0.006840
C63   C     C_R   0.747441 0.071973 0.425111 0.022125
C64   C     C_R   0.281649 0.007672 0.561873 0.006838
C65   C     C_R   0.237245 0.475991 0.473199 -0.019231
C66   C     C_R   0.833776 0.567273 0.523328 -0.007424
C67   C     C_R   0.737241 0.975994 0.473200 -0.019241
C68   C     C_R   0.333776 0.067266 0.523327 -0.007423
C69   C     C_R   0.242729 0.494453 0.545264 -0.010816
C70   C     C_R   0.823786 0.594879 0.452776 0.038854
C71   C     C_R   0.742726 0.994457 0.545264 -0.010829
C72   C     C_R   0.323787 0.094871 0.452774 0.038861
C73   C     C_R   0.289502 0.694606 0.523096 0.008178
C74   C     C_R   0.711748 0.488734 0.452451 -0.109685
C75   C     C_R   0.789502 0.194605 0.523095 0.008177
C76   C     C_R   0.211750 0.988726 0.452449 -0.109655
C77   C     C_R   0.282052 0.680265 0.449025 0.228007
C78   C     C_R   0.723181 0.455955 0.524148 0.238368
C79   C     C_R   0.782053 0.180260 0.449025 0.228015
C80   C     C_R   0.223181 0.955951 0.524147 0.238376
C81   C     C_3   0.178145 0.386136 0.481202 -0.250297
C82   C     C_3   0.872293 0.683967 0.538932 -0.263874
C83   C     C_3   0.678142 0.886145 0.481205 -0.250311
C84   C     C_3   0.372296 0.183958 0.538929 -0.263874
C85   C     C_3   0.183457 0.408936 0.561513 -0.295233
C86   C     C_3   0.864331 0.712710 0.460569 -0.250022
C87   C     C_3   0.683456 0.908945 0.561516 -0.295237
C88   C     C_3   0.364335 0.212699 0.460566 -0.250030
C89   C     C_R   0.260926 0.639055 0.852189 0.544286
C90   C     C_R   0.740220 0.633036 0.149477 0.536874
C91   C     C_R   0.760926 0.139055 0.852189 0.544286
C92   C     C_R   0.240220 0.133036 0.149477 0.536876
C93   C     C_R   0.259299 0.609406 0.570113 0.059766
C94   C     C_R   0.759221 0.568536 0.419051 -0.030123
C95   C     C_R   0.759298 0.109407 0.570113 0.059763
C96   C     C_R   0.259222 0.068531 0.419049 -0.030114
C97   C     C_R   0.291124 0.995122 0.638533 0.576278
C98   C     C_R   0.728702 0.044629 0.353351 0.530328
C99   C     C_R   0.791125 0.495122 0.638533 0.576279
C100  C     C_R   0.228702 0.544630 0.353350 0.530317
C101  C     C_R   0.467006 0.823424 0.645047 0.534706
C102  C     C_R   0.527631 0.823307 0.351261 0.560862
C103  C     C_R   0.967007 0.323425 0.645048 0.534708
C104  C     C_R   0.027633 0.323306 0.351263 0.560866
C105  C     C_R   0.260326 0.637301 0.644047 0.546871
C106  C     C_R   0.740757 0.634724 0.355302 0.534137
C107  C     C_R   0.760326 0.137302 0.644047 0.546873
C108  C     C_R   0.240757 0.134722 0.355302 0.534138
C109  C     C_3   0.503738 0.935926 0.026077 0.329157
C110  C     C_3   0.553031 0.922598 0.961914 0.271437
C111  C     C_3   0.003738 0.435926 0.026077 0.329157
C112  C     C_3   0.053031 0.422598 0.961914 0.271436
C113  C     C_3   0.449475 0.848263 0.990013 -0.077655
C114  C     C_3   0.588397 0.814188 0.998988 -0.162616
C115  C     C_3   0.949475 0.348263 0.990013 -0.077655
C116  C     C_3   0.088397 0.314188 0.998988 -0.162616
C117  C     C_3   0.500150 0.833925 0.926414 0.023558
C118  C     C_3   0.537750 0.827550 0.062414 0.008399
C119  C     C_3   0.000150 0.333925 0.926415 0.023558
C120  C     C_3   0.037750 0.327551 0.062414 0.008400
Cr1   Cr    Cr6+3 0.229640 0.835880 0.747370 0.999489
Cr2   Cr    Cr6+3 0.770360 0.835880 0.252630 0.993885
Cr3   Cr    Cr6+3 0.729640 0.335880 0.747370 0.999486
Cr4   Cr    Cr6+3 0.270360 0.335880 0.252630 0.993888
Cr5   Cr    Cr6+3 0.387390 0.989720 0.750850 1.000985
Cr6   Cr    Cr6+3 0.612610 0.989720 0.249150 1.021963
Cr7   Cr    Cr6+3 0.887390 0.489720 0.750850 1.000985
Cr8   Cr    Cr6+3 0.112610 0.489720 0.249150 1.021965
Cr9   Cr    Cr6+3 0.385770 0.677220 0.749340 0.997046
Cr10  Cr    Cr6+3 0.614230 0.677220 0.250660 1.020630
Cr11  Cr    Cr6+3 0.885770 0.177220 0.749340 0.997045
Cr12  Cr    Cr6+3 0.114230 0.177220 0.250660 1.020585
H1    H     H_    0.391793 0.856892 0.985572 0.119555
H2    H     H_    0.645949 0.800911 0.003213 0.119245
H3    H     H_    0.891793 0.356892 0.985572 0.119556
H4    H     H_    0.145949 0.300911 0.003213 0.119246
H5    H     H_    0.504981 0.022136 0.564543 0.121715
H6    H     H_    0.513729 0.027478 0.433674 0.133946
H7    H     H_    0.004975 0.522145 0.564545 0.121717
H8    H     H_    0.013720 0.527482 0.433675 0.133949
H9    H     H_    0.418907 0.552689 0.427915 0.132212
H10   H     H_    0.522729 0.582635 0.556586 0.096236
H11   H     H_    0.918929 0.052694 0.427923 0.132220
H12   H     H_    0.022736 0.082627 0.556598 0.096234
H13   H     H_    0.316354 0.774754 0.544269 0.128486
H14   H     H_    0.665432 0.455572 0.424322 0.147468
H15   H     H_    0.816354 0.274754 0.544267 0.128486
H16   H     H_    0.165436 0.955558 0.424319 0.147471
H17   H     H_    0.192859 0.292783 0.465521 0.147928
H18   H     H_    0.927471 0.671653 0.556001 0.127312
H19   H     H_    0.692856 0.792794 0.465525 0.147927
H20   H     H_    0.427474 0.171644 0.555999 0.127313
H21   H     H_    0.129631 0.418885 0.456068 0.157803
H22   H     H_    0.841317 0.745049 0.573367 0.155755
H23   H     H_    0.629629 0.918891 0.456072 0.157803
H24   H     H_    0.341320 0.245041 0.573364 0.155760
H25   H     H_    0.137449 0.455742 0.584028 0.141076
H26   H     H_    0.832669 0.794619 0.451235 0.171445
H27   H     H_    0.637450 0.955750 0.584031 0.141079
H28   H     H_    0.332675 0.294611 0.451230 0.171447
H29   H     H_    0.201080 0.328381 0.591869 0.143340
H30   H     H_    0.914749 0.710802 0.431242 0.127470
H31   H     H_    0.701078 0.828392 0.591871 0.143340
H32   H     H_    0.414753 0.210785 0.431238 0.127463
H33   H     H_    0.538188 0.637736 0.934941 0.140350
H34   H     H_    0.455944 0.665877 0.054935 0.134845
H35   H     H_    0.038188 0.137736 0.934941 0.140349
H36   H     H_    0.955944 0.165877 0.054935 0.134844
H37   H     H_    0.183449 0.752908 0.946826 0.153437
H38   H     H_    0.864668 0.640541 0.082756 0.192657
H39   H     H_    0.683449 0.252908 0.946825 0.153436
H40   H     H_    0.364668 0.140541 0.082756 0.192657
H41   H     H_    0.854073 0.844250 0.048501 0.168679
H42   H     H_    0.117323 0.912585 0.931358 0.133933
H43   H     H_    0.354073 0.344250 0.048501 0.168679
H44   H     H_    0.617323 0.412585 0.931358 0.133933
H45   H     H_    0.389063 0.500319 0.066809 0.124858
H46   H     H_    0.642347 0.576421 0.921463 0.145449
H47   H     H_    0.889063 0.000319 0.066809 0.124856
H48   H     H_    0.142347 0.076421 0.921463 0.145449
H49   H     H_    0.395278 0.536205 0.939384 0.154109
H50   H     H_    0.616291 0.602173 0.050004 0.142159
H51   H     H_    0.895278 0.036205 0.939384 0.154109
H52   H     H_    0.116291 0.102173 0.050004 0.142160
H53   H     H_    0.361493 0.376742 0.922464 0.185872
H54   H     H_    0.601388 0.435830 0.057815 0.185263
H55   H     H_    0.861493 0.876742 0.922464 0.185872
H56   H     H_    0.101388 0.935830 0.057815 0.185261
O1    O     O_R   0.214300 0.709080 0.827500 -0.548468
O2    O     O_R   0.785700 0.709080 0.172500 -0.531868
O3    O     O_R   0.714300 0.209080 0.827500 -0.548468
O4    O     O_R   0.285700 0.209080 0.172500 -0.531867
O5    O     O_R   0.445900 0.919370 0.676500 -0.528462
O6    O     O_R   0.554100 0.919370 0.323500 -0.515163
O7    O     O_R   0.945900 0.419370 0.676500 -0.528465
O8    O     O_R   0.054100 0.419370 0.323500 -0.515154
O9    O     O_R   0.456660 0.717710 0.669820 -0.503397
O10   O     O_R   0.543340 0.717710 0.330180 -0.458807
O11   O     O_R   0.956660 0.217710 0.669820 -0.503392
O12   O     O_R   0.043340 0.217710 0.330180 -0.458853
O13   O     O_R   0.320590 0.625770 0.672930 -0.480690
O14   O     O_R   0.679410 0.625770 0.327070 -0.491896
O15   O     O_R   0.820590 0.125770 0.672930 -0.480689
O16   O     O_R   0.179410 0.125770 0.327070 -0.491904
O17   O     O_3   0.334270 0.834280 0.749190 -0.300870
O18   O     O_3   0.665730 0.834280 0.250810 -0.278576
O19   O     O_3   0.834270 0.334280 0.749190 -0.300870
O20   O     O_3   0.165730 0.334280 0.250810 -0.278570
O21   O     O_R   0.236190 0.958390 0.823150 -0.514681
O22   O     O_R   0.763810 0.958390 0.176850 -0.519744
O23   O     O_R   0.736190 0.458390 0.823150 -0.514681
O24   O     O_R   0.263810 0.458390 0.176850 -0.519743
O25   O     O_R   0.332090 0.075280 0.831290 -0.448565
O26   O     O_R   0.667910 0.075280 0.168710 -0.481991
O27   O     O_R   0.832090 0.575280 0.831290 -0.448564
O28   O     O_R   0.167910 0.575280 0.168710 -0.481993
O29   O     O_R   0.446280 0.918040 0.826620 -0.518412
O30   O     O_R   0.553720 0.918040 0.173380 -0.470902
O31   O     O_R   0.946280 0.418040 0.826620 -0.518412
O32   O     O_R   0.053720 0.418040 0.173380 -0.470900
O33   O     O_R   0.457080 0.716270 0.831760 -0.530286
O34   O     O_R   0.542920 0.716270 0.168240 -0.529709
O35   O     O_R   0.957080 0.216270 0.831760 -0.530287
O36   O     O_R   0.042920 0.216270 0.168240 -0.529717
O37   O     O_R   0.320980 0.624440 0.823040 -0.505770
O38   O     O_R   0.679020 0.624440 0.176960 -0.509987
O39   O     O_R   0.820980 0.124440 0.823040 -0.505769
O40   O     O_R   0.179020 0.124440 0.176960 -0.509991
O41   O     O_R   0.213880 0.710510 0.665560 -0.494911
O42   O     O_R   0.786120 0.710510 0.334440 -0.521341
O43   O     O_R   0.713880 0.210510 0.665560 -0.494915
O44   O     O_R   0.286120 0.210510 0.334440 -0.521341
O45   O     O_R   0.235800 0.959720 0.673040 -0.467894
O46   O     O_R   0.764200 0.959720 0.326960 -0.508444
O47   O     O_R   0.735800 0.459720 0.673040 -0.467893
O48   O     O_R   0.264200 0.459720 0.326960 -0.508447
O49   O     O_R   0.331670 0.076720 0.669350 -0.536013
O50   O     O_R   0.668330 0.076720 0.330650 -0.535266
O51   O     O_R   0.831670 0.576720 0.669350 -0.536013
O52   O     O_R   0.168330 0.576720 0.330650 -0.535261
O53   O     O_3   0.032534 0.053325 0.422662 -0.579913
C121  C     C_3   0.019093 0.950548 0.378574 -0.111113
H57   H     H_    0.981751 0.971254 0.334229 0.122592
H58   H     H_    0.998916 0.873093 0.410845 0.089924
H59   H     H_    0.068642 0.922840 0.353267 0.133225
O54   O     O_3   0.911923 0.037702 0.562454 -0.571646
C122  C     C_3   0.934997 0.948224 0.610308 -0.101950
H60   H     H_    0.969739 0.987375 0.653227 0.125887
H61   H     H_    0.962664 0.875906 0.580995 0.076266
H62   H     H_    0.888666 0.907314 0.637164 0.146469
O55   O     O_3   0.532513 0.553323 0.422650 -0.579887
C123  C     C_3   0.519079 0.450489 0.378620 -0.111172
H63   H     H_    0.481728 0.471109 0.334278 0.122568
H64   H     H_    0.498918 0.373086 0.410926 0.089956
H65   H     H_    0.568626 0.422765 0.353319 0.133221
O56   O     O_3   0.411916 0.537680 0.562453 -0.571654
C124  C     C_3   0.434996 0.448216 0.610312 -0.101950
H66   H     H_    0.469741 0.487366 0.653223 0.125877
H67   H     H_    0.462657 0.375902 0.581002 0.076282
H68   H     H_    0.388666 0.407305 0.637175 0.146465
O57   O     O_3   0.315538 0.767120 0.406310 -0.600708
C125  C     C_3   0.280439 0.791065 0.341305 -0.095069
H69   H     H_    0.222511 0.794546 0.347622 0.127431
H70   H     H_    0.295790 0.725416 0.299232 0.139173
H71   H     H_    0.298327 0.881695 0.322347 0.144213
O58   O     O_3   0.682973 0.364353 0.554733 -0.556447
C126  C     C_3   0.615469 0.405703 0.569053 -0.100714
H72   H     H_    0.617607 0.493257 0.599261 0.120569
H73   H     H_    0.588507 0.337866 0.603467 0.125929
H74   H     H_    0.584423 0.411957 0.518792 0.138994
O59   O     O_3   0.815541 0.267105 0.406306 -0.600706
C127  C     C_3   0.780431 0.291071 0.341311 -0.095061
H75   H     H_    0.722504 0.294554 0.347639 0.127421
H76   H     H_    0.795771 0.225433 0.299229 0.139181
H77   H     H_    0.798319 0.381704 0.322359 0.144214
O60   O     O_3   0.182977 0.864344 0.554731 -0.556449
C128  C     C_3   0.115469 0.905681 0.569043 -0.100729
H78   H     H_    0.117601 0.993217 0.599270 0.120584
H79   H     H_    0.088498 0.837824 0.603436 0.125914
H80   H     H_    0.084433 0.911962 0.518776 0.139035
O61   O     O_3   0.480307 0.038739 0.063659 -0.557349
C129  C     C_3   0.530489 0.133838 0.061208 -0.021146
H81   H     H_    0.525376 0.184689 0.010410 0.156877
H82   H     H_    0.584346 0.100279 0.067927 0.198120
H83   H     H_    0.520691 0.197981 0.105874 0.135049
O62   O     O_3   0.596361 0.014465 0.932144 -0.605728
C130  C     C_3   0.560775 0.077646 0.878111 -0.108801
H84   H     H_    0.505344 0.094969 0.891493 0.204631
H85   H     H_    0.564944 0.028465 0.826292 0.145709
H86   H     H_    0.586519 0.167992 0.871638 0.130803
O63   O     O_3   0.980307 0.538739 0.063659 -0.557349
C131  C     C_3   0.030489 0.633838 0.061208 -0.021146
H87   H     H_    0.025376 0.684689 0.010410 0.156877
H88   H     H_    0.084346 0.600279 0.067927 0.198120
H89   H     H_    0.020691 0.697981 0.105874 0.135047
O64   O     O_3   0.096361 0.514466 0.932144 -0.605728
C132  C     C_3   0.060775 0.577646 0.878111 -0.108801
H90   H     H_    0.005344 0.594969 0.891493 0.204631
H91   H     H_    0.064944 0.528465 0.826292 0.145709
H92   H     H_    0.086519 0.667992 0.871637 0.130804
F1    F     F_    0.181126 0.754702 0.083445 -0.677335
F2    F     F_    0.894249 0.613599 0.950869 -0.658283
F3    F     F_    0.681126 0.254702 0.083445 -0.677334
F4    F     F_    0.394249 0.113598 0.950869 -0.658282

loop_
_geom_bond_atom_site_label_1
_geom_bond_atom_site_label_2
_ccdc_geom_bond_type
C107  O43   A    
C132  H91   S    
Cr2   O18   S    
O63   C131  S    
C73   C93   A    
C75   C95   A    
C48   C120  S    
C129  H81   S    
C77   O57   S    
C53   H5    S    
C78   O58   S    
C16   C20   A    
C63   C98   S    
C69   C93   A    
C5    C6    S    
C20   C40   A    
C71   C95   A    
C35   H51   S    
O59   C127  S    
C22   C38   A    
C29   C33   S    
C80   O60   S    
C55   H7    S    
C34   H54   S    
Cr7   O19   S    
C8    H36   S    
Cr5   O25   S    
C12   C16   A    
C127  H75   S    
C121  H58   S    
C130  H85   S    
C58   O56   S    
Cr10  O14   S    
C96   C108  S    
C59   C60   S    
C29   H45   S    
Cr4   O20   S    
C29   H43   S    
C102  O6    A    
C30   H44   S    
C109  C118  S    
C81   H17   S    
C121  H59   S    
C26   F2    S    
C9    C25   A    
C51   C52   A    
C7    C119  S    
C62   C66   A    
C91   O3    A    
C79   O59   S    
C106  O42   A    
C36   H56   S    
Cr7   O7    S    
C66   C82   S    
C109  O61   S    
C110  O62   S    
C11   C27   A    
C68   C72   A    
C22   H38   S    
C98   O50   A    
O64   C132  S    
Cr2   O46   S    
C2    O26   A    
C100  O48   A    
Cr6   O50   S    
C122  H62   S    
C47   O35   A    
C90   O38   A    
C84   C88   S    
C37   C89   S    
C97   O49   A    
C38   C90   S    
C46   O34   A    
C131  H88   S    
C18   C38   A    
C112  O64   S    
C19   C35   S    
C76   C96   A    
C84   H24   S    
C44   C55   A    
Cr7   O27   S    
C66   C70   A    
C127  H77   S    
C56   H8    S    
Cr5   O17   S    
C87   H27   S    
C5    H33   S    
C88   H28   S    
C62   C99   S    
C72   C96   A    
C61   C65   A    
C23   H39   S    
Cr10  O38   S    
C73   C77   A    
C32   H48   S    
Cr8   O20   S    
C75   C79   A    
Cr9   O9    S    
Cr6   O30   S    
C123  H63   S    
C67   C83   S    
C4    O28   A    
C111  C112  S    
Cr11  O19   S    
C111  O63   S    
C7    C8    S    
C53   C54   A    
C64   C68   A    
C42   C53   A    
Cr1   O1    S    
O57   C125  S    
C126  H74   S    
C101  O9    A    
C83   H23   S    
Cr12  O12   S    
C81   H21   S    
C41   C102  S    
C124  H66   S    
C43   C104  S    
C9    C13   A    
C52   C60   S    
C61   C77   A    
Cr2   O22   S    
C57   O55   S    
Cr8   O32   S    
Cr9   O13   S    
C44   C52   A    
C59   H11   S    
C128  H78   S    
C104  O12   A    
C1    C12   S    
C11   C15   A    
C2    C11   S    
C44   C103  S    
C3    O23   A    
Cr1   O41   S    
C30   C34   S    
C1    O21   A    
C10   C14   A    
C17   C37   A    
C48   O36   A    
C88   H32   S    
C116  C120  S    
C73   H13   S    
Cr4   O48   S    
C7    C116  S    
C107  O15   A    
Cr10  O18   S    
C86   H26   S    
C105  O13   A    
C98   O46   A    
C30   H46   S    
C50   C58   S    
C21   C37   A    
C114  C118  S    
C76   H16   S    
C42   C50   A    
C123  H65   S    
C113  C117  S    
Cr8   O28   S    
C115  C119  S    
C74   C78   A    
C61   C100  S    
C42   C101  S    
C112  C116  S    
C69   C85   S    
C90   O2    A    
C45   C117  S    
C21   C25   A    
O54   C122  S    
C62   C78   A    
C76   C80   A    
C126  H72   S    
C15   C31   S    
C125  H69   S    
C16   C32   S    
C129  H82   S    
C13   C17   A    
C124  H68   S    
C45   O33   A    
C57   C58   S    
C115  H3    S    
C21   H37   S    
C114  H2    S    
C100  O52   A    
C24   H40   S    
O60   C128  S    
C129  H83   S    
C127  H76   S    
C49   C50   A    
C128  H80   S    
Cr9   O37   S    
Cr11  O35   S    
C4    C9    S    
C81   C85   S    
Cr5   O5    S    
C83   C87   S    
C55   C56   A    
C6    H34   S    
Cr7   O51   S    
C46   O30   A    
C85   H29   S    
C74   C94   A    
Cr1   O17   S    
C113  H1    S    
C125  H71   S    
Cr7   O31   S    
O55   C123  S    
C15   C19   A    
C17   C33   S    
C12   C28   A    
C13   C29   S    
C70   C94   A    
Cr12  O40   S    
C108  O44   A    
C46   C118  S    
C41   C49   A    
C7    H35   S    
Cr6   O26   S    
C94   C106  S    
Cr11  O15   S    
C99   O51   A    
C64   C80   A    
C103  O7    A    
C110  C117  S    
C101  O5    A    
Cr2   O2    S    
C3    O27   A    
C83   H19   S    
C122  H61   S    
Cr12  O16   S    
C68   C84   S    
C24   C28   A    
Cr10  O34   S    
Cr4   O24   S    
C75   H15   S    
C82   C86   S    
C32   H42   S    
C31   H47   S    
C105  O41   A    
Cr9   O17   S    
Cr6   O6    S    
C65   C81   S    
C130  H84   S    
C121  H57   S    
C104  O8    A    
C130  H86   S    
C95   C107  S    
Cr3   O47   S    
Cr1   O45   S    
C1    O25   A    
C31   C35   S    
Cr3   O3    S    
C32   C36   S    
Cr4   O4    S    
Cr5   O49   S    
C123  H64   S    
C48   O32   A    
C91   O39   A    
Cr12  O36   S    
C74   H14   S    
C89   O37   A    
C112  C119  S    
C116  H4    S    
Cr8   O52   S    
C57   H9    S    
C109  C110  S    
C60   H12   S    
C126  H73   S    
C43   C51   A    
Cr6   O18   S    
C65   C69   A    
C67   C71   A    
C20   C36   S    
Cr11  O39   S    
Cr3   O43   S    
C92   O40   A    
C35   H55   S    
C22   C26   A    
C89   O1    A    
C33   H53   S    
C92   O4    A    
Cr5   O29   S    
C87   H31   S    
C60   O54   S    
C5    C114  S    
C45   O29   A    
C132  H90   S    
C14   C18   A    
C49   C57   S    
C63   C79   A    
C131  H87   S    
O53   C121  S    
C102  O10   A    
O62   C130  S    
C25   F1    S    
C27   F3    S    
C58   H10   S    
C28   F4    S    
C8    C115  S    
C93   C105  S    
Cr3   O23   S    
C36   H52   S    
C23   C27   A    
C109  C113  S    
C10   C26   A    
C47   C119  S    
C14   C30   S    
C72   C88   S    
Cr2   O42   S    
C63   C67   A    
C2    O22   A    
Cr9   O33   S    
C125  H70   S    
O61   C129  S    
C47   O31   A    
C5    C117  S    
C111  C120  S    
C124  H67   S    
Cr11  O11   S    
C6    C113  S    
C106  O14   A    
C99   O47   A    
C97   O45   A    
O56   C124  S    
Cr3   O19   S    
C103  O11   A    
C40   C92   S    
C18   C34   S    
C82   H18   S    
C19   C39   A    
C86   H30   S    
C84   H20   S    
Cr12  O20   S    
Cr1   O21   S    
C128  H79   S    
C132  H92   S    
C71   C87   S    
C51   C59   S    
C70   C86   S    
C8    C120  S    
C31   H41   S    
C110  C114  S    
C64   C97   S    
C39   C91   S    
C131  H89   S    
Cr8   O8    S    
C122  H60   S    
Cr4   O44   S    
C4    O24   A    
C59   O53   S    
C108  O16   A    
C3    C10   S    
C33   H49   S    
C54   H6    S    
C23   C39   A    
C24   C40   A    
C34   H50   S    
C41   C54   A    
O58   C126  S    
C82   H22   S    
C43   C56   A    
C85   H25   S    
C111  C115  S    
Cr10  O10   S    
C6    C118  S    
