data_mof_unit_9951.cif
_audit_creation_date              2012-10-26T20:33:40-0400
_audit_creation_method            fapswitch 2.2
_symmetry_space_group_name_H-M    P1
_symmetry_Int_Tables_number       1
_space_group_crystal_system       triclinic
_cell_length_a                    10.795005
_cell_length_b                    9.086322
_cell_length_c                    7.858057
_cell_angle_alpha                 90.0
_cell_angle_beta                  89.954551
_cell_angle_gamma                 90.000085
_cell_volume                      770.77214125

loop_
_atom_site_label
_atom_site_type_symbol
_atom_type_description
_atom_site_fract_x
_atom_site_fract_y
_atom_site_fract_z
_atom_type_partial_charge
C1    C     C_R   0.500000 0.220328 0.500000 0.533598
C2    C     C_1   0.500000 0.934547 0.500000 -0.021350
C3    C     C_3   0.070165 0.643131 0.521285 -0.219654
C4    C     C_3   0.929826 0.643127 0.478736 -0.219648
C5    C     C_3   0.122249 0.483785 0.501584 -0.038980
C6    C     C_3   0.877749 0.483775 0.498420 -0.038966
C7    C     C_R   0.259946 0.489870 0.500488 0.547166
C8    C     C_R   0.740053 0.489856 0.499513 0.547172
C9    C     C_R   0.500000 0.779667 0.500000 0.538092
C10   C     C_1   0.500000 0.065457 0.500000 -0.017839
C11   C     C_3   0.067569 0.381681 0.646671 0.119085
C12   C     C_3   0.072121 0.419417 0.329262 0.131930
C13   C     C_3   0.927877 0.419400 0.670736 0.131927
C14   C     C_3   0.932436 0.381677 0.353334 0.119095
Cl1   Cl    Cl    0.148758 0.361560 0.843114 -0.428012
Cl2   Cl    Cl    0.096534 0.549200 0.158878 -0.410643
Cl3   Cl    Cl    0.903446 0.549166 0.841133 -0.410623
Cl4   Cl    Cl    0.851238 0.361517 0.156904 -0.428024
Cu1   Cu    Cu3+1 0.500000 0.500010 0.669080 1.142654
Cu2   Cu    Cu3+1 0.500000 0.500010 0.330920 1.142656
H1    H     H_    0.073385 0.266211 0.600088 0.068437
H2    H     H_    0.122699 0.316679 0.295594 0.145500
H3    H     H_    0.877308 0.316649 0.704388 0.145478
H4    H     H_    0.926639 0.266206 0.399923 0.068429
H5    H     H_    0.086045 0.682851 0.653236 0.209249
H6    H     H_    0.118900 0.722691 0.437046 0.162184
H7    H     H_    0.881085 0.722677 0.562984 0.162187
H8    H     H_    0.913942 0.682860 0.346791 0.209239
N1    N     N_1   0.500000 0.499970 0.076820 -0.025282
N2    N     N_1   0.500000 0.499970 0.923180 -0.025282
O1    O     O_R   0.500000 0.288400 0.642760 -0.497186
O2    O     O_R   0.500000 0.288400 0.357240 -0.497184
O3    O     O_R   0.317700 0.499990 0.642790 -0.449210
O4    O     O_R   0.317700 0.499990 0.357210 -0.474190
O5    O     O_R   0.682300 0.499990 0.642790 -0.474183
O6    O     O_R   0.682300 0.499990 0.357210 -0.449206
O7    O     O_R   0.500000 0.711620 0.642810 -0.499308
O8    O     O_R   0.500000 0.711620 0.357190 -0.499306

loop_
_geom_bond_atom_site_label_1
_geom_bond_atom_site_label_2
_ccdc_geom_bond_type
C2    C9    S    
C8    O6    A    
N1    N2    T    
C6    C14   S    
Cu2   O8    S    
C14   Cl4   S    
Cu1   Cu2   S    
C13   Cl3   S    
Cu1   O1    S    
C4    H7    S    
C9    O7    A    
Cu2   O4    S    
Cu1   O5    S    
C6    C13   S    
C11   C13   S    
C9    O8    A    
C4    H8    S    
C12   C14   S    
C5    C11   S    
Cu2   N1    S    
C1    O2    A    
Cu1   O3    S    
C7    O4    A    
C7    O3    A    
C3    C4    S    
C2    C10   T    
C12   H2    S    
C1    O1    A    
C3    H5    S    
C13   H3    S    
C5    C12   S    
C4    C6    S    
Cu2   O2    S    
C14   H4    S    
C5    C7    S    
C6    C8    S    
Cu1   O7    S    
Cu1   N2    S    
C11   Cl1   S    
C11   H1    S    
C3    H6    S    
C1    C10   S    
C12   Cl2   S    
C3    C5    S    
C8    O5    A    
Cu2   O6    S    
