data_mof_unit_59401.cif
_audit_creation_date              2012-12-11T14:08:09-0500
_audit_creation_method            fapswitch 2.2
_symmetry_space_group_name_H-M    P1
_symmetry_Int_Tables_number       1
_space_group_crystal_system       triclinic
_cell_length_a                    11.048995
_cell_length_b                    10.91225
_cell_length_c                    18.56327
_cell_angle_alpha                 90.126467
_cell_angle_beta                  89.168511
_cell_angle_gamma                 60.202093
_cell_volume                      1941.92157018

loop_
_atom_site_label
_atom_site_type_symbol
_atom_type_description
_atom_site_fract_x
_atom_site_fract_y
_atom_site_fract_z
_atom_type_partial_charge
C1    C     C_R   0.309379 0.613559 0.612338 0.575222
C2    C     C_3   0.715897 0.566675 0.796982 -0.134513
C3    C     C_3   0.737265 0.698526 0.804407 0.048543
C4    C     C_3   0.678048 0.665845 0.671941 0.048995
C5    C     C_3   0.833022 0.628398 0.677747 -0.239812
C6    C     C_3   0.647316 0.575136 0.725047 -0.217288
C7    C     C_2   0.654105 0.186901 0.678474 -0.085771
C8    C     C_2   0.672021 0.204308 0.841693 0.276608
C9    C     C_2   0.770707 0.169400 0.791409 -0.122019
C10   C     C_2   0.740368 0.213326 0.716604 -0.141869
C11   C     C_2   0.308706 0.607863 0.691317 -0.140172
C12   C     C_R   0.655070 0.627294 0.599206 0.544157
C13   C     C_2   0.211387 0.654707 0.843469 -0.118037
C14   C     C_2   0.229485 0.543410 0.803644 -0.116001
C15   C     C_2   0.285216 0.515712 0.728503 -0.128900
C16   C     C_2   0.649273 0.644846 0.316348 -0.118857
C17   C     C_2   0.632080 0.661860 0.158588 -0.107790
C18   C     C_2   0.705151 0.541860 0.194330 -0.175725
C19   C     C_2   0.685369 0.534426 0.271402 -0.162061
C20   C     C_2   0.675669 0.132460 0.335193 -0.152127
C21   C     C_2   0.651589 0.139595 0.181433 -0.054137
C22   C     C_2   0.592847 0.081699 0.224153 0.240763
C23   C     C_R   0.622196 0.236069 0.604404 0.528303
C24   C     C_2   0.592327 0.095120 0.302286 -0.156820
C25   C     C_2   0.318929 0.594511 0.318160 -0.092871
C26   C     C_2   0.178363 0.649651 0.176814 0.261154
C27   C     C_2   0.257171 0.704799 0.199900 -0.131940
C28   C     C_2   0.297960 0.699978 0.274940 -0.161333
C29   C     C_R   0.700415 0.108149 0.900915 0.553096
C30   C     C_R   0.759942 0.713660 0.882830 0.573597
C31   C     C_R   0.120245 0.705471 0.907441 0.543389
C32   C     C_R   0.676413 0.101256 0.106278 0.558192
C33   C     C_R   0.692108 0.687678 0.094354 0.566442
C34   C     C_R   0.304340 0.613005 0.395640 0.582890
C35   C     C_R   0.096880 0.706855 0.112119 0.548348
C36   C     C_R   0.641389 0.621194 0.392489 0.533727
C37   C     C_R   0.621970 0.221166 0.398350 0.545467
C38   C     C_3   0.602408 0.833796 0.777464 -0.177651
C39   C     C_3   0.584201 0.824188 0.695033 0.136858
C40   C     C_3   0.858655 0.680310 0.752038 0.117268
Cr1   Cr    Cr6+3 0.393010 0.398050 0.501480 0.987833
Cr2   Cr    Cr6+3 0.398820 0.707980 0.501630 1.013571
Cr3   Cr    Cr6+3 0.708140 0.393940 0.496850 0.991878
Cr4   Cr    Cr6+3 0.937950 0.938450 0.008940 0.996233
Cr5   Cr    Cr6+3 0.626180 0.937030 0.994750 1.014148
Cr6   Cr    Cr6+3 0.937790 0.625760 0.001410 1.005085
H1    H     H_    0.607123 0.931256 0.789458 0.147901
H2    H     H_    0.678236 0.470128 0.702882 0.147214
H3    H     H_    0.960478 0.599223 0.773108 0.115352
H4    H     H_    0.903113 0.512249 0.673293 0.114494
H5    H     H_    0.877639 0.097660 0.805103 0.101410
H6    H     H_    0.808871 0.242658 0.688725 0.122328
H7    H     H_    0.594478 0.144315 0.704673 0.120290
H8    H     H_    0.188295 0.477629 0.823478 0.125172
H9    H     H_    0.283213 0.429617 0.700125 0.143896
H10   H     H_    0.255001 0.719732 0.826724 0.087756
H11   H     H_    0.509057 0.843837 0.806671 0.142388
H12   H     H_    0.313296 0.692865 0.718291 0.112609
H13   H     H_    0.792818 0.450357 0.168929 0.150629
H14   H     H_    0.714988 0.430513 0.292473 0.153045
H15   H     H_    0.539708 0.749577 0.182997 0.130812
H16   H     H_    0.618894 0.750095 0.297309 0.113731
H17   H     H_    0.507839 0.093252 0.331998 0.144356
H18   H     H_    0.696527 0.200481 0.202642 0.029973
H19   H     H_    0.769287 0.121789 0.309399 0.094898
H20   H     H_    0.265446 0.783055 0.167396 0.099480
H21   H     H_    0.291472 0.795554 0.296835 0.138345
H22   H     H_    0.340689 0.493003 0.296661 0.164405
H23   H     H_    0.624220 0.886258 0.665272 0.114891
H24   H     H_    0.860062 0.670802 0.629914 0.098502
H25   H     H_    0.641200 0.574830 0.839978 0.136869
H26   H     H_    0.533670 0.624630 0.734593 0.139064
O1    O     O_R   0.507110 0.256280 0.580300 -0.538240
O2    O     O_R   0.524640 0.695370 0.425100 -0.521433
O3    O     O_R   0.735890 0.504390 0.415980 -0.513627
O4    O     O_R   0.690560 0.277820 0.422350 -0.499509
O5    O     O_3   0.499990 0.499990 0.499980 -0.300954
O6    O     O_R   0.089190 0.825870 0.932320 -0.518033
O7    O     O_R   0.819070 0.053960 0.931440 -0.529104
O8    O     O_R   0.607070 0.076440 0.916460 -0.521348
O9    O     O_R   0.647110 0.806550 0.917690 -0.524336
O10   O     O_R   0.837080 0.593860 0.915300 -0.537818
O11   O     O_R   0.064770 0.636080 0.932550 -0.518211
O12   O     O_R   0.280830 0.527190 0.577940 -0.504510
O13   O     O_R   0.068250 0.829200 0.092940 -0.548123
O14   O     O_R   0.799650 0.057040 0.080330 -0.511819
O15   O     O_R   0.586130 0.079760 0.077080 -0.474873
O16   O     O_R   0.627700 0.809630 0.066580 -0.466353
O17   O     O_R   0.816140 0.597180 0.075920 -0.518241
O18   O     O_R   0.045360 0.639170 0.081440 -0.482059
O19   O     O_3   0.833980 0.833750 0.001700 -0.260538
O20   O     O_R   0.261360 0.738990 0.584270 -0.511683
O21   O     O_R   0.532590 0.694780 0.574370 -0.463253
O22   O     O_R   0.744470 0.503750 0.577000 -0.538745
O23   O     O_R   0.698520 0.277230 0.571620 -0.498287
O24   O     O_R   0.498530 0.256920 0.419280 -0.530720
O25   O     O_R   0.272880 0.527780 0.428680 -0.502969
O26   O     O_R   0.252780 0.739630 0.423250 -0.511570
O27   O     O_3   0.542380 0.323709 0.835971 -0.563520
C41   C     C_3   0.522849 0.415425 0.895072 -0.015919
H27   H     H_    0.470447 0.524686 0.874987 0.142749
H28   H     H_    0.621671 0.400501 0.918778 0.100177
C42   C     C_3   0.432012 0.404337 0.954744 -0.348869
H29   H     H_    0.495903 0.313878 0.990080 0.153599
H30   H     H_    0.384816 0.501712 0.988634 0.099242
H31   H     H_    0.347575 0.390313 0.931712 0.174993
O28   O     O_3   0.532477 0.007820 0.194588 -0.532166
C43   C     C_3   0.388172 0.075169 0.212429 -0.012896
H32   H     H_    0.341599 0.189875 0.226011 0.144971
H33   H     H_    0.372249 0.020854 0.259142 0.112176
C44   C     C_3   0.308468 0.064368 0.148799 -0.339820
H34   H     H_    0.349417 0.952404 0.132976 0.143426
H35   H     H_    0.196258 0.111674 0.163702 0.087385
H36   H     H_    0.318661 0.122265 0.102124 0.170586
O29   O     O_3   0.441284 0.874185 0.680737 -0.558080
C45   C     C_3   0.369707 0.022443 0.672047 -0.011150
H37   H     H_    0.402524 0.049892 0.620417 0.146476
H38   H     H_    0.389451 0.076824 0.717436 0.117937
C46   C     C_3   0.213606 0.076977 0.670120 -0.372527
H39   H     H_    0.177961 0.052118 0.721461 0.139912
H40   H     H_    0.156835 0.193312 0.663070 0.086843
H41   H     H_    0.189290 0.027303 0.624489 0.173139
O30   O     O_3   0.169533 0.543709 0.213494 -0.585219
C47   C     C_3   0.039636 0.601474 0.250368 -0.010727
H42   H     H_    0.952141 0.638537 0.211987 0.164763
H43   H     H_    0.022499 0.691124 0.286135 0.137978
C48   C     C_3   0.038676 0.487585 0.297045 -0.366061
H44   H     H_    0.129433 0.442643 0.333360 0.171394
H45   H     H_    0.941719 0.533522 0.330431 0.131590
H46   H     H_    0.043990 0.401714 0.262510 0.145947
O31   O     O_3   0.860262 0.810313 0.746825 -0.585835
C49   C     C_3   0.952937 0.805616 0.691592 0.003413
H47   H     H_    0.893309 0.851859 0.641682 0.140090
H48   H     H_    0.037212 0.696685 0.678925 0.144906
C50   C     C_3   0.019503 0.892900 0.712045 -0.371638
H49   H     H_    0.115351 0.861628 0.681629 0.143071
H50   H     H_    0.956725 0.000587 0.693447 0.122001
H51   H     H_    0.040930 0.886783 0.770270 0.166435
C51   C     C_3   0.851434 0.420352 0.805254 -0.384366
H52   H     H_    0.942905 0.426815 0.823398 0.145037
H53   H     H_    0.833167 0.356808 0.845862 0.141729
H54   H     H_    0.887353 0.359227 0.754277 0.107303

loop_
_geom_bond_atom_site_label_1
_geom_bond_atom_site_label_2
_ccdc_geom_bond_type
C7    C10   D    
C50   H51   S    
Cr2   O21   S    
C35   O13   A    
C44   H34   S    
C1    C11   S    
C10   H6    S    
Cr3   O22   S    
O30   C47   S    
C44   H35   S    
Cr6   O17   S    
C43   H32   S    
C25   C28   D    
C6    H26   S    
C26   C27   D    
C17   C33   S    
C2    C51   S    
Cr5   O15   S    
C8    O27   S    
Cr2   O26   S    
Cr1   O5    S    
C38   C39   S    
C51   H54   S    
C24   H17   S    
Cr1   O24   S    
C40   H3    S    
C37   O4    A    
C34   O25   A    
C31   O11   A    
C45   H37   S    
C18   C19   S    
C21   H18   S    
C17   H15   S    
Cr6   O10   S    
C11   C15   D    
C20   C24   D    
C3    C38   S    
C43   H33   S    
C8    C9    D    
C9    H5    S    
Cr5   O19   S    
Cr3   O23   S    
O28   C43   S    
C44   H36   S    
C11   H12   S    
C9    C10   S    
Cr2   O20   S    
C25   C34   S    
C13   H10   S    
C21   C22   D    
C12   O22   A    
C22   O28   S    
C2    C6    S    
C25   H22   S    
C16   H16   S    
C23   O1    A    
Cr4   O14   S    
C13   C31   S    
C46   H40   S    
Cr3   O3    S    
C21   C32   S    
Cr2   O2    S    
C49   C50   S    
C20   H19   S    
C50   H49   S    
Cr5   O16   S    
C4    C6    S    
C49   H47   S    
Cr6   O19   S    
Cr1   O12   S    
C41   C42   S    
C37   O24   A    
C1    O12   A    
C15   H9    S    
C30   O10   A    
C3    C30   S    
C48   H45   S    
C5    H24   S    
C36   O3    A    
C33   O17   A    
C38   H11   S    
C18   H13   S    
O27   C41   S    
C29   O7    A    
C4    C39   S    
C46   H39   S    
C32   O14   A    
C28   H21   S    
C41   H28   S    
C17   C18   D    
C39   H23   S    
C42   H30   S    
C38   H1    S    
Cr4   O19   S    
C6    H2    S    
C45   H38   S    
C47   C48   S    
C14   H8    S    
C40   O31   S    
C3    C40   S    
C1    O20   A    
C39   O29   S    
Cr1   O25   S    
C5    H4    S    
C4    C12   S    
C26   O30   S    
C8    C29   S    
Cr4   O13   S    
C27   C28   S    
C31   O6    A    
C47   H43   S    
C46   H41   S    
Cr3   O4    S    
C50   H50   S    
C36   O2    A    
C33   O16   A    
Cr4   O7    S    
Cr5   O9    S    
C4    C5    S    
C51   H52   S    
C45   C46   S    
C48   H44   S    
Cr6   O18   S    
C19   H14   S    
Cr3   O5    S    
Cr5   O8    S    
C43   C44   S    
C30   O9    A    
Cr4   O6    S    
C2    C3    S    
C48   H46   S    
C27   H20   S    
C16   C36   S    
C20   C37   S    
C51   H53   S    
O29   C45   S    
C29   O8    A    
C16   C19   D    
C7    C23   S    
C41   H27   S    
C34   O26   A    
C23   O23   A    
C42   H31   S    
C22   C24   S    
O31   C49   S    
C12   O21   A    
Cr1   O1    S    
Cr6   O11   S    
C35   O18   A    
C26   C35   S    
C32   O15   A    
Cr2   O5    S    
C49   H48   S    
C5    C40   S    
C42   H29   S    
C7    H7    S    
C14   C15   S    
C13   C14   D    
C2    H25   S    
C47   H42   S    
