data_mof_unit_33901.cif
_audit_creation_date              2012-12-11T17:43:14-0500
_audit_creation_method            fapswitch 2.2
_symmetry_space_group_name_H-M    P1
_symmetry_Int_Tables_number       1
_space_group_crystal_system       triclinic
_cell_length_a                    15.064188
_cell_length_b                    15.306044
_cell_length_c                    16.952709
_cell_angle_alpha                 108.75083
_cell_angle_beta                  105.998784
_cell_angle_gamma                 109.724157
_cell_volume                      3144.12581497

loop_
_atom_site_label
_atom_site_type_symbol
_atom_type_description
_atom_site_fract_x
_atom_site_fract_y
_atom_site_fract_z
_atom_type_partial_charge
C1    C     C_R   0.084561 0.291062 0.079940 -0.157391
C2    C     C_R   0.092552 0.105743 0.077826 -0.295633
C3    C     C_R   0.003120 0.918604 0.011984 0.099021
C4    C     C_R   0.997190 0.107188 0.057578 0.126387
C5    C     C_R   0.096797 0.013270 0.051706 0.101635
C6    C     C_R   0.904992 0.015345 0.026913 0.080027
C7    C     C_R   0.715001 0.949117 0.933233 -0.245026
C8    C     C_R   0.276387 0.058690 0.153042 -0.286310
C9    C     C_R   0.613523 0.015829 0.998122 -0.162752
C10   C     C_R   0.403492 0.051477 0.093318 -0.145255
C11   C     C_R   0.487659 0.530142 0.265160 -0.113266
C12   C     C_R   0.911940 0.719960 0.944934 -0.134459
C13   C     C_R   0.494563 0.393722 0.640793 -0.118189
C14   C     C_R   0.481925 0.520052 0.178738 -0.126885
C15   C     C_R   0.482884 0.375800 0.714178 -0.144555
C16   C     C_R   0.934728 0.453619 0.734483 -0.119786
C17   C     C_R   0.063966 0.481795 0.253501 -0.141432
C18   C     C_R   0.442210 0.420854 0.105124 0.110630
C19   C     C_R   0.489340 0.454857 0.789678 0.111747
C20   C     C_R   0.411332 0.332371 0.120122 -0.186201
C21   C     C_R   0.508666 0.552126 0.791058 -0.184381
C22   C     C_R   0.417078 0.342995 0.206707 -0.118746
C23   C     C_R   0.026721 0.471205 0.724385 0.055834
C24   C     C_R   0.522051 0.570064 0.718387 -0.117403
C25   C     C_R   0.454902 0.441639 0.279034 -0.106061
C26   C     C_R   0.514666 0.490764 0.643136 -0.092969
C27   C     C_R   0.497666 0.375704 0.982594 -0.236457
C28   C     C_R   0.394083 0.454142 0.885865 -0.234641
C29   C     C_R   0.529213 0.403474 0.920020 0.057394
C30   C     C_R   0.381434 0.449681 0.963235 0.063613
C31   C     C_R   0.470856 0.435335 0.865202 0.027603
C32   C     C_R   0.434492 0.410293 0.012922 0.011163
C33   C     C_R   0.620581 0.950927 0.923147 -0.109315
C34   C     C_R   0.972228 0.423008 0.255488 0.066183
C35   C     C_R   0.376609 0.071196 0.167309 -0.117862
C36   C     C_R   0.963640 0.383179 0.322300 0.192922
C37   C     C_R   0.035205 0.426898 0.637953 0.127523
C38   C     C_R   0.139846 0.441118 0.552649 -0.215632
C39   C     C_R   0.858512 0.312368 0.393206 -0.257076
C40   C     C_R   0.723023 0.213323 0.822465 -0.138316
C41   C     C_R   0.225762 0.795974 0.189146 -0.138177
C42   C     C_R   0.133336 0.457500 0.635903 -0.165884
C43   C     C_R   0.865360 0.329664 0.319161 -0.119810
C44   C     C_R   0.944130 0.363868 0.554998 -0.271949
C45   C     C_R   0.666913 0.214049 0.743281 0.068300
C46   C     C_R   0.054491 0.408190 0.395530 -0.294712
C47   C     C_R   0.949845 0.353166 0.472471 0.193376
C48   C     C_R   0.048518 0.397176 0.472271 0.163003
C49   C     C_R   0.559091 0.137852 0.676118 0.129530
C50   C     C_R   0.280472 0.893795 0.361535 0.134514
C51   C     C_R   0.384747 0.081193 0.445987 -0.233222
C52   C     C_R   0.412351 0.965508 0.607280 -0.227001
C53   C     C_R   0.314921 0.992170 0.363541 -0.177044
C54   C     C_R   0.505278 0.046486 0.681521 -0.179018
C55   C     C_R   0.300113 0.887066 0.444645 -0.282702
C56   C     C_R   0.240317 0.800173 0.275107 0.059385
C57   C     C_R   0.512726 0.152027 0.600821 -0.307535
C58   C     C_R   0.374233 0.975114 0.527065 0.191262
C59   C     C_R   0.421391 0.071341 0.526106 0.199660
C60   C     C_R   0.700329 0.077801 0.083990 -0.289862
C61   C     C_R   0.330563 0.020276 0.004989 -0.298679
C62   C     C_R   0.795345 0.075974 0.095069 0.565480
C63   C     C_R   0.229795 0.008388 0.990217 0.567076
C64   C     C_R   0.279191 0.552256 0.968605 -0.143488
C65   C     C_R   0.697818 0.400743 0.991811 -0.120871
C66   C     C_R   0.803708 0.013347 0.018540 -0.052923
C67   C     C_R   0.309525 0.482143 0.988114 0.052963
C68   C     C_R   0.201420 0.023723 0.064177 -0.044210
C69   C     C_R   0.726599 0.307846 0.746112 -0.141810
C70   C     C_R   0.217292 0.700467 0.265196 -0.126937
C71   C     C_R   0.257482 0.445864 0.034631 -0.123237
C72   C     C_R   0.704074 0.498136 0.918427 -0.137525
C73   C     C_R   0.108755 0.542768 0.810644 -0.117445
C74   C     C_R   0.890682 0.398981 0.176508 -0.116901
C75   C     C_R   0.912222 0.202974 0.995427 -0.134275
C76   C     C_R   0.086387 0.801700 0.017520 -0.138255
C77   C     C_R   0.996354 0.197928 0.048294 0.104635
C78   C     C_R   0.637813 0.429906 0.938430 0.063050
C79   C     C_R   0.000838 0.817311 0.988443 0.086828
C80   C     C_3   0.883379 0.078695 0.229161 0.261567
C81   C     C_3   0.995542 0.121167 0.297352 -0.868831
C82   C     C_3   0.179703 0.069577 0.889820 0.249315
C83   C     C_3   0.091666 0.043596 0.801950 -0.848141
C84   C     C_R   0.909426 0.922045 0.004626 -0.289983
H1    H     H_    0.161631 0.320802 0.132946 0.100834
H2    H     H_    0.466479 0.300082 0.711385 0.126068
H3    H     H_    0.381464 0.255430 0.064564 0.106966
H4    H     H_    0.513923 0.614189 0.848712 0.115821
H5    H     H_    0.392058 0.274921 0.217923 0.130867
H6    H     H_    0.537379 0.645194 0.720129 0.105671
H7    H     H_    0.537378 0.346603 0.022542 0.126303
H8    H     H_    0.347889 0.477710 0.844169 0.125920
H9    H     H_    0.130825 0.445875 0.397962 0.118164
H10   H     H_    0.867873 0.333962 0.554616 0.116672
H11   H     H_    0.793666 0.307319 0.262923 0.100471
H12   H     H_    0.831515 0.699836 0.906920 0.096630
H13   H     H_    0.205259 0.500532 0.698467 0.113651
H14   H     H_    0.216137 0.472295 0.552847 0.130528
H15   H     H_    0.782234 0.276989 0.392074 0.125485
H16   H     H_    0.855481 0.404096 0.682101 0.093821
H17   H     H_    0.142505 0.501585 0.296630 0.087790
H18   H     H_    0.553061 0.902713 0.856879 0.114092
H19   H     H_    0.433709 0.097091 0.235907 0.119520
H20   H     H_    0.552480 0.221089 0.594889 0.115749
H21   H     H_    0.268905 0.812421 0.444973 0.118979
H22   H     H_    0.537465 0.034080 0.739860 0.115874
H23   H     H_    0.719846 0.899893 0.873965 0.141097
H24   H     H_    0.296141 0.000362 0.301252 0.116255
H25   H     H_    0.418092 0.155440 0.445041 0.118595
H26   H     H_    0.375790 0.892616 0.609587 0.126684
H27   H     H_    0.540523 0.017775 0.989406 0.124677
H28   H     H_    0.481359 0.061683 0.104970 0.123461
H29   H     H_    0.693651 0.126776 0.141960 0.127573
H30   H     H_    0.352467 0.006420 0.948202 0.133285
H31   H     H_    0.694944 0.160321 0.849692 0.093306
H32   H     H_    0.241355 0.860459 0.173379 0.106820
H33   H     H_    0.313307 0.601807 0.940770 0.091238
H34   H     H_    0.256711 0.076612 0.210978 0.142925
H35   H     H_    0.670883 0.338087 0.009642 0.085479
H36   H     H_    0.701479 0.342329 0.703807 0.092704
H37   H     H_    0.221312 0.674712 0.317620 0.094799
H38   H     H_    0.257761 0.388117 0.057637 0.114916
H39   H     H_    0.684771 0.531415 0.873263 0.116279
H40   H     H_    0.190148 0.579670 0.826226 0.085497
H41   H     H_    0.809662 0.342423 0.148461 0.089763
H42   H     H_    0.830350 0.148650 0.963213 0.112326
H43   H     H_    0.167452 0.851943 0.041899 0.118796
H44   H     H_    0.838644 0.852258 0.982293 0.133949
H45   H     H_    0.459102 0.449508 0.345917 0.099080
H46   H     H_    0.164963 0.175834 0.104963 0.127527
H47   H     H_    0.854085 0.994094 0.183886 0.076740
H48   H     H_    0.835258 0.085857 0.267830 0.107400
H49   H     H_    0.027478 0.204246 0.346417 0.263090
H50   H     H_    0.998279 0.075909 0.336873 0.209011
H51   H     H_    0.044666 0.114445 0.259728 0.252967
H52   H     H_    0.254114 0.095969 0.882406 0.093520
H53   H     H_    0.184946 0.134824 0.947911 0.083935
H54   H     H_    0.016654 0.018445 0.808167 0.253821
H55   H     H_    0.108043 0.113688 0.790381 0.208486
H56   H     H_    0.523862 0.504256 0.586322 0.096834
H57   H     H_    0.084791 0.979832 0.741944 0.254417
H58   H     H_    0.517356 0.606574 0.321341 0.108990
H59   H     H_    0.486851 0.332367 0.581322 0.099615
H60   H     H_    0.507427 0.589241 0.168802 0.111430
N1    N     N_R   0.055660 0.348550 0.045620 -0.040562
N2    N     N_R   0.185200 0.638170 0.176300 -0.042182
N3    N     N_R   0.201680 0.494570 0.045620 -0.042586
N4    N     N_R   0.798320 0.505430 0.954380 -0.041897
N5    N     N_R   0.068420 0.560530 0.871650 -0.039768
N6    N     N_R   0.931580 0.439470 0.128350 -0.040840
N7    N     N_R   0.948070 0.295860 0.997670 -0.041863
N8    N     N_R   0.051930 0.704140 0.002330 -0.044196
N9    N     N_R   0.944340 0.651450 0.954380 -0.041018
N10   N     N_R   0.960830 0.507850 0.823700 -0.041497
N11   N     N_R   0.039170 0.492150 0.176300 -0.039051
N12   N     N_R   0.811290 0.303410 0.871650 -0.039372
N13   N     N_R   0.188710 0.696590 0.128350 -0.042253
N14   N     N_R   0.205200 0.552990 0.997670 -0.039585
N15   N     N_R   0.794800 0.447010 0.002330 -0.041554
N16   N     N_R   0.814800 0.361830 0.823700 -0.039359
Ni1   Ni    Ni4+2 0.119340 0.493420 0.109960 0.214734
Ni2   Ni    Ni4+2 0.880660 0.506580 0.890040 0.216089
Ni3   Ni    Ni4+2 0.872590 0.372590 0.000000 0.213543
Ni4   Ni    Ni4+2 0.127410 0.627410 0.000000 0.222024
O1    O     O_3   0.880959 0.137602 0.179954 -0.643478
O2    O     O_3   0.158245 0.979722 0.903497 -0.633690

loop_
_geom_bond_atom_site_label_1
_geom_bond_atom_site_label_2
_ccdc_geom_bond_type
C84   H44   S    
C71   N3    A    
C12   C79   A    
C9    H27   S    
C80   H48   S    
C27   C29   A    
C1    C77   A    
C14   C18   A    
C71   H38   S    
C1    N1    A    
C53   H24   S    
C76   C79   A    
C12   N9    A    
C38   H14   S    
C19   C31   S    
C83   H55   S    
C8    H34   S    
C81   H50   S    
N2    N13   A    
N11   Ni1   S    
C15   C19   A    
N6    Ni3   S    
C55   H21   S    
C19   C21   A    
C24   C26   A    
C38   C42   A    
C82   H53   S    
C26   H56   S    
C11   C14   A    
C57   C59   A    
C40   H31   S    
C11   C25   A    
C49   C54   A    
C20   H3    S    
C69   N16   A    
C49   C57   A    
C60   C62   A    
C37   C42   A    
C61   C63   A    
C17   H17   S    
C72   C78   A    
C63   O2    S    
C29   C78   S    
N12   Ni3   S    
C75   N7    A    
C40   N12   A    
C22   C25   A    
C43   H11   S    
C27   H7    S    
C10   C35   A    
C70   N2    A    
N15   Ni3   S    
C52   H26   S    
C18   C20   A    
C30   C67   S    
C44   C47   A    
N14   Ni4   S    
C21   H4    S    
C25   H45   S    
C65   N15   A    
C51   H25   S    
C80   H47   S    
C9    C33   A    
C7    C33   A    
C60   H29   S    
C23   C73   A    
C5    C68   S    
C52   C54   A    
C81   H51   S    
C46   C48   A    
C1    H1    S    
C40   C45   A    
N2    Ni1   S    
C14   H60   S    
C50   C53   A    
C6    C84   A    
C62   C66   A    
C45   C69   A    
C33   H18   S    
C64   C67   A    
N12   N16   A    
C4    C6    A    
N3    Ni1   S    
C42   H13   S    
C83   H57   S    
C54   H22   S    
C16   H16   S    
C39   C43   A    
C58   C59   A    
C23   C37   S    
C50   C56   S    
C64   H33   S    
C51   C53   A    
N4    N15   A    
N16   Ni2   S    
C2    C4    A    
N5    N10   A    
C41   C56   A    
C39   H15   S    
C47   C48   A    
C45   C49   S    
C73   H40   S    
C65   H35   S    
C28   H8    S    
N5    Ni4   S    
N1    N7    A    
C10   H28   S    
C75   C77   A    
N13   Ni4   S    
C3    C79   S    
N8    Ni4   S    
C52   C58   A    
C34   C74   A    
C15   H2    S    
C41   N13   A    
C20   C22   A    
C8    C68   A    
C16   C23   A    
N7    Ni3   S    
N6    N11   A    
C13   C15   A    
C72   H39   S    
C16   N10   A    
C7    H23   S    
C13   C26   A    
C21   C24   A    
C10   C61   A    
C18   C32   S    
C17   C34   A    
C41   H32   S    
C17   N11   A    
C56   C70   A    
C80   O1    S    
C61   H30   S    
C39   C47   A    
C82   O2    S    
C57   H20   S    
C63   C68   A    
C65   C78   A    
C73   N5    A    
C27   C32   A    
C38   C48   A    
N10   Ni2   S    
C28   C31   A    
C12   H12   S    
C80   C81   S    
C3    C5    A    
C24   H6    S    
C2    C5    A    
C81   H49   S    
C69   H36   S    
C35   H19   S    
C50   C55   A    
N9    Ni2   S    
C75   H42   S    
N4    Ni2   S    
C9    C60   A    
C37   C44   A    
C28   C30   A    
C4    C77   S    
C29   C31   A    
C72   N4    A    
C7    C66   A    
C30   C32   A    
C36   C46   A    
C70   H37   S    
C46   H9    S    
N1    Ni1   S    
C2    H46   S    
C22   H5    S    
C67   C71   A    
C13   H59   S    
C82   H52   S    
C11   H58   S    
C44   H10   S    
C74   H41   S    
C6    C66   S    
C62   O1    S    
C51   C59   A    
N8    N9    A    
C34   C36   S    
C82   C83   S    
C55   C58   A    
C64   N14   A    
C3    C84   A    
C76   H43   S    
C76   N8    A    
C74   N6    A    
C36   C43   A    
N3    N14   A    
C8    C35   A    
C83   H54   S    
