data_mof_unit_9238.cif
_audit_creation_date              2012-12-10T22:11:11-0500
_audit_creation_method            fapswitch 2.2
_symmetry_space_group_name_H-M    P1
_symmetry_Int_Tables_number       1
_space_group_crystal_system       triclinic
_cell_length_a                    12.09877
_cell_length_b                    12.310213
_cell_length_c                    22.982137
_cell_angle_alpha                 90.815748
_cell_angle_beta                  90.111821
_cell_angle_gamma                 90.235948
_cell_volume                      3422.5406789

loop_
_atom_site_label
_atom_site_type_symbol
_atom_type_description
_atom_site_fract_x
_atom_site_fract_y
_atom_site_fract_z
_atom_type_partial_charge
C1    C     C_R   0.655777 0.997953 0.579775 0.858401
C2    C     C_R   0.344223 0.002047 0.420225 0.858400
C3    C     C_R   0.897979 0.760221 0.158064 0.185181
C4    C     C_R   0.102021 0.239779 0.841935 0.185181
C5    C     C_R   0.079068 0.903411 0.163158 -0.172891
C6    C     C_R   0.920932 0.096589 0.836842 -0.172891
C7    C     C_R   0.076252 0.821746 0.121440 -0.249456
C8    C     C_R   0.923748 0.178253 0.878560 -0.249456
C9    C     C_R   0.904599 0.123407 0.172211 -0.167712
C10   C     C_R   0.095401 0.876593 0.827789 -0.167713
C11   C     C_R   0.904678 0.204684 0.131536 -0.201531
C12   C     C_R   0.095322 0.795316 0.868464 -0.201531
C13   C     C_R   0.180090 0.929228 0.286737 -0.202857
C14   C     C_R   0.819910 0.070772 0.713263 -0.202857
C15   C     C_R   0.268241 0.933289 0.325771 0.138877
C16   C     C_R   0.731759 0.066711 0.674229 0.138877
C17   C     C_R   0.830047 0.096664 0.298960 -0.208714
C18   C     C_R   0.169953 0.903336 0.701040 -0.208713
C19   C     C_R   0.749610 0.093983 0.341404 -0.202294
C20   C     C_R   0.250390 0.906017 0.658596 -0.202294
C21   C     C_3   0.997465 0.009249 0.247662 -0.068359
C22   C     C_3   0.002535 0.990751 0.752338 -0.068359
C23   C     C_R   0.654708 0.001461 0.420721 0.862079
C24   C     C_R   0.345292 0.998539 0.579279 0.862079
C25   C     C_R   0.098351 0.009657 0.287905 0.031279
C26   C     C_R   0.901649 0.990343 0.712095 0.031279
C27   C     C_R   0.260602 0.004188 0.374929 -0.125187
C28   C     C_R   0.739398 0.995812 0.625071 -0.125187
C29   C     C_R   0.899624 0.006489 0.289704 0.124166
C30   C     C_R   0.100376 0.993511 0.710296 0.124165
C31   C     C_R   0.738127 0.002379 0.376043 -0.009992
C32   C     C_R   0.261873 0.997621 0.623957 -0.009991
C33   C     C_R   0.996207 0.108953 0.209169 0.127294
C34   C     C_R   0.003793 0.891047 0.790831 0.127294
C35   C     C_R   0.997605 0.271352 0.125767 -0.019375
C36   C     C_R   0.002395 0.728648 0.874233 -0.019375
C37   C     C_R   0.994093 0.913336 0.204505 0.081003
C38   C     C_R   0.005907 0.086664 0.795495 0.081003
C39   C     C_R   0.987205 0.748971 0.118868 -0.039246
C40   C     C_R   0.012795 0.251029 0.881132 -0.039246
C41   C     C_R   0.991729 0.661564 0.075779 0.877823
C42   C     C_R   0.008271 0.338436 0.924221 0.877823
C43   C     C_R   0.998879 0.352927 0.081215 0.864835
C44   C     C_R   0.001121 0.647072 0.918784 0.864836
C45   C     C_R   0.102412 0.089658 0.332055 -0.167111
C46   C     C_R   0.897588 0.910342 0.667945 -0.167111
C47   C     C_R   0.172663 0.079483 0.379348 0.133239
C48   C     C_R   0.827337 0.920517 0.620651 0.133240
C49   C     C_R   0.889212 0.916200 0.326533 -0.158145
C50   C     C_R   0.110787 0.083800 0.673467 -0.158144
C51   C     C_R   0.807875 0.913359 0.368605 -0.218057
C52   C     C_R   0.192124 0.086641 0.631395 -0.218057
C53   C     C_R   0.089169 0.177510 0.203134 -0.189825
C54   C     C_R   0.910831 0.822490 0.796865 -0.189826
C55   C     C_R   0.089458 0.258155 0.161815 -0.204956
C56   C     C_R   0.910542 0.741844 0.838185 -0.204956
C57   C     C_R   0.901187 0.844236 0.199099 -0.189991
C58   C     C_R   0.098813 0.155764 0.800901 -0.189991
H1    H     H_    0.944983 0.847884 0.322464 0.143089
H2    H     H_    0.055017 0.152116 0.677536 0.143089
H3    H     H_    0.163879 0.167205 0.228244 0.147864
H4    H     H_    0.836121 0.832795 0.771755 0.147865
H5    H     H_    0.828629 0.855926 0.225617 0.151051
H6    H     H_    0.171371 0.144074 0.774383 0.151051
H7    H     H_    0.148571 0.959190 0.163596 0.151533
H8    H     H_    0.851429 0.040810 0.836404 0.151533
H9    H     H_    0.833431 0.069932 0.174429 0.142800
H10   H     H_    0.166569 0.930068 0.825571 0.142800
H11   H     H_    0.178756 0.863692 0.255197 0.161179
H12   H     H_    0.821244 0.136308 0.744803 0.161179
H13   H     H_    0.839427 0.171600 0.275625 0.148554
H14   H     H_    0.160573 0.828400 0.724375 0.148553
H15   H     H_    0.801302 0.842952 0.396162 0.151316
H16   H     H_    0.198698 0.157048 0.603838 0.151316
H17   H     H_    0.162067 0.309211 0.157566 0.154654
H18   H     H_    0.837933 0.690788 0.842434 0.154654
H19   H     H_    0.144119 0.815808 0.090872 0.165569
H20   H     H_    0.855881 0.184191 0.909127 0.165569
H21   H     H_    0.833309 0.213065 0.103438 0.156743
H22   H     H_    0.166691 0.786935 0.896562 0.156743
H23   H     H_    0.696944 0.164207 0.347453 0.155476
H24   H     H_    0.303056 0.835793 0.652547 0.155476
H25   H     H_    0.041529 0.153849 0.332673 0.158251
H26   H     H_    0.958471 0.846151 0.667326 0.158251
O1    O     O_R   0.621380 0.090460 0.561410 -0.628651
O2    O     O_R   0.378620 0.909540 0.438590 -0.628651
O3    O     O_R   0.617150 0.909540 0.438590 -0.639674
O4    O     O_R   0.382850 0.090460 0.561410 -0.639674
O5    O     O_R   0.619720 0.093230 0.440890 -0.621989
O6    O     O_R   0.380280 0.906770 0.559110 -0.621989
O7    O     O_R   0.618800 0.906770 0.559110 -0.631439
O8    O     O_R   0.381200 0.093230 0.440890 -0.631439
O9    O     O_R   0.087590 0.627480 0.058790 -0.630502
O10   O     O_R   0.912410 0.372520 0.941210 -0.630501
O11   O     O_R   0.905660 0.383870 0.059980 -0.631641
O12   O     O_R   0.094340 0.616130 0.940020 -0.631641
O13   O     O_R   0.092570 0.390420 0.063230 -0.625008
O14   O     O_R   0.907430 0.609580 0.936770 -0.625009
O15   O     O_R   0.900680 0.620930 0.055550 -0.617528
O16   O     O_R   0.099320 0.379070 0.944450 -0.617528
Zn1   Zn    Zn3+2 0.501730 0.123520 0.501540 0.927776
Zn2   Zn    Zn3+2 0.498270 0.876480 0.498460 0.927776
Zn3   Zn    Zn3+2 0.125690 0.504390 0.002180 0.937107
Zn4   Zn    Zn3+2 0.874310 0.495610 0.997820 0.937106
C59   C     C_3   0.146687 0.146299 0.434005 -0.400459
C60   C     C_3   0.027020 0.130012 0.453941 -0.882046
H27   H     H_    0.968645 0.173375 0.425183 0.263737
H28   H     H_    0.005347 0.042285 0.453570 0.274081
H29   H     H_    0.016789 0.162964 0.498848 0.247092
H30   H     H_    0.198795 0.123675 0.471501 0.227549
H31   H     H_    0.161141 0.233745 0.425279 0.206269
C61   C     C_3   0.853313 0.853701 0.565995 -0.400460
C62   C     C_3   0.972980 0.869989 0.546058 -0.882046
H32   H     H_    0.994652 0.957717 0.546429 0.274081
H33   H     H_    0.031356 0.826627 0.574816 0.263737
H34   H     H_    0.983211 0.837037 0.501151 0.247092
H35   H     H_    0.838860 0.766255 0.574720 0.206269
H36   H     H_    0.801204 0.876325 0.528499 0.227550
C63   C     C_3   0.799980 0.683696 0.158355 -0.894647
H37   H     H_    0.744427 0.699592 0.195934 0.223402
H38   H     H_    0.750202 0.693798 0.118200 0.258920
H39   H     H_    0.828723 0.598435 0.161643 0.243909
C64   C     C_3   0.200019 0.316304 0.841645 -0.894646
H40   H     H_    0.255572 0.300408 0.804066 0.223402
H41   H     H_    0.171276 0.401565 0.838357 0.243909
H42   H     H_    0.249797 0.306202 0.881800 0.258920
C65   C     C_3   0.367746 0.861895 0.312104 -0.400979
C66   C     C_3   0.420598 0.892206 0.254105 -0.894555
H43   H     H_    0.362790 0.876811 0.217299 0.257608
H44   H     H_    0.445046 0.979320 0.254817 0.263498
H45   H     H_    0.495733 0.842345 0.246760 0.252364
H46   H     H_    0.434435 0.868746 0.344803 0.234347
H47   H     H_    0.341078 0.775416 0.310234 0.204902
C67   C     C_3   0.632254 0.138104 0.687896 -0.400979
C68   C     C_3   0.579402 0.107793 0.745895 -0.894553
H48   H     H_    0.554953 0.020679 0.745182 0.263497
H49   H     H_    0.637209 0.123187 0.782701 0.257608
H50   H     H_    0.504267 0.157654 0.753239 0.252364
H51   H     H_    0.658922 0.224583 0.689767 0.204902
H52   H     H_    0.565565 0.131254 0.655197 0.234348

loop_
_geom_bond_atom_site_label_1
_geom_bond_atom_site_label_2
_ccdc_geom_bond_type
C16   C28   A    
C68   H50   S    
C9    C33   A    
C59   H30   S    
C56   H18   S    
C5    C37   A    
C17   C29   A    
C16   C67   S    
C66   H43   S    
O9    Zn3   S    
C9    H9    S    
O4    Zn1   S    
C68   H48   S    
C39   C41   S    
C29   C49   A    
C13   H11   S    
C64   H40   S    
C44   O12   A    
C20   H24   S    
C67   H52   S    
C61   H35   S    
C64   H41   S    
C21   C33   S    
C60   H27   S    
C22   C38   S    
C45   C47   A    
C65   H46   S    
O6    Zn2   S    
C38   C58   A    
C44   O14   A    
C41   O9    A    
C4    C40   A    
C47   C59   S    
C18   H14   S    
C1    C28   S    
C50   C52   A    
C6    C38   A    
C2    C27   S    
C18   C30   A    
C12   C36   A    
C35   C43   S    
C7    H19   S    
C62   H34   S    
C55   H17   S    
C40   C42   S    
O15   Zn4   S    
C59   H31   S    
C19   C31   A    
C1    O7    A    
C23   O3    A    
C8    H20   S    
C14   H12   S    
C13   C25   A    
C45   H25   S    
C53   H3    S    
C10   C12   A    
C61   C62   S    
C43   O13   A    
C57   H5    S    
C46   C48   A    
C53   C55   A    
C33   C53   A    
C15   C27   A    
C22   C34   S    
C54   C56   A    
C35   C55   A    
C65   H47   S    
C3    C63   S    
C5    H7    S    
C67   H51   S    
C5    C7    A    
C64   H42   S    
C6    C8    A    
C54   H4    S    
C58   H6    S    
C49   C51   A    
C21   C29   S    
O16   Zn3   S    
C4    C64   S    
C24   O6    A    
C23   C31   S    
C24   C32   S    
C36   C56   A    
C42   O16   A    
O3    Zn2   S    
C9    C11   A    
C43   O11   A    
C23   O5    A    
C10   C34   A    
C32   C52   A    
C14   C26   A    
C2    O8    A    
C24   O4    A    
O13   Zn3   S    
C63   H38   S    
C11   H21   S    
O8    Zn1   S    
C46   H26   S    
C3    C57   A    
C48   C61   S    
C17   H13   S    
C13   C15   A    
C14   C16   A    
C36   C44   S    
C1    O1    A    
O7    Zn2   S    
C65   C66   S    
O2    Zn2   S    
C66   H45   S    
C25   C45   A    
O1    Zn1   S    
O11   Zn4   S    
C62   H32   S    
C20   C32   A    
C63   H39   S    
C27   C47   A    
C68   H49   S    
C21   C25   S    
C28   C48   A    
C22   C30   S    
O5    Zn1   S    
C42   O10   A    
C51   H15   S    
C31   C51   A    
C66   H44   S    
C41   O15   A    
C63   H37   S    
C34   C54   A    
C67   C68   S    
C10   H10   S    
C59   C60   S    
C52   H16   S    
C49   H1    S    
C50   H2    S    
C11   C35   A    
C61   H36   S    
C60   H28   S    
O14   Zn4   S    
C12   H22   S    
C17   C19   A    
C2    O2    A    
C18   C20   A    
C30   C50   A    
C26   C46   A    
O10   Zn4   S    
C6    H8    S    
C21   C37   S    
C22   C26   S    
O12   Zn3   S    
C4    C58   A    
C7    C39   A    
C15   C65   S    
C8    C40   A    
C19   H23   S    
C37   C57   A    
C3    C39   A    
C62   H33   S    
C60   H29   S    
