data_mof_unit_26966.cif
_audit_creation_date              2012-12-10T18:58:10-0500
_audit_creation_method            fapswitch 2.2
_symmetry_space_group_name_H-M    P1
_symmetry_Int_Tables_number       1
_space_group_crystal_system       triclinic
_cell_length_a                    10.546681
_cell_length_b                    9.993237
_cell_length_c                    15.858619
_cell_angle_alpha                 90.157019
_cell_angle_beta                  92.448947
_cell_angle_gamma                 89.898844
_cell_volume                      1669.89173438

loop_
_atom_site_label
_atom_site_type_symbol
_atom_type_description
_atom_site_fract_x
_atom_site_fract_y
_atom_site_fract_z
_atom_type_partial_charge
C1    C     C_R   0.871669 0.499500 0.499709 0.023258
C2    C     C_R   0.128304 0.499977 0.499860 0.021819
C3    C     C_R   0.260716 0.500053 0.499759 0.861521
C4    C     C_R   0.739267 0.499874 0.499961 0.861811
C5    C     C_R   0.499864 0.499830 0.339790 0.900347
C6    C     C_R   0.500361 0.500391 0.660311 0.899647
C7    C     C_R   0.494455 0.629455 0.956854 0.094842
C8    C     C_R   0.521519 0.380469 0.044250 0.112974
C9    C     C_R   0.499215 0.627529 0.045991 0.122680
C10   C     C_R   0.519911 0.382163 0.955509 0.121003
C11   C     C_R   0.505439 0.506173 0.913227 -0.007259
C12   C     C_R   0.510747 0.502982 0.087796 0.004853
C13   C     C_1   0.502760 0.505351 0.823578 -0.044399
C14   C     C_1   0.507161 0.500578 0.177149 -0.034036
C15   C     C_1   0.503403 0.499608 0.251752 -0.207323
C16   C     C_1   0.501321 0.502382 0.748690 -0.212007
C17   C     C_R   0.590296 0.071679 0.546139 -0.019798
C18   C     C_R   0.409934 0.928313 0.453692 -0.020531
C19   C     C_R   0.410805 0.071781 0.452941 -0.021007
C20   C     C_R   0.590186 0.928192 0.546179 -0.022359
C21   C     C_R   0.060146 0.501168 0.422817 -0.166341
C22   C     C_R   0.939843 0.497004 0.576706 -0.161642
C23   C     C_R   0.929810 0.501302 0.422646 -0.247628
C24   C     C_R   0.070146 0.497544 0.576898 -0.247361
H1    H     H_    0.107912 0.502279 0.363655 0.145878
H2    H     H_    0.892073 0.494601 0.635844 0.145605
H3    H     H_    0.874697 0.502757 0.363368 0.124725
H4    H     H_    0.125225 0.495924 0.636188 0.124032
N1    N     N_R   0.500000 0.857200 0.500000 -0.121062
N2    N     N_R   0.500000 0.142800 0.500000 -0.120981
O1    O     O_R   0.316770 0.614620 0.499990 -0.614896
O2    O     O_R   0.683230 0.385380 0.500010 -0.616567
O3    O     O_R   0.683230 0.614620 0.500010 -0.613418
O4    O     O_R   0.316770 0.385380 0.499990 -0.616287
O5    O     O_R   0.499980 0.614630 0.378020 -0.615780
O6    O     O_R   0.500020 0.385370 0.621980 -0.612247
O7    O     O_R   0.500020 0.614630 0.621980 -0.620414
O8    O     O_R   0.499980 0.385370 0.378020 -0.614620
Zn1   Zn    Zn3+2 0.500000 0.653120 0.500000 0.945246
Zn2   Zn    Zn3+2 0.500000 0.346880 0.500000 0.947424
C25   C     C_R   0.692669 0.141540 0.595090 0.198673
C26   C     C_R   0.812282 0.155113 0.560235 -0.124627
C27   C     C_R   0.917872 0.191528 0.611221 -0.141145
C28   C     C_R   0.904740 0.217327 0.696938 -0.124085
C29   C     C_R   0.786125 0.205270 0.731995 -0.162633
C30   C     C_R   0.680395 0.166171 0.681535 -0.136316
H5    H     H_    0.824403 0.132394 0.494247 0.106929
H6    H     H_    0.009946 0.199881 0.584324 0.135966
H7    H     H_    0.986665 0.245982 0.736267 0.124839
H8    H     H_    0.777586 0.222594 0.798801 0.121843
H9    H     H_    0.590329 0.149960 0.710170 0.125988
C31   C     C_R   0.307577 0.858242 0.404906 0.196957
C32   C     C_R   0.321685 0.827581 0.319403 -0.126313
C33   C     C_R   0.216943 0.785140 0.269143 -0.165101
C34   C     C_R   0.097444 0.776346 0.303293 -0.124877
C35   C     C_R   0.082514 0.808370 0.387998 -0.137231
C36   C     C_R   0.187128 0.848114 0.438861 -0.128589
H10   H     H_    0.412596 0.840843 0.291332 0.129572
H11   H     H_    0.226988 0.762135 0.203163 0.119109
H12   H     H_    0.016301 0.744971 0.264097 0.125664
H13   H     H_    0.989847 0.802002 0.414168 0.135436
H14   H     H_    0.173882 0.875796 0.503933 0.103124
C37   C     C_R   0.314772 0.142299 0.398833 0.194200
C38   C     C_R   0.190667 0.157391 0.426193 -0.118039
C39   C     C_R   0.093231 0.199909 0.370083 -0.140875
C40   C     C_R   0.119442 0.230701 0.286757 -0.129195
C41   C     C_R   0.242722 0.216367 0.259039 -0.163932
C42   C     C_R   0.339741 0.170041 0.314439 -0.124669
H15   H     H_    0.169048 0.131845 0.490239 0.103535
H16   H     H_    0.997428 0.209192 0.391266 0.136550
H17   H     H_    0.044042 0.264750 0.243554 0.126765
H18   H     H_    0.262239 0.238321 0.194119 0.123128
H19   H     H_    0.433555 0.152923 0.291309 0.122068
C43   C     C_R   0.690679 0.857308 0.596240 0.189345
C44   C     C_R   0.670675 0.819429 0.679701 -0.110430
C45   C     C_R   0.770987 0.768073 0.730355 -0.164724
C46   C     C_R   0.893032 0.761647 0.699769 -0.139334
C47   C     C_R   0.914289 0.802606 0.617482 -0.128148
C48   C     C_R   0.813224 0.847992 0.565385 -0.121518
H20   H     H_    0.577903 0.830813 0.705583 0.125871
H21   H     H_    0.754831 0.734733 0.793653 0.145587
H22   H     H_    0.970963 0.723992 0.739568 0.124982
H23   H     H_    0.008790 0.797558 0.593815 0.133961
H24   H     H_    0.830623 0.880049 0.501834 0.100112
C49   C     C_3   0.489381 0.755816 0.098166 -0.365968
C50   C     C_3   0.618385 0.798478 0.136894 -0.866831
H25   H     H_    0.656465 0.722509 0.182150 0.260927
H26   H     H_    0.687930 0.812811 0.087201 0.262434
H27   H     H_    0.607698 0.894195 0.171566 0.235175
H28   H     H_    0.447161 0.840584 0.062337 0.199928
H29   H     H_    0.423313 0.740094 0.149467 0.188318
C51   C     C_3   0.531714 0.252427 0.905154 -0.391360
C52   C     C_3   0.401665 0.191356 0.883729 -0.893744
H30   H     H_    0.351107 0.168901 0.941977 0.250499
H31   H     H_    0.343093 0.261419 0.844133 0.265038
H32   H     H_    0.413431 0.096865 0.847874 0.249827
H33   H     H_    0.579553 0.270302 0.845613 0.205050
H34   H     H_    0.594004 0.178441 0.938380 0.204549
C53   C     C_3   0.474618 0.760897 0.908074 -0.373075
C54   C     C_3   0.590383 0.853380 0.915449 -0.881966
H35   H     H_    0.679583 0.794898 0.923615 0.258186
H36   H     H_    0.595315 0.915428 0.857704 0.238889
H37   H     H_    0.583479 0.923535 0.969250 0.262442
H38   H     H_    0.453190 0.743725 0.839926 0.204934
H39   H     H_    0.388833 0.813634 0.929206 0.180110
C55   C     C_3   0.536672 0.249594 0.093543 -0.392316
C56   C     C_3   0.675629 0.224325 0.119623 -0.885097
H40   H     H_    0.733831 0.216407 0.063114 0.251811
H41   H     H_    0.713065 0.306900 0.160501 0.264010
H42   H     H_    0.684210 0.129376 0.155549 0.244145
H43   H     H_    0.480170 0.251675 0.150824 0.200013
H44   H     H_    0.498301 0.162150 0.057941 0.205946

loop_
_geom_bond_atom_site_label_1
_geom_bond_atom_site_label_2
_ccdc_geom_bond_type
C28   H7    S    
C34   C35   A    
C52   H30   S    
C25   C26   A    
C27   C28   A    
C49   H29   S    
C51   H34   S    
C36   H14   S    
C55   H44   S    
C32   C33   A    
C31   C32   A    
C7    C11   A    
O3    Zn1   S    
C7    C53   S    
C20   N1    A    
O4    Zn2   S    
C29   H8    S    
C18   C19   A    
C49   C50   S    
C48   H24   S    
C50   H26   S    
C55   C56   S    
C39   H16   S    
C17   C20   A    
C35   C36   A    
C41   H18   S    
C54   H35   S    
C9    C49   S    
C33   C34   A    
C47   H23   S    
C53   C54   S    
C19   C37   S    
C25   C30   A    
C23   H3    S    
C27   H6    S    
C55   H43   S    
C53   H38   S    
C10   C51   S    
C1    C22   A    
C52   H31   S    
C5    O8    A    
C17   N2    A    
C56   H41   S    
C51   H33   S    
C33   H11   S    
C53   H39   S    
C49   H28   S    
C43   C44   A    
C18   C31   S    
C41   C42   A    
N2    Zn2   S    
C45   C46   A    
C31   C36   A    
C50   H25   S    
C3    O4    A    
C42   H19   S    
C46   C47   A    
C30   H9    S    
C54   H37   S    
O5    Zn1   S    
C44   C45   A    
C40   H17   S    
O6    Zn2   S    
C8    C12   A    
N1    Zn1   S    
C2    C21   A    
C54   H36   S    
C6    O7    A    
C20   C43   S    
C35   H13   S    
C18   N1    A    
C38   H15   S    
C3    O1    A    
C4    O2    A    
C12   C14   S    
C1    C23   A    
C52   H32   S    
C43   C48   A    
C21   C23   A    
C2    C24   A    
C56   H42   S    
C22   C24   A    
C26   C27   A    
C56   H40   S    
C28   C29   A    
C44   H20   S    
C7    C9    A    
C21   H1    S    
C4    O3    A    
C47   C48   A    
C24   H4    S    
C50   H27   S    
C8    C55   S    
C45   H21   S    
C32   H10   S    
C37   C42   A    
C1    C4    S    
C38   C39   A    
C2    C3    S    
O7    Zn1   S    
O8    Zn2   S    
C11   C13   S    
C46   H22   S    
C5    O5    A    
C51   C52   S    
C6    O6    A    
C40   C41   A    
C26   H5    S    
O2    Zn2   S    
C9    C12   A    
C17   C25   S    
C5    C15   S    
C10   C11   A    
C6    C16   S    
C37   C38   A    
C29   C30   A    
C8    C10   A    
C39   C40   A    
C22   H2    S    
C13   C16   T    
O1    Zn1   S    
C14   C15   T    
C34   H12   S    
C19   N2    A    
