data_mof_unit_10385.cif
_audit_creation_date              2012-12-10T17:57:24-0500
_audit_creation_method            fapswitch 2.2
_symmetry_space_group_name_H-M    P1
_symmetry_Int_Tables_number       1
_space_group_crystal_system       triclinic
_cell_length_a                    9.528778
_cell_length_b                    10.822031
_cell_length_c                    13.435298
_cell_angle_alpha                 90.880537
_cell_angle_beta                  72.506332
_cell_angle_gamma                 90.760967
_cell_volume                      1321.17003624

loop_
_atom_site_label
_atom_site_type_symbol
_atom_type_description
_atom_site_fract_x
_atom_site_fract_y
_atom_site_fract_z
_atom_type_partial_charge
C1    C     C_R   0.501707 0.737955 0.498321 0.803904
C2    C     C_R   0.425316 0.506284 0.982484 0.027947
C3    C     C_R   0.454295 0.465412 0.876744 0.037450
C4    C     C_R   0.529168 0.472957 0.035881 0.082766
C5    C     C_R   0.643440 0.387786 0.988236 0.162454
C6    C     C_R   0.655495 0.337591 0.890296 -0.242539
C7    C     C_R   0.562844 0.375702 0.835363 -0.188299
C8    C     C_R   0.527913 0.523231 0.133272 -0.241206
C9    C     C_R   0.732270 0.396093 0.139280 -0.201292
C10   C     C_R   0.372861 0.513769 0.814171 -0.095604
C11   C     C_R   0.637426 0.938832 0.456103 0.255485
C12   C     C_R   0.421134 0.499872 0.700102 0.784985
C13   C     C_R   0.633621 0.067215 0.455781 -0.241192
C14   C     C_R   0.500112 0.128868 0.495783 -0.052882
C15   C     C_R   0.368331 0.062747 0.533257 -0.189815
C16   C     C_R   0.370446 0.934977 0.533351 -0.243724
C17   C     C_R   0.504313 0.872194 0.495948 -0.064607
C18   C     C_R   0.904358 0.588537 0.553648 -0.017805
C19   C     C_R   0.053223 0.589036 0.553113 -0.102292
C20   C     C_R   0.094364 0.409150 0.447809 0.370200
C21   C     C_R   0.945237 0.409920 0.448268 -0.105851
C22   C     C_R   0.499735 0.262328 0.498737 0.802696
C23   C     C_R   0.578411 0.498796 0.300086 0.799348
C24   C     C_R   0.745116 0.352362 0.039246 -0.192944
C25   C     C_R   0.620626 0.478721 0.187476 -0.063397
C26   C     C_R   0.253238 0.590430 0.858571 -0.244162
C27   C     C_R   0.213651 0.620281 0.963496 -0.184526
C28   C     C_R   0.294231 0.577242 0.027403 0.249897
Cu1   Cu    Cu3+1 0.359340 0.499980 0.500000 0.957900
Cu2   Cu    Cu3+1 0.640660 0.500020 0.500000 0.944868
H1    H     H_    0.267315 0.885299 0.564141 0.152795
H2    H     H_    0.904251 0.337634 0.407605 0.128248
H3    H     H_    0.739153 0.269872 0.854864 0.141292
H4    H     H_    0.831449 0.287157 0.003112 0.132187
H5    H     H_    0.190950 0.629517 0.811356 0.159024
H6    H     H_    0.576340 0.332274 0.760079 0.162714
N1    N     N_R   0.147940 0.499970 0.499970 -0.166152
N2    N     N_R   0.852060 0.500060 0.499990 -0.165818
O1    O     O_R   0.381250 0.680340 0.500010 -0.600059
O2    O     O_R   0.618820 0.680370 0.500010 -0.546337
O3    O     O_R   0.323240 0.499950 0.650980 -0.582022
O4    O     O_R   0.560810 0.499980 0.650980 -0.579727
O5    O     O_R   0.381180 0.319630 0.499990 -0.554519
O6    O     O_R   0.618750 0.319660 0.499990 -0.600061
O7    O     O_R   0.439190 0.500020 0.349020 -0.554058
O8    O     O_R   0.676760 0.500050 0.349020 -0.582059
H7    H     H_    0.804342 0.360631 0.180801 0.140902
H8    H     H_    0.735113 0.118735 0.423568 0.142679
H9    H     H_    0.264261 0.109742 0.564163 0.147183
H10   H     H_    0.830841 0.658613 0.597716 0.133974
H11   H     H_    0.091823 0.660170 0.596191 0.128431
N3    N     N_2   0.184556 0.308168 0.400317 -0.385078
H12   H     H_    0.143854 0.225066 0.434260 0.221084
C29   C     C_3   0.223369 0.300660 0.287859 -0.688647
H13   H     H_    0.124870 0.277744 0.263012 0.187249
H14   H     H_    0.305946 0.226813 0.258812 0.228981
H15   H     H_    0.272838 0.388974 0.252773 0.279451
H16   H     H_    0.456321 0.596838 0.170667 0.169356
N4    N     N_2   0.236771 0.601707 0.136344 -0.461583
H17   H     H_    0.244069 0.694151 0.154295 0.242141
C30   C     C_3   0.090945 0.552134 0.186287 -0.680693
H18   H     H_    0.066873 0.560076 0.272130 0.241778
H19   H     H_    0.084000 0.453382 0.164443 0.230423
H20   H     H_    0.006150 0.604964 0.163933 0.222892
H21   H     H_    0.118678 0.678363 0.995625 0.146877
N5    N     N_2   0.773405 0.877456 0.411159 -0.410682
H22   H     H_    0.818216 0.895288 0.332717 0.238306
C31   C     C_3   0.879834 0.894493 0.467737 -0.685111
H23   H     H_    0.973810 0.831359 0.434913 0.227645
H24   H     H_    0.829214 0.873030 0.551578 0.225748
H25   H     H_    0.922326 0.991107 0.460465 0.203485

loop_
_geom_bond_atom_site_label_1
_geom_bond_atom_site_label_2
_ccdc_geom_bond_type
C30   H20   S    
N5    C31   S    
C11   N5    S    
C9    C24   A    
C6    C7    A    
C8    C25   A    
C13   H8    S    
C7    H6    S    
C1    C17   S    
C22   O5    A    
C1    O2    A    
C6    H3    S    
C4    C8    A    
Cu2   O6    S    
Cu1   O1    S    
C15   H9    S    
C2    C3    A    
C18   N2    A    
C9    C25   A    
N4    H17   S    
C20   N3    S    
C3    C10   A    
C13   C14   A    
Cu1   O5    S    
C16   H1    S    
C20   N1    A    
C11   C13   A    
C8    H16   S    
C14   C22   S    
C26   C27   A    
Cu1   Cu2   S    
C5    C24   A    
C10   C12   S    
C31   H25   S    
C23   O7    A    
C2    C4    A    
C27   H21   S    
N3    C29   S    
C22   O6    A    
C9    H7    S    
C3    C7    A    
C23   C25   S    
C5    C6    A    
C31   H23   S    
C21   H2    S    
C29   H14   S    
N4    C30   S    
Cu1   O7    S    
C30   H18   S    
C1    O1    A    
C12   O4    A    
Cu2   O2    S    
C15   C16   A    
C19   H11   S    
C26   H5    S    
C4    C5    A    
C23   O8    A    
N5    H22   S    
C20   C21   A    
C18   H10   S    
C12   O3    A    
C31   H24   S    
C18   C19   A    
C28   N4    S    
Cu1   N1    S    
C27   C28   A    
C30   H19   S    
C29   H13   S    
Cu2   O4    S    
C2    C28   A    
C19   N1    A    
Cu2   N2    S    
Cu1   O3    S    
C14   C15   A    
Cu2   O8    S    
C10   C26   A    
C11   C17   A    
C21   N2    A    
N3    H12   S    
C16   C17   A    
C29   H15   S    
C24   H4    S    
