data_mof_unit_22815.cif
_audit_creation_date              2012-12-10T16:49:29-0500
_audit_creation_method            fapswitch 2.2
_symmetry_space_group_name_H-M    P1
_symmetry_Int_Tables_number       1
_space_group_crystal_system       triclinic
_cell_length_a                    19.335384
_cell_length_b                    8.690694
_cell_length_c                    7.443658
_cell_angle_alpha                 102.914286
_cell_angle_beta                  94.511152
_cell_angle_gamma                 92.358116
_cell_volume                      1213.17937801

loop_
_atom_site_label
_atom_site_type_symbol
_atom_type_description
_atom_site_fract_x
_atom_site_fract_y
_atom_site_fract_z
_atom_type_partial_charge
C1    C     C_R   0.497912 0.199700 0.453279 0.890509
C2    C     C_R   0.502088 0.800300 0.546721 0.890508
C3    C     C_2   0.496911 0.031878 0.426923 -0.370148
C4    C     C_2   0.503089 0.968122 0.573076 -0.370148
C5    C     C_R   0.367501 0.499998 0.501830 0.783528
C6    C     C_R   0.632499 0.500002 0.498170 0.783528
C7    C     C_R   0.260285 0.510476 0.669719 -0.189523
C8    C     C_R   0.739715 0.489524 0.330281 -0.189523
C9    C     C_R   0.188155 0.510496 0.669479 -0.153600
C10   C     C_R   0.811845 0.489504 0.330521 -0.153600
C11   C     C_R   0.146314 0.500811 0.503590 0.060177
C12   C     C_R   0.853686 0.499188 0.496410 0.060177
C13   C     C_R   0.177869 0.491247 0.338338 -0.156097
C14   C     C_R   0.822131 0.508753 0.661662 -0.156097
C15   C     C_R   0.249741 0.491104 0.338579 -0.182379
C16   C     C_R   0.750259 0.508896 0.661420 -0.182379
C17   C     C_R   0.291616 0.500629 0.504091 -0.026313
C18   C     C_R   0.708384 0.499371 0.495909 -0.026313
C19   C     C_R   0.929842 0.499528 0.498024 0.411459
C20   C     C_R   0.070158 0.500471 0.501975 0.411459
Cu1   Cu    Cu3+1 0.507710 0.517380 0.684380 0.950019
Cu2   Cu    Cu3+1 0.492290 0.482620 0.315620 0.950019
H1    H     H_    0.291379 0.517824 0.799248 0.148823
H2    H     H_    0.708620 0.482176 0.200752 0.148823
H3    H     H_    0.165303 0.517981 0.799169 0.149768
H4    H     H_    0.834697 0.482019 0.200830 0.149768
H5    H     H_    0.272393 0.483613 0.208577 0.150773
H6    H     H_    0.727607 0.516386 0.791423 0.150773
H7    H     H_    0.445076 0.379406 0.948623 0.223547
H8    H     H_    0.554924 0.620594 0.051377 0.223547
N1    N     N_R   0.029940 0.491098 0.341529 -0.231077
N2    N     N_R   0.970060 0.508902 0.658471 -0.231077
N3    N     N_R   0.961129 0.490642 0.339530 -0.234039
N4    N     N_R   0.038871 0.509358 0.660470 -0.234039
N5    N     N_2   0.480680 0.456420 0.038530 -0.218574
N6    N     N_2   0.519320 0.543580 0.961470 -0.218574
O1    O     O_R   0.505010 0.286130 0.619770 -0.581920
O2    O     O_R   0.494990 0.713870 0.380230 -0.581920
O3    O     O_R   0.491990 0.256780 0.308370 -0.583455
O4    O     O_R   0.508010 0.743220 0.691630 -0.583455
O5    O     O_R   0.406650 0.514660 0.655750 -0.590818
O6    O     O_R   0.593350 0.485340 0.344250 -0.590818
O7    O     O_R   0.393640 0.485310 0.344340 -0.585934
O8    O     O_R   0.606360 0.514690 0.655660 -0.585933
H9    H     H_    0.147153 0.483755 0.208248 0.155445
H10   H     H_    0.852847 0.516245 0.791752 0.155445
H11   H     H_    0.491086 0.960413 0.285996 0.179832
H12   H     H_    0.508914 0.039587 0.714003 0.179832

loop_
_geom_bond_atom_site_label_1
_geom_bond_atom_site_label_2
_ccdc_geom_bond_type
C16   H6    S    
C2    C4    S    
N1    N3    A    
C15   C17   A    
C1    O1    A    
Cu1   O8    S    
C11   C13   A    
C2    O2    A    
C1    O3    A    
C15   H5    S    
Cu2   O7    S    
H8    N6    S    
C20   N4    A    
C10   H4    S    
C5    O7    A    
C9    H3    S    
C14   H10   S    
Cu1   N6    S    
C6    O8    A    
Cu1   Cu2   S    
C13   H9    S    
Cu2   N5    S    
C9    C11   A    
Cu2   O6    S    
Cu1   O4    S    
C10   C12   A    
C7    H1    S    
C19   N2    A    
C12   C19   S    
C3    H11   S    
C8    H2    S    
C12   C14   A    
C14   C16   A    
C13   C15   A    
C4    H12   S    
C6    C18   S    
Cu1   O5    S    
C11   C20   S    
C5    C17   S    
Cu2   O3    S    
C3    C4    D    
Cu2   O2    S    
C2    O4    A    
Cu1   O1    S    
C16   C18   A    
C19   N3    A    
C7    C9    A    
H7    N5    S    
C5    O5    A    
C1    C3    S    
C6    O6    A    
C8    C10   A    
C8    C18   A    
N5    N6    D    
C7    C17   A    
C20   N1    A    
N2    N4    A    
