data_mof_unit_50137.cif
_audit_creation_date              2012-12-10T17:04:12-0500
_audit_creation_method            fapswitch 2.2
_symmetry_space_group_name_H-M    P1
_symmetry_Int_Tables_number       1
_space_group_crystal_system       triclinic
_cell_length_a                    18.724355
_cell_length_b                    18.353237
_cell_length_c                    19.276606
_cell_angle_alpha                 109.341646
_cell_angle_beta                  110.360565
_cell_angle_gamma                 107.599506
_cell_volume                      5165.99689315

loop_
_atom_site_label
_atom_site_type_symbol
_atom_type_description
_atom_site_fract_x
_atom_site_fract_y
_atom_site_fract_z
_atom_type_partial_charge
C1    C     C_R   0.620872 0.618796 0.501719 0.821577
C2    C     C_3   0.198649 0.420316 0.192524 0.147534
C3    C     C_3   0.216922 0.452205 0.284893 -0.179789
C4    C     C_3   0.313553 0.505602 0.316934 -0.048113
C5    C     C_R   0.611356 0.774588 0.494874 0.147287
C6    C     C_R   0.621888 0.860761 0.531829 0.201764
C7    C     C_R   0.702688 0.931993 0.564181 0.163310
C8    C     C_R   0.766882 0.915896 0.552667 -0.194844
C9    C     C_R   0.757327 0.830681 0.520193 -0.018117
C10   C     C_R   0.685223 0.762049 0.505584 0.022018
C11   C     C_R   0.818157 0.813103 0.501476 -0.102501
C12   C     C_R   0.381262 0.502128 0.381842 0.802059
C13   C     C_R   0.817378 0.731665 0.484476 0.003972
C14   C     C_R   0.758152 0.669276 0.491748 0.017744
C15   C     C_R   0.689472 0.684311 0.500852 -0.161690
C16   C     C_R   0.876537 0.712650 0.462312 -0.267450
C17   C     C_R   0.873708 0.631062 0.439617 0.167203
C18   C     C_R   0.819084 0.570027 0.451003 0.209076
C19   C     C_R   0.770402 0.594403 0.487724 0.148379
C20   C     C_R   0.772977 0.653119 0.737926 -0.224611
C21   C     C_R   0.849914 0.730548 0.790858 -0.157887
C22   C     C_R   0.919424 0.734698 0.852280 0.212585
C23   C     C_R   0.377945 0.380686 0.496425 0.791623
C24   C     C_R   0.910288 0.659779 0.860000 -0.218857
C25   C     C_R   0.832108 0.578189 0.805665 0.050709
C26   C     C_R   0.762270 0.574489 0.742075 0.080600
C27   C     C_R   0.821879 0.500520 0.811696 -0.188893
C28   C     C_R   0.750090 0.418941 0.746689 -0.007830
C29   C     C_R   0.675783 0.413835 0.686650 0.016696
C30   C     C_R   0.684010 0.493467 0.683746 -0.167610
C31   C     C_R   0.752759 0.341293 0.741364 -0.143328
C32   C     C_R   0.679464 0.261516 0.693048 0.197764
C33   C     C_R   0.602833 0.255762 0.642179 -0.150097
C34   C     C_R   0.616242 0.495293 0.618338 0.785381
C35   C     C_R   0.598999 0.328606 0.635130 0.115823
C36   C     C_R   0.380928 0.405950 0.652922 -0.224873
C37   C     C_R   0.365733 0.453037 0.714078 0.147385
C38   C     C_R   0.285058 0.412797 0.708258 0.171845
C39   C     C_R   0.228842 0.321291 0.647856 0.060880
C40   C     C_R   0.240468 0.279610 0.576926 -0.004640
C41   C     C_R   0.311819 0.332635 0.575726 0.016025
C42   C     C_R   0.189739 0.189968 0.508253 -0.158261
C43   C     C_R   0.209797 0.164108 0.442315 0.041356
C44   C     C_R   0.251547 0.228621 0.425767 -0.019475
C45   C     C_3   0.301995 0.586429 0.320825 -0.201028
C46   C     C_R   0.312090 0.313042 0.497768 -0.168393
C47   C     C_R   0.187206 0.076144 0.389605 0.164255
C48   C     C_R   0.173004 0.050191 0.307486 -0.186109
C49   C     C_R   0.188605 0.111657 0.280885 -0.199385
C50   C     C_R   0.231451 0.201793 0.339332 0.173706
C51   C     C_R   0.005562 0.620676 0.123631 0.836095
C52   C     C_R   0.122456 0.500899 0.124605 0.784929
C53   C     C_R   0.006530 0.381016 0.887897 0.812564
C54   C     C_R   0.885361 0.501876 0.884667 0.768949
C55   C     C_R   0.993470 0.872299 0.383990 0.792943
C56   C     C_3   0.204454 0.531700 0.285758 0.209529
C57   C     C_R   0.882322 0.880313 0.499419 0.764938
C58   C     C_R   0.992933 0.114536 0.616044 0.774695
C59   C     C_R   0.119203 0.121101 0.502794 0.831064
C60   C     C_R   0.161878 0.751008 0.301957 0.153572
C61   C     C_R   0.216527 0.774482 0.385864 -0.135870
C62   C     C_R   0.189270 0.790372 0.444944 -0.203383
C63   C     C_R   0.111445 0.792653 0.423542 -0.131377
C64   C     C_R   0.057190 0.774427 0.340892 0.038906
C65   C     C_R   0.075535 0.738250 0.276217 0.045737
C66   C     C_R   0.985184 0.790763 0.321339 -0.204316
C67   C     C_3   0.187782 0.500648 0.194634 -0.047504
C68   C     C_R   0.915292 0.741078 0.236510 0.014094
C69   C     C_R   0.932781 0.704974 0.171508 -0.002034
C70   C     C_R   0.007887 0.693579 0.190469 -0.163711
C71   C     C_R   0.827555 0.721286 0.213397 0.127305
C72   C     C_R   0.763800 0.678865 0.126034 0.131942
C73   C     C_R   0.791294 0.672011 0.065103 0.141661
C74   C     C_R   0.877790 0.688684 0.090040 0.110806
C75   C     C_R   0.941582 0.370732 0.723827 -0.201491
C76   C     C_R   0.920476 0.374512 0.648555 0.226517
C77   C     C_R   0.926744 0.317312 0.585030 -0.172486
C78   C     C_3   0.284934 0.554829 0.228597 -0.235734
C79   C     C_R   0.950213 0.254716 0.594846 -0.224336
C80   C     C_R   0.967021 0.246120 0.668691 0.076606
C81   C     C_R   0.968541 0.309659 0.736408 0.029917
C82   C     C_R   0.984797 0.178665 0.679247 -0.171311
C83   C     C_R   0.007664 0.180062 0.757729 -0.022572
C84   C     C_R   0.036873 0.258093 0.829086 0.017462
C85   C     C_R   0.003663 0.315217 0.817140 -0.149838
C86   C     C_R   0.011156 0.109049 0.768775 -0.186354
C87   C     C_R   0.064211 0.122636 0.848560 0.194338
C88   C     C_R   0.118969 0.209512 0.916369 0.227134
C89   C     C_3   0.295956 0.473859 0.225467 0.176969
C90   C     C_R   0.105753 0.279031 0.906535 0.114536
Cu1   Cu    Cu3+1 0.500490 0.438210 0.438660 0.890190
Cu2   Cu    Cu3+1 0.499510 0.561790 0.561340 0.903718
Cu3   Cu    Cu3+1 0.942070 0.438200 0.003850 0.941984
Cu4   Cu    Cu3+1 0.065670 0.561760 0.003800 0.903470
Cu5   Cu    Cu3+1 0.062280 0.000030 0.562300 0.906989
Cu6   Cu    Cu3+1 0.937720 0.000000 0.437720 0.929838
H1    H     H_    0.826005 0.971122 0.572306 0.144995
H2    H     H_    0.924872 0.760287 0.459857 0.152766
H3    H     H_    0.544908 0.193058 0.607145 0.140114
H4    H     H_    0.723996 0.657553 0.692274 0.170727
H5    H     H_    0.855394 0.787397 0.782926 0.142918
H6    H     H_    0.966622 0.669709 0.910238 0.179363
H7    H     H_    0.341858 0.654924 0.373550 0.141154
H8    H     H_    0.812237 0.341589 0.776383 0.157600
H9    H     H_    0.169852 0.088354 0.214691 0.148719
H10   H     H_    0.445286 0.433037 0.661735 0.153791
H11   H     H_    0.150881 0.982367 0.264369 0.153386
H12   H     H_    0.313202 0.597144 0.205287 0.162896
H13   H     H_    0.281048 0.781420 0.405814 0.137584
H14   H     H_    0.230483 0.805354 0.508771 0.139209
H15   H     H_    0.092959 0.805649 0.471667 0.165451
H16   H     H_    0.939828 0.418382 0.773318 0.141361
H17   H     H_    0.913856 0.321508 0.527537 0.137200
H18   H     H_    0.957171 0.216639 0.544159 0.175867
H19   H     H_    0.975954 0.043805 0.714596 0.157712
H20   H     H_    0.191072 0.413034 0.311780 0.122020
O1    O     O_R   0.590580 0.537990 0.448200 -0.579203
O2    O     O_R   0.055380 0.642340 0.093300 -0.601479
O3    O     O_R   0.042560 0.447800 0.094700 -0.583146
O4    O     O_R   0.146930 0.552150 0.094670 -0.602653
O5    O     O_R   0.952370 0.357620 0.914350 -0.582886
O6    O     O_R   0.056740 0.461970 0.914310 -0.587739
O7    O     O_R   0.860810 0.447810 0.912980 -0.575679
O8    O     O_R   0.965190 0.552160 0.912950 -0.605468
O9    O     O_R   0.053330 0.909870 0.463140 -0.600881
O10   O     O_R   0.948140 0.909840 0.357940 -0.558637
O11   O     O_R   0.962430 0.909850 0.552620 -0.597402
O12   O     O_R   0.589760 0.642350 0.551790 -0.582417
O13   O     O_R   0.857240 0.909830 0.447420 -0.586410
O14   O     O_R   0.051860 0.090180 0.642080 -0.576549
O15   O     O_R   0.946670 0.090160 0.536880 -0.603462
O16   O     O_R   0.142760 0.090200 0.552610 -0.590700
O17   O     O_R   0.037570 0.090170 0.447410 -0.580851
O18   O     O_R   0.409540 0.447820 0.357340 -0.582313
O19   O     O_R   0.408720 0.552180 0.460940 -0.596183
O20   O     O_R   0.410240 0.357650 0.448210 -0.580515
O21   O     O_R   0.409420 0.462010 0.551800 -0.592665
O22   O     O_R   0.591280 0.447820 0.539060 -0.590319
O23   O     O_R   0.590460 0.552180 0.642660 -0.603827
O24   O     O_R   0.951000 0.537990 0.093340 -0.573308
C91   C     C_3   0.147480 0.557873 0.317358 -0.862029
H21   H     H_    0.184400 0.598842 0.387436 0.233890
H22   H     H_    0.123624 0.594043 0.287753 0.236296
H23   H     H_    0.090562 0.498223 0.298785 0.231683
C92   C     C_3   0.721516 0.025261 0.608740 -0.904672
H24   H     H_    0.679731 0.039558 0.563896 0.236124
H25   H     H_    0.709855 0.035731 0.663036 0.249323
H26   H     H_    0.789833 0.072302 0.634366 0.240145
C93   C     C_3   0.934916 0.614428 0.409474 -0.388649
C94   C     C_3   0.021634 0.643335 0.483974 -0.839819
H27   H     H_    0.050790 0.713507 0.530762 0.245311
H28   H     H_    0.013573 0.603949 0.516262 0.250349
H29   H     H_    0.066468 0.634349 0.460571 0.246700
H30   H     H_    0.907107 0.544633 0.362855 0.208189
H31   H     H_    0.946105 0.651150 0.375362 0.201393
C95   C     C_3   0.750354 0.551244 0.537404 -0.790741
H32   H     H_    0.696933 0.483465 0.493864 0.259684
H33   H     H_    0.808038 0.549165 0.577611 0.222870
H34   H     H_    0.734863 0.589027 0.581522 0.207222
C96   C     C_3   0.004519 0.818426 0.907506 -0.419884
C97   C     C_3   0.997811 0.892750 0.966086 -0.848542
H35   H     H_    0.950438 0.908392 0.928797 0.248988
H36   H     H_    0.977993 0.874645 0.008434 0.251995
H37   H     H_    0.061793 0.952410 0.005968 0.237642
H38   H     H_    0.056004 0.808439 0.947252 0.194860
H39   H     H_    0.025252 0.838367 0.866323 0.204864
C98   C     C_3   0.683834 0.184237 0.700199 -0.907508
H40   H     H_    0.623620 0.122262 0.650466 0.229240
H41   H     H_    0.739530 0.180560 0.694257 0.248230
H42   H     H_    0.694563 0.193186 0.763490 0.244300
C99   C     C_3   0.508549 0.306928 0.576720 -0.382215
C100  C     C_3   0.479170 0.246187 0.484011 -0.732379
H43   H     H_    0.515292 0.281366 0.460320 0.264431
H44   H     H_    0.489198 0.188123 0.476651 0.213026
H45   H     H_    0.408997 0.220723 0.443502 0.248547
H46   H     H_    0.463752 0.272222 0.594221 0.183805
H47   H     H_    0.500913 0.365032 0.585444 0.189690
C101  C     C_3   0.434397 0.547782 0.778019 -0.370626
C102  C     C_3   0.475040 0.565352 0.869307 -0.855251
H48   H     H_    0.434334 0.576886 0.897167 0.259936
H49   H     H_    0.486547 0.510565 0.873254 0.258987
H50   H     H_    0.537492 0.626395 0.907954 0.229851
H51   H     H_    0.487867 0.565993 0.763801 0.205165
H52   H     H_    0.407773 0.593236 0.772327 0.180782
C103  C     C_3   0.256984 0.467541 0.761513 -0.375439
C104  C     C_3   0.270370 0.461406 0.842166 -0.830965
H53   H     H_    0.213578 0.406029 0.829453 0.257781
H54   H     H_    0.328371 0.453541 0.869962 0.252558
H55   H     H_    0.278466 0.521979 0.890127 0.235263
H56   H     H_    0.291593 0.537467 0.780335 0.194256
H57   H     H_    0.188282 0.449195 0.722066 0.186287
C105  C     C_3   0.166638 0.272519 0.668529 -0.356227
C106  C     C_3   0.213050 0.249482 0.734575 -0.718795
H58   H     H_    0.222527 0.192923 0.704988 0.264542
H59   H     H_    0.277905 0.304722 0.784877 0.229075
H60   H     H_    0.175560 0.234291 0.766061 0.245016
H61   H     H_    0.137065 0.310716 0.692726 0.194760
H62   H     H_    0.109823 0.216643 0.611704 0.181254
C107  C     C_3   0.197108 0.014819 0.423344 -0.811056
H63   H     H_    0.225353 0.046088 0.492959 0.247830
H64   H     H_    0.134379 0.956166 0.390402 0.240037
H65   H     H_    0.242470 0.993325 0.409734 0.219549
C108  C     C_3   0.238341 0.262008 0.301509 -0.373820
C109  C     C_3   0.289138 0.252997 0.254512 -0.759850
H66   H     H_    0.353450 0.262163 0.295409 0.270717
H67   H     H_    0.253445 0.188163 0.196588 0.205994
H68   H     H_    0.297503 0.302211 0.233327 0.241874
H69   H     H_    0.171946 0.243090 0.254768 0.182544
H70   H     H_    0.265142 0.331062 0.348490 0.185830
C110  C     C_3   0.730547 0.649174 0.974844 -0.388763
C111  C     C_3   0.682606 0.550860 0.913291 -0.797130
H71   H     H_    0.728639 0.523787 0.917561 0.259866
H72   H     H_    0.633949 0.516140 0.926629 0.248052
H73   H     H_    0.648191 0.538682 0.847383 0.242858
H74   H     H_    0.684997 0.676057 0.973545 0.173990
H75   H     H_    0.765076 0.681699 0.948693 0.214508
C112  C     C_3   0.204374 0.758281 0.249539 -0.851230
H76   H     H_    0.201748 0.695184 0.215168 0.260795
H77   H     H_    0.175121 0.781547 0.206502 0.247410
H78   H     H_    0.273688 0.808162 0.290600 0.208142
C113  C     C_3   0.798861 0.736990 0.278958 -0.791154
H79   H     H_    0.850148 0.759119 0.342061 0.201246
H80   H     H_    0.776009 0.786566 0.282209 0.241354
H81   H     H_    0.746707 0.676106 0.264254 0.223136
C114  C     C_3   0.667702 0.638996 0.098806 -0.388547
C115  C     C_3   0.633435 0.546574 0.087884 -0.824311
H82   H     H_    0.646513 0.504192 0.043071 0.252448
H83   H     H_    0.663841 0.547153 0.148793 0.248041
H84   H     H_    0.562536 0.517106 0.062597 0.235075
H85   H     H_    0.655193 0.680654 0.144815 0.200247
H86   H     H_    0.627181 0.634362 0.038650 0.201034
C116  C     C_3   0.915110 0.703002 0.035327 -0.854528
H87   H     H_    0.883713 0.639893 0.977661 0.238688
H88   H     H_    0.903716 0.752730 0.019623 0.220116
H89   H     H_    0.986143 0.730524 0.066916 0.238887
C117  C     C_3   0.193882 0.225970 0.994047 -0.925321
H90   H     H_    0.239154 0.208360 0.976410 0.240049
H91   H     H_    0.230622 0.294791 0.044515 0.246865
H92   H     H_    0.170263 0.185576 0.020960 0.234308
C118  C     C_3   0.353412 0.450831 0.192209 -0.882474
H93   H     H_    0.334043 0.447674 0.129650 0.227541
H94   H     H_    0.421556 0.502613 0.236569 0.243203
H95   H     H_    0.348979 0.387388 0.185944 0.234987
C119  C     C_3   0.896078 0.442812 0.637844 -0.416595
C120  C     C_3   0.971459 0.517368 0.649228 -0.842232
H96   H     H_    0.028472 0.548295 0.713127 0.258499
H97   H     H_    0.989136 0.492581 0.600202 0.241805
H98   H     H_    0.953104 0.567962 0.643128 0.246751
H99   H     H_    0.839209 0.412321 0.573912 0.200933
H100  H     H_    0.877364 0.470631 0.685039 0.213316
C121  C     C_3   0.068027 0.045159 0.857765 -0.873765
H101  H     H_    0.133429 0.051249 0.875052 0.237668
H102  H     H_    0.052720 0.041862 0.907698 0.234043
H103  H     H_    0.020613 0.982328 0.797989 0.228758
C122  C     C_3   0.177204 0.373015 0.964636 -0.888512
H104  H     H_    0.177961 0.403148 0.024951 0.228632
H105  H     H_    0.240758 0.375788 0.977339 0.234809
H106  H     H_    0.171625 0.414635 0.934790 0.246651
C123  C     C_3   0.134858 0.323889 0.125904 -0.419480
C124  C     C_3   0.054149 0.287989 0.133077 -0.820106
H107  H     H_    0.070534 0.284312 0.192434 0.229461
H108  H     H_    0.021761 0.329356 0.131890 0.277722
H109  H     H_    0.007941 0.220769 0.078938 0.239704
H110  H     H_    0.113135 0.315949 0.061755 0.228227
H111  H     H_    0.167811 0.284011 0.133941 0.213100
C125  C     C_3   0.815824 0.480951 0.427003 -0.895671
H112  H     H_    0.795790 0.446609 0.358815 0.222276
H113  H     H_    0.880004 0.488463 0.465686 0.242209
H114  H     H_    0.768386 0.436493 0.435126 0.232015
C126  C     C_3   0.521492 0.700403 0.429886 -0.850207
H115  H     H_    0.520844 0.639664 0.391789 0.218779
H116  H     H_    0.484156 0.688102 0.461897 0.257424
H117  H     H_    0.488969 0.718274 0.382904 0.206461
C127  C     C_3   0.547820 0.875766 0.537463 -0.412008
C128  C     C_3   0.537983 0.864083 0.608980 -0.836219
H118  H     H_    0.524527 0.797019 0.598538 0.258638
H119  H     H_    0.598002 0.912444 0.670739 0.252320
H120  H     H_    0.483463 0.874743 0.611601 0.233869
H121  H     H_    0.557528 0.942172 0.548934 0.206058
H122  H     H_    0.485957 0.830696 0.476872 0.193065

loop_
_geom_bond_atom_site_label_1
_geom_bond_atom_site_label_2
_ccdc_geom_bond_type
C8    C9    A    
C66   C68   A    
C108  C109  S    
C122  H105  S    
Cu3   Cu4   S    
C71   C113  S    
C120  H96   S    
C97   H35   S    
C35   C99   S    
C73   C74   A    
Cu5   Cu6   S    
C89   C118  S    
C1    O12   A    
C93   H30   S    
C61   H13   S    
C97   H37   S    
C13   C16   A    
C101  C102  S    
C27   C54   S    
C121  H101  S    
C98   H41   S    
C56   C67   S    
C50   C108  S    
C117  H90   S    
C112  H78   S    
C87   C121  S    
C37   C101  S    
C28   C29   A    
C5    C126  S    
C37   C38   A    
C119  H100  S    
C23   O20   A    
C127  H122  S    
C117  H91   S    
C22   C24   A    
C57   O13   A    
C36   C37   A    
C128  H119  S    
Cu3   O5    S    
C18   C19   A    
C113  H81   S    
C3    H20   S    
C91   H22   S    
C38   C39   A    
C121  H102  S    
C48   H11   S    
C110  H74   S    
Cu1   O22   S    
C34   O23   A    
C11   C13   A    
C51   O2    A    
C119  C120  S    
C78   H12   S    
C127  C128  S    
C49   C50   A    
C105  H61   S    
C118  H93   S    
C45   H7    S    
C92   H25   S    
Cu4   O4    S    
Cu1   O20   S    
C55   O9    A    
C45   C56   S    
C44   C46   A    
C16   C17   A    
C106  H59   S    
C12   O19   A    
C62   H14   S    
C17   C18   A    
Cu5   O14   S    
C109  H66   S    
C41   C46   A    
Cu1   O1    S    
C126  H116  S    
C103  H57   S    
C45   C78   S    
C1    C15   S    
C51   C70   S    
C96   H39   S    
C4    C12   S    
C29   C30   A    
C43   C47   A    
C9    C10   A    
C101  H51   S    
C100  H45   S    
C123  C124  S    
C72   C73   A    
C102  H50   S    
C21   H5    S    
C51   O24   A    
C40   C42   A    
C2    C123  S    
C122  H106  S    
C107  H63   S    
C23   C46   S    
C12   O18   A    
C13   C14   A    
C102  H49   S    
C53   O6    A    
C19   C95   S    
C126  H117  S    
C47   C107  S    
C36   C41   A    
C69   C70   A    
C67   C78   S    
C84   C90   A    
C124  H109  S    
C77   H17   S    
Cu2   O21   S    
Cu2   O12   S    
C118  H94   S    
C97   H36   S    
C79   H18   S    
C100  H44   S    
C92   H24   S    
C98   H42   S    
C4    C45   S    
C95   H34   S    
C78   C89   S    
C88   C117  S    
C17   C93   S    
C59   O16   A    
C119  H99   S    
C30   C34   S    
C39   C40   A    
C36   H10   S    
C127  H121  S    
C47   C48   A    
C73   C110  S    
C7    C8    A    
C128  H120  S    
C24   C25   A    
C74   C116  S    
C2    C67   S    
C91   H23   S    
C98   H40   S    
C18   C125  S    
C63   H15   S    
C86   C87   A    
C68   C69   A    
C121  H103  S    
C49   H9    S    
C25   C26   A    
C96   H38   S    
C34   O22   A    
C116  H89   S    
C79   C80   A    
C60   C61   A    
C33   H3    S    
C64   C66   A    
C99   H47   S    
C65   C70   A    
C2    C89   S    
C92   H26   S    
C75   C76   A    
C28   C31   A    
C111  H71   S    
C62   C63   A    
C123  H111  S    
C107  H65   S    
C113  H79   S    
C3    C56   S    
Cu5   O9    S    
C83   C84   A    
C20   H4    S    
C55   O10   A    
C58   O15   A    
C106  H60   S    
C22   C96   S    
C116  H88   S    
C114  C115  S    
C75   H16   S    
C77   C79   A    
Cu6   O10   S    
C69   C74   A    
C115  H82   S    
C1    O1    A    
C90   C122  S    
C84   C85   A    
C31   H8    S    
C9    C11   A    
C99   C100  S    
Cu6   O17   S    
C52   C67   S    
C125  H113  S    
C104  H53   S    
Cu6   O15   S    
C56   C91   S    
Cu4   O6    S    
C124  H108  S    
C40   C41   A    
C111  H72   S    
C128  H118  S    
C88   C90   A    
C60   C65   A    
C106  H58   S    
C105  H62   S    
C72   C114  S    
C120  H97   S    
C43   C44   A    
Cu5   O16   S    
C68   C71   A    
C94   H28   S    
C120  H98   S    
C54   O7    A    
C112  H77   S    
C42   C43   A    
C104  H54   S    
C122  H104  S    
C115  H84   S    
C52   O4    A    
Cu1   Cu2   S    
C55   C66   S    
C39   C105  S    
C100  H43   S    
C4    C89   S    
C108  H69   S    
C44   C50   A    
C124  H107  S    
C54   O8    A    
C48   C49   A    
C76   C119  S    
C126  H115  S    
C14   C19   A    
C23   O21   A    
C31   C32   A    
C108  H70   S    
Cu3   O7    S    
C109  H67   S    
C80   C81   A    
C125  H114  S    
C42   C59   S    
C57   O11   A    
C53   C85   S    
C123  H110  S    
C26   C30   A    
C6    C7    A    
C75   C81   A    
C102  H48   S    
C25   C27   A    
C38   C103  S    
C99   H46   S    
C29   C35   A    
C115  H83   S    
C114  H85   S    
C94   H27   S    
C117  H92   S    
C94   H29   S    
C10   C15   A    
C105  C106  S    
C104  H55   S    
C58   C82   S    
C2    C3    S    
C112  H76   S    
C114  H86   S    
C71   C72   A    
C113  H80   S    
Cu3   O24   S    
C11   C57   S    
C93   C94   S    
C32   C33   A    
C76   C77   A    
Cu4   O2    S    
C16   H2    S    
C103  C104  S    
C5    C6    A    
Cu1   O18   S    
C20   C26   A    
C58   O14   A    
C8    H1    S    
C110  H75   S    
C64   C65   A    
C95   H33   S    
C116  H87   S    
C33   C35   A    
C80   C82   A    
C59   O17   A    
C109  H68   S    
C24   H6    S    
C118  H95   S    
C93   H31   S    
C61   C62   A    
C6    C127  S    
C96   C97   S    
C81   C85   A    
C91   H21   S    
C125  H112  S    
C63   C64   A    
Cu2   O19   S    
C52   O3    A    
Cu5   O11   S    
C103  H56   S    
C5    C10   A    
C83   C86   A    
C95   H32   S    
C20   C21   A    
C87   C88   A    
C110  C111  S    
C32   C98   S    
C27   C28   A    
C107  H64   S    
C14   C15   A    
C86   H19   S    
C53   O5    A    
Cu3   O3    S    
C82   C83   A    
C111  H73   S    
C21   C22   A    
Cu2   O23   S    
C60   C112  S    
C101  H52   S    
C3    C4    S    
Cu6   O13   S    
C7    C92   S    
Cu4   O8    S    
