data_mof_unit_25697.cif
_audit_creation_date              2012-12-10T17:06:39-0500
_audit_creation_method            fapswitch 2.2
_symmetry_space_group_name_H-M    P1
_symmetry_Int_Tables_number       1
_space_group_crystal_system       triclinic
_cell_length_a                    15.858999
_cell_length_b                    10.814911
_cell_length_c                    9.91767
_cell_angle_alpha                 109.711632
_cell_angle_beta                  98.807654
_cell_angle_gamma                 91.638054
_cell_volume                      1576.56107121

loop_
_atom_site_label
_atom_site_type_symbol
_atom_type_description
_atom_site_fract_x
_atom_site_fract_y
_atom_site_fract_z
_atom_type_partial_charge
C1    C     C_R   0.490116 0.253307 0.442709 0.820278
C2    C     C_R   0.502625 0.746148 0.557061 0.788516
C3    C     C_2   0.442680 0.069136 0.512157 0.249970
C4    C     C_2   0.439173 0.929626 0.497782 0.162728
C5    C     C_2   0.500614 0.522384 0.081573 0.289980
C6    C     C_2   0.482550 0.506261 0.923421 0.373840
C7    C     C_R   0.340337 0.501325 0.500409 0.814305
C8    C     C_R   0.659663 0.498693 0.499459 0.813382
C9    C     C_3   0.977700 0.412095 0.547761 0.356221
C10   C     C_3   0.021904 0.592589 0.436712 0.384761
C11   C     C_3   0.022248 0.386239 0.414882 -0.002689
C12   C     C_3   0.976640 0.619632 0.570514 -0.081339
C13   C     C_1   0.251183 0.505879 0.501017 -0.179217
C14   C     C_1   0.748779 0.495387 0.497567 -0.184021
C15   C     C_3   0.039392 0.537326 0.632397 0.332757
C16   C     C_3   0.960256 0.467865 0.352462 0.368170
C17   C     C_3   0.084271 0.509148 0.497913 -0.102070
C18   C     C_3   0.914444 0.494513 0.486435 -0.140610
C19   C     C_1   0.175829 0.508999 0.499909 0.068796
C20   C     C_1   0.823690 0.493348 0.493485 0.046707
C21   C     C_2   0.477510 0.111217 0.417105 -0.032470
C22   C     C_2   0.499004 0.887226 0.581797 -0.068355
Cu1   Cu    Cu3+1 0.514700 0.521810 0.644910 0.966076
Cu2   Cu    Cu3+1 0.485300 0.478190 0.355090 0.919169
N1    N     N_2   0.463210 0.445420 0.137360 -0.152220
N2    N     N_2   0.536790 0.554580 0.862640 -0.124717
O1    O     O_R   0.507840 0.332340 0.577400 -0.539344
O2    O     O_R   0.492160 0.667660 0.422600 -0.602881
O3    O     O_R   0.483020 0.295500 0.332650 -0.590707
O4    O     O_R   0.516980 0.704500 0.667350 -0.566211
O5    O     O_R   0.391490 0.518400 0.622350 -0.540547
O6    O     O_R   0.608510 0.481600 0.377650 -0.597005
O7    O     O_R   0.366660 0.481570 0.377600 -0.564729
O8    O     O_R   0.633340 0.518430 0.622400 -0.579365
N3    N     N_3   0.047184 0.259198 0.327882 -0.538043
H1    H     H_    0.993426 0.191485 0.297764 0.227841
H2    H     H_    0.093298 0.228738 0.394336 0.211897
N4    N     N_3   0.945886 0.745849 0.646471 -0.604629
H3    H     H_    0.998262 0.816141 0.690155 0.223940
H4    H     H_    0.918628 0.736035 0.732178 0.234244
O9    O     O_3   0.951104 0.313699 0.600317 -0.602489
C23   C     C_3   0.022708 0.267144 0.667035 0.133961
H5    H     H_    0.023717 0.303141 0.786348 0.192671
H6    H     H_    0.085711 0.301002 0.648667 0.151638
C24   C     C_3   0.014362 0.116538 0.609926 -0.397082
H7    H     H_    0.957548 0.079509 0.642759 0.233457
H8    H     H_    0.005158 0.080450 0.489486 0.223539
C25   C     C_3   0.094488 0.062379 0.667718 -0.924289
H9    H     H_    0.152055 0.099006 0.636543 0.255542
H10   H     H_    0.088286 0.953237 0.620453 0.273347
H11   H     H_    0.103195 0.092877 0.788004 0.264378
O10   O     O_3   0.051701 0.685952 0.380092 -0.597845
C26   C     C_3   0.982535 0.748430 0.331276 0.101228
H12   H     H_    0.960668 0.821245 0.425581 0.161772
H13   H     H_    0.927490 0.676714 0.265068 0.162982
C27   C     C_3   0.012614 0.820888 0.236655 -0.329620
H14   H     H_    0.064514 0.898515 0.302667 0.224071
H15   H     H_    0.038757 0.749713 0.146506 0.229583
C28   C     C_3   0.939414 0.883744 0.172067 -0.971479
H16   H     H_    0.888933 0.806557 0.099768 0.265000
H17   H     H_    0.964140 0.937801 0.106860 0.259328
H18   H     H_    0.910900 0.954229 0.259615 0.256810
O11   O     O_3   0.933437 0.428182 0.199924 -0.585738
C29   C     C_3   0.843785 0.403833 0.158896 0.060907
H19   H     H_    0.827326 0.408442 0.047799 0.173281
H20   H     H_    0.809315 0.482098 0.227743 0.128571
C30   C     C_3   0.813760 0.265292 0.151935 -0.346639
H21   H     H_    0.848290 0.191228 0.077565 0.230036
H22   H     H_    0.828750 0.256439 0.261186 0.223479
C31   C     C_3   0.717551 0.234741 0.096684 -0.907880
H23   H     H_    0.681609 0.307032 0.169802 0.274870
H24   H     H_    0.697627 0.134488 0.093813 0.251567
H25   H     H_    0.701246 0.238212 0.985080 0.259859
O12   O     O_3   0.084666 0.553757 0.772951 -0.618716
C32   C     C_3   0.106221 0.687128 0.860962 0.082514
H26   H     H_    0.132999 0.687767 0.971418 0.174330
H27   H     H_    0.048957 0.743144 0.874410 0.136239
C33   C     C_3   0.175526 0.754315 0.810272 -0.378778
H28   H     H_    0.231200 0.693814 0.797714 0.237176
H29   H     H_    0.150121 0.763912 0.703975 0.226215
C34   C     C_3   0.205776 0.891655 0.919884 -0.913010
H30   H     H_    0.150813 0.953093 0.937597 0.257490
H31   H     H_    0.253257 0.939996 0.877949 0.260858
H32   H     H_    0.236574 0.884968 0.025344 0.264675
N5    N     N_3   0.366805 0.845619 0.401832 -0.596798
H33   H     H_    0.337762 0.794370 0.457508 0.210875
H34   H     H_    0.386799 0.778630 0.311741 0.243580
N6    N     N_3   0.406332 0.158438 0.627153 -0.597287
H35   H     H_    0.341945 0.125458 0.613755 0.205292
H36   H     H_    0.437331 0.153106 0.725683 0.235698
N7    N     N_3   0.562284 0.979710 0.691299 -0.609888
H37   H     H_    0.557183 0.970581 0.791430 0.226429
H38   H     H_    0.622703 0.952913 0.668190 0.220090
N8    N     N_3   0.504072 0.017950 0.292669 -0.610235
H39   H     H_    0.470313 0.030082 0.199456 0.226236
H40   H     H_    0.569079 0.041547 0.297231 0.216110
N9    N     N_3   0.396323 0.465191 0.848507 -0.532257
H41   H     H_    0.381785 0.365982 0.830365 0.236553
H42   H     H_    0.354637 0.520120 0.912914 0.191765
N10   N     N_3   0.549605 0.643151 0.172671 -0.580222
H43   H     H_    0.595754 0.629433 0.251614 0.264572
H44   H     H_    0.508949 0.715025 0.214571 0.237927
N11   N     N_3   0.622139 0.573959 0.929975 -0.509280
H45   H     H_    0.652404 0.492012 0.874915 0.231810
H46   H     H_    0.649276 0.655560 0.913194 0.241887
N12   N     N_3   0.436098 0.317585 0.044659 -0.563470
H47   H     H_    0.483674 0.257315 0.062764 0.241402
H48   H     H_    0.381465 0.288681 0.077220 0.249000

loop_
_geom_bond_atom_site_label_1
_geom_bond_atom_site_label_2
_ccdc_geom_bond_type
C1    C21   S    
O9    C23   S    
N3    H1    S    
C10   O10   S    
C34   H30   S    
C24   H7    S    
N3    H2    S    
C5    C6    S    
C33   H29   S    
C24   C25   S    
C21   N8    S    
C10   C17   S    
C27   H14   S    
Cu1   N2    S    
C32   H27   S    
Cu2   O3    S    
C34   H31   S    
C25   H11   S    
C2    C22   S    
C22   N7    S    
C12   C15   S    
C31   H23   S    
C16   O11   S    
Cu1   O1    S    
C26   H13   S    
C28   H16   S    
C7    O7    A    
C23   H6    S    
N10   H44   S    
N9    H42   S    
N1    N12   S    
N9    H41   S    
C24   H8    S    
N4    H3    S    
C28   H17   S    
C7    O5    A    
C29   C30   S    
C13   C19   T    
N5    H34   S    
C30   H21   S    
C8    O6    A    
Cu1   O4    S    
C14   C20   T    
Cu2   N1    S    
O12   C32   S    
N7    H37   S    
C33   H28   S    
C4    N5    S    
N5    H33   S    
C30   H22   S    
C23   C24   S    
C29   H20   S    
C32   H26   S    
Cu2   O6    S    
N2    N11   S    
N7    H38   S    
C4    C22   D    
C11   C16   S    
C5    N10   S    
Cu1   Cu2   S    
Cu1   O8    S    
C31   H25   S    
C1    O3    A    
N11   H46   S    
C8    O8    A    
N8    H40   S    
C9    C11   S    
C10   C12   S    
C5    N1    D    
C25   H9    S    
N6    H36   S    
C3    C21   D    
C23   H5    S    
C3    C4    S    
C34   H32   S    
O10   C26   S    
C6    N9    S    
C26   C27   S    
C15   C17   S    
C11   C17   S    
C28   H18   S    
C8    C14   S    
C3    N6    S    
Cu2   O2    S    
C31   H24   S    
C26   H12   S    
C9    O9    S    
Cu2   O7    S    
C27   C28   S    
C2    O4    A    
C30   C31   S    
C29   H19   S    
C11   N3    S    
C9    C15   S    
C10   C16   S    
N4    H4    S    
C33   C34   S    
C6    N2    D    
N12   H48   S    
C25   H10   S    
N10   H43   S    
C17   C19   S    
C27   H15   S    
C18   C20   S    
C12   N4    S    
N8    H39   S    
C32   C33   S    
O11   C29   S    
C9    C18   S    
C7    C13   S    
C15   O12   S    
N6    H35   S    
C16   C18   S    
N12   H47   S    
C12   C18   S    
N11   H45   S    
C1    O1    A    
C2    O2    A    
Cu1   O5    S    
