data_mof_unit_48876.cif
_audit_creation_date              2012-12-10T16:53:11-0500
_audit_creation_method            fapswitch 2.2
_symmetry_space_group_name_H-M    P1
_symmetry_Int_Tables_number       1
_space_group_crystal_system       triclinic
_cell_length_a                    10.810964
_cell_length_b                    10.916872
_cell_length_c                    9.784693
_cell_angle_alpha                 86.948605
_cell_angle_beta                  90.070753
_cell_angle_gamma                 90.245314
_cell_volume                      1153.15970043

loop_
_atom_site_label
_atom_site_type_symbol
_atom_type_description
_atom_site_fract_x
_atom_site_fract_y
_atom_site_fract_z
_atom_type_partial_charge
C1    C     C_R   0.499374 0.265743 0.504200 0.775364
C2    C     C_R   0.065506 0.399817 0.569207 0.041086
C3    C     C_R   0.129164 0.498588 0.500545 -0.141350
C4    C     C_R   0.064593 0.595305 0.430609 0.073751
C5    C     C_R   0.935391 0.590954 0.426130 0.343903
C6    C     C_R   0.871215 0.496146 0.499112 -0.205736
C7    C     C_2   0.596473 0.934670 0.520594 0.227665
C8    C     C_2   0.502487 0.865659 0.479177 -0.194072
C9    C     C_2   0.593156 0.065756 0.478721 0.061273
C10   C     C_2   0.498132 0.133562 0.521372 0.182212
C11   C     C_2   0.511094 0.405527 0.934145 0.279827
C12   C     C_R   0.263076 0.499805 0.500081 0.791561
C13   C     C_2   0.466170 0.409167 0.078592 0.277036
C14   C     C_R   0.501073 0.734003 0.495803 0.840767
C15   C     C_R   0.737109 0.499110 0.499865 0.834959
C16   C     C_R   0.128972 0.299727 0.635140 -0.115053
C17   C     C_R   0.064553 0.203363 0.701948 -0.085407
C18   C     C_R   0.936170 0.203282 0.702732 -0.141364
C19   C     C_R   0.871846 0.299463 0.636563 -0.156320
C20   C     C_R   0.935085 0.399384 0.569728 0.048194
Cu1   Cu    Cu3+1 0.500020 0.500020 0.638630 1.041465
Cu2   Cu    Cu3+1 0.499980 0.499980 0.361370 0.994143
H1    H     H_    0.561577 0.559833 0.108788 0.233359
H2    H     H_    0.228603 0.293738 0.634854 0.176019
H3    H     H_    0.114487 0.127869 0.752123 0.186383
H4    H     H_    0.886114 0.127687 0.753256 0.147407
H5    H     H_    0.772391 0.292705 0.635487 0.127142
H6    H     H_    0.433005 0.906587 0.410489 0.132310
N1    N     N_2   0.498640 0.498660 0.846910 -0.018987
N2    N     N_2   0.498610 0.498630 0.153040 -0.257543
O1    O     O_R   0.500020 0.321960 0.617040 -0.585324
O2    O     O_R   0.499980 0.321920 0.382900 -0.599287
O3    O     O_R   0.319670 0.500020 0.617100 -0.536992
O4    O     O_R   0.319630 0.499980 0.382950 -0.580097
O5    O     O_R   0.500020 0.678080 0.617100 -0.503708
O6    O     O_R   0.499980 0.678040 0.382960 -0.564662
O7    O     O_R   0.680370 0.500020 0.617050 -0.593965
O8    O     O_R   0.680330 0.499980 0.382900 -0.537292
C21   C     C_3   0.130394 0.706069 0.363656 -0.674890
H7    H     H_    0.090509 0.791491 0.401516 0.246936
H8    H     H_    0.230525 0.710282 0.386512 0.204865
H9    H     H_    0.118523 0.706453 0.250908 0.263455
Cl1   Cl    Cl    0.385513 0.071789 0.637895 -0.676701
C22   C     C_3   0.573957 0.290595 0.894621 -0.806788
H10   H     H_    0.620662 0.245486 0.984992 0.202963
H11   H     H_    0.504850 0.225502 0.855989 0.277679
H12   H     H_    0.646367 0.312527 0.817490 0.244052
Cl2   Cl    Cl    0.407344 0.620220 0.895391 -0.481123
C23   C     C_3   0.379303 0.309211 0.130117 -0.712907
H13   H     H_    0.311101 0.290244 0.048854 0.209499
H14   H     H_    0.431675 0.223816 0.155837 0.214700
H15   H     H_    0.325745 0.336113 0.219797 0.261150
Cl3   Cl    Cl    0.853642 0.707351 0.330197 -0.645157
C24   C     C_3   0.701063 0.884234 0.608451 -0.739981
H16   H     H_    0.770416 0.956844 0.626892 0.221953
H17   H     H_    0.664421 0.848882 0.708965 0.255868
H18   H     H_    0.747824 0.808734 0.558082 0.247811
C25   C     C_3   0.693132 0.117902 0.384653 -0.843301
H19   H     H_    0.763558 0.047321 0.364489 0.270946
H20   H     H_    0.651759 0.149753 0.285169 0.241986
H21   H     H_    0.740269 0.196061 0.430212 0.218314

loop_
_geom_bond_atom_site_label_1
_geom_bond_atom_site_label_2
_ccdc_geom_bond_type
C17   C18   A    
C4    C21   S    
C15   O8    A    
Cu1   O5    S    
C2    C16   A    
C9    C10   D    
C19   C20   A    
C18   H4    S    
C22   H12   S    
C1    O1    A    
C25   H20   S    
C23   H15   S    
C17   H3    S    
C25   H21   S    
C2    C3    A    
C6    C15   S    
C7    C8    D    
C21   H8    S    
C15   O7    A    
Cu1   Cu2   S    
Cu1   O1    S    
Cu2   O2    S    
C6    C20   A    
C12   O3    A    
C13   C23   S    
C4    C5    A    
C5    Cl3   S    
C19   H5    S    
C22   H11   S    
C23   H13   S    
C21   H9    S    
C14   O6    A    
C5    C6    A    
Cu2   O4    S    
C24   H17   S    
C25   H19   S    
C11   C13   S    
Cu1   O3    S    
N1    Cl2   S    
C12   O4    A    
C3    C4    A    
Cu2   O8    S    
H1    N2    S    
C13   N2    D    
C11   C22   S    
Cu1   O7    S    
C22   H10   S    
C11   N1    D    
C8    H6    S    
C16   H2    S    
C9    C25   S    
C14   O5    A    
C7    C9    S    
C2    C20   A    
C21   H7    S    
C18   C19   A    
C8    C14   S    
C3    C12   S    
Cu2   N2    S    
C7    C24   S    
C10   Cl1   S    
C24   H16   S    
Cu1   N1    S    
C1    O2    A    
Cu2   O6    S    
C1    C10   S    
C16   C17   A    
C23   H14   S    
C24   H18   S    
