data_mof_unit_63267.cif
_audit_creation_date              2012-12-10T17:57:12-0500
_audit_creation_method            fapswitch 2.2
_symmetry_space_group_name_H-M    P1
_symmetry_Int_Tables_number       1
_space_group_crystal_system       triclinic
_cell_length_a                    18.288877
_cell_length_b                    18.314076
_cell_length_c                    25.820853
_cell_angle_alpha                 89.996435
_cell_angle_beta                  90.006611
_cell_angle_gamma                 89.957632
_cell_volume                      8648.5343359

loop_
_atom_site_label
_atom_site_type_symbol
_atom_type_description
_atom_site_fract_x
_atom_site_fract_y
_atom_site_fract_z
_atom_type_partial_charge
Br1   Br    Br    0.841274 0.028016 0.374423 -0.328187
Br2   Br    Br    0.841546 0.786817 0.858798 -0.282184
Br3   Br    Br    0.841346 0.786979 0.141149 -0.281805
Br4   Br    Br    0.295163 0.922792 0.724231 -0.284081
Br5   Br    Br    0.795165 0.422783 0.775787 -0.284969
Br6   Br    Br    0.341609 0.286747 0.358771 -0.282461
Br7   Br    Br    0.341513 0.286834 0.641202 -0.282452
Br8   Br    Br    0.577479 0.206559 0.279032 -0.271944
Br9   Br    Br    0.923229 0.294292 0.775466 -0.300545
Br10  Br    Br    0.213858 0.157804 0.358643 -0.279788
Br11  Br    Br    0.213781 0.157874 0.641332 -0.279940
Br12  Br    Br    0.841388 0.028131 0.625376 -0.358403
Br13  Br    Br    0.704251 0.077157 0.274965 -0.235986
Br14  Br    Br    0.423217 0.794279 0.275491 -0.292890
Br15  Br    Br    0.713809 0.657862 0.858670 -0.279697
Br16  Br    Br    0.713624 0.658021 0.141284 -0.278640
Br17  Br    Br    0.423220 0.794294 0.724530 -0.299628
Br18  Br    Br    0.075829 0.706415 0.223960 -0.307456
Br19  Br    Br    0.789530 0.838157 0.640204 -0.296205
Br20  Br    Br    0.789930 0.837750 0.359884 -0.286354
Br21  Br    Br    0.075840 0.706414 0.776030 -0.303253
Br22  Br    Br    0.575829 0.206415 0.723977 -0.302520
Br23  Br    Br    0.341429 0.528123 0.874608 -0.358382
Br24  Br    Br    0.289371 0.338311 0.140233 -0.296408
Br25  Br    Br    0.289557 0.338147 0.859793 -0.295838
Br26  Br    Br    0.793519 0.422670 0.220570 -0.314544
Br27  Br    Br    0.341435 0.528187 0.125364 -0.358417
Br28  Br    Br    0.732482 0.137700 0.436163 -0.226405
Br29  Br    Br    0.732496 0.137749 0.563629 -0.244555
Br30  Br    Br    0.232933 0.638311 0.936218 -0.244487
Br31  Br    Br    0.232945 0.638351 0.063707 -0.244656
Br32  Br    Br    0.295154 0.922774 0.275808 -0.279164
C1    C     C_R   0.859896 0.140099 0.249855 0.569975
C2    C     C_R   0.787406 0.766539 0.796112 0.151703
C3    C     C_R   0.493312 0.499335 0.053981 0.033417
C4    C     C_R   0.054796 0.973730 0.473043 0.078122
C5    C     C_R   0.054793 0.973735 0.526934 0.077793
C6    C     C_R   0.554836 0.473591 0.973060 0.077971
C7    C     C_R   0.554837 0.473597 0.026953 0.078252
C8    C     C_R   0.787329 0.766599 0.203866 0.151566
C9    C     C_R   0.269232 0.823018 0.740422 0.149850
C10   C     C_R   0.769232 0.323015 0.759586 0.149803
C11   C     C_R   0.287420 0.266518 0.296098 0.150870
C12   C     C_R   0.287392 0.266546 0.703888 0.151627
C13   C     C_R   0.676972 0.231325 0.260765 0.147103
C14   C     C_R   0.823109 0.268848 0.759480 0.152502
C15   C     C_R   0.233595 0.212308 0.296059 0.161321
C16   C     C_R   0.233574 0.212329 0.703927 0.161038
C17   C     C_R   0.140105 0.140033 0.750042 0.562762
C18   C     C_R   0.730772 0.177108 0.260068 0.167659
C19   C     C_R   0.323102 0.768841 0.259488 0.152042
C20   C     C_R   0.733585 0.712324 0.796074 0.161108
C21   C     C_R   0.733510 0.712384 0.203906 0.161807
C22   C     C_R   0.323105 0.768848 0.740518 0.152560
C23   C     C_R   0.803276 0.195764 0.750124 -0.013063
C24   C     C_R   0.196087 0.196145 0.249867 -0.008815
C25   C     C_R   0.196117 0.196121 0.750129 -0.007521
C26   C     C_R   0.803827 0.196273 0.249521 -0.012721
C27   C     C_R   0.303272 0.695760 0.250121 -0.012956
C28   C     C_R   0.140092 0.140040 0.249952 0.559594
C29   C     C_R   0.696113 0.696123 0.749872 -0.007502
C30   C     C_R   0.696132 0.696101 0.250127 -0.007515
C31   C     C_R   0.303273 0.695761 0.749867 -0.013027
C32   C     C_R   0.729704 0.176254 0.741405 0.092833
C33   C     C_R   0.212176 0.233357 0.203575 0.078228
C34   C     C_R   0.212279 0.233270 0.796434 0.081595
C35   C     C_R   0.823245 0.269023 0.238413 0.074860
C36   C     C_R   0.229702 0.676250 0.241394 0.093516
C37   C     C_R   0.712264 0.733277 0.703565 0.081564
C38   C     C_R   0.712416 0.733128 0.296461 0.081397
C39   C     C_R   0.859604 0.139825 0.749904 0.571153
C40   C     C_R   0.229705 0.676251 0.758588 0.092855
C41   C     C_R   0.176077 0.730800 0.240538 0.133901
C42   C     C_R   0.766926 0.786725 0.703468 0.140518
C43   C     C_R   0.767097 0.786554 0.296561 0.144158
C44   C     C_R   0.176083 0.730802 0.759455 0.133374
C45   C     C_R   0.676079 0.230803 0.740548 0.133324
C46   C     C_R   0.266841 0.286803 0.203476 0.141415
C47   C     C_R   0.266937 0.286720 0.796531 0.140551
C48   C     C_R   0.769094 0.323131 0.238541 0.136314
C49   C     C_R   0.196061 0.803794 0.249849 -0.001110
C50   C     C_R   0.359602 0.639823 0.750093 0.571198
C51   C     C_R   0.803763 0.803693 0.749846 0.000844
C52   C     C_R   0.803789 0.803660 0.250151 0.002746
C53   C     C_R   0.196068 0.803801 0.750158 -0.001063
C54   C     C_R   0.696065 0.303799 0.749852 -0.001081
C55   C     C_R   0.303742 0.303709 0.249841 0.000562
C56   C     C_R   0.303760 0.303695 0.750152 0.000829
C57   C     C_R   0.696330 0.304022 0.249942 -0.000504
C58   C     C_R   0.027346 0.938682 0.027136 0.073525
C59   C     C_R   0.972528 0.061050 0.972864 0.074456
C60   C     C_R   0.972517 0.061049 0.027115 0.074397
C61   C     C_R   0.640107 0.640029 0.250041 0.563122
C62   C     C_R   0.027355 0.938681 0.972875 0.073163
C63   C     C_R   0.527344 0.438683 0.527137 0.073028
C64   C     C_R   0.472525 0.561054 0.472868 0.072605
C65   C     C_R   0.472516 0.561051 0.527121 0.072668
C66   C     C_R   0.527355 0.438686 0.472876 0.072871
C67   C     C_R   0.000000 0.999897 0.946190 0.005618
C68   C     C_R   0.999982 0.999897 0.053807 0.007188
C69   C     C_R   0.499999 0.499901 0.446192 0.005536
C70   C     C_R   0.499981 0.499897 0.553809 0.005646
C71   C     C_R   0.140109 0.860005 0.249989 0.572054
C72   C     C_R   0.640102 0.640032 0.749958 0.562721
C73   C     C_R   0.859810 0.859976 0.749919 0.584973
C74   C     C_R   0.859817 0.859964 0.250075 0.588430
C75   C     C_R   0.140113 0.860008 0.750013 0.572019
C76   C     C_R   0.640111 0.360007 0.749990 0.572023
C77   C     C_R   0.359804 0.359981 0.249915 0.584601
C78   C     C_R   0.359808 0.359975 0.750080 0.585033
C79   C     C_R   0.640135 0.360018 0.249997 0.572418
C80   C     C_R   0.999996 0.999936 0.109913 0.543525
C81   C     C_R   0.000004 0.999927 0.890086 0.544802
C82   C     C_R   0.499996 0.499932 0.609914 0.544950
C83   C     C_R   0.359602 0.639822 0.249902 0.571273
C84   C     C_R   0.500003 0.499931 0.390087 0.544828
C85   C     C_R   0.999126 0.000015 0.390017 0.567021
C86   C     C_R   0.999130 0.000022 0.609968 0.567190
C87   C     C_R   0.499198 0.500016 0.890026 0.567169
C88   C     C_R   0.499196 0.500020 0.109974 0.567388
C89   C     C_R   0.865400 0.051048 0.445681 0.152952
C90   C     C_R   0.865432 0.051131 0.554160 0.154172
C91   C     C_R   0.365637 0.551347 0.945762 0.154077
C92   C     C_R   0.365640 0.551371 0.054207 0.154203
C93   C     C_R   0.810765 0.088828 0.472907 0.204520
C94   C     C_R   0.269226 0.823009 0.259593 0.149485
C95   C     C_R   0.810778 0.088865 0.526910 0.203628
C96   C     C_R   0.311099 0.589279 0.972975 0.205653
C97   C     C_R   0.311102 0.589292 0.026975 0.205724
C98   C     C_R   0.929527 0.025525 0.527616 -0.049868
C99   C     C_R   0.929515 0.025490 0.472280 -0.052646
C100  C     C_R   0.429689 0.525656 0.027654 -0.049850
C101  C     C_R   0.429688 0.525647 0.972330 -0.049809
C102  C     C_R   0.993217 0.999319 0.445994 0.032078
C103  C     C_R   0.993217 0.999345 0.553961 0.033461
C104  C     C_R   0.493311 0.499324 0.946018 0.033488
I1    I     I_    0.150944 0.938935 0.431435 -0.091879
I2    I     I_    0.650821 0.711834 0.634395 -0.077901
I3    I     I_    0.651138 0.711546 0.365681 -0.075257
I4    I     I_    0.198879 0.564791 0.771770 -0.019145
I5    I     I_    0.065285 0.845227 0.069492 -0.059024
I6    I     I_    0.934127 0.154310 0.930523 -0.118557
I7    I     I_    0.934089 0.154304 0.069423 -0.138116
I8    I     I_    0.065310 0.845229 0.930539 -0.058875
I9    I     I_    0.565280 0.345225 0.569492 -0.059581
I10   I     I_    0.434119 0.654312 0.430531 -0.118877
I11   I     I_    0.434094 0.654305 0.569442 -0.119077
I12   I     I_    0.150930 0.938929 0.568569 -0.092529
I13   I     I_    0.565315 0.345237 0.430541 -0.058516
I14   I     I_    0.650902 0.438597 0.931446 -0.092889
I15   I     I_    0.650906 0.438610 0.068587 -0.091987
I16   I     I_    0.698877 0.064798 0.728213 -0.017868
I17   I     I_    0.150648 0.211987 0.134432 -0.095218
I18   I     I_    0.150857 0.211817 0.865605 -0.077461
I19   I     I_    0.933546 0.296339 0.217873 -0.099307
I20   I     I_    0.198877 0.564795 0.228189 -0.028385
O1    O     O_3   1.000000 1.000000 0.249960 -0.497016
O2    O     O_R   0.585480 0.646190 0.219690 -0.495761
O3    O     O_R   0.585480 0.646190 0.780310 -0.496640
O4    O     O_R   0.414520 0.646190 0.219690 -0.487159
O5    O     O_R   0.085470 0.853840 0.280350 -0.504564
O6    O     O_R   0.914530 0.853840 0.719650 -0.486578
O7    O     O_R   0.914530 0.853840 0.280350 -0.489461
O8    O     O_R   0.085470 0.853840 0.719650 -0.504288
O9    O     O_R   0.585470 0.353840 0.780350 -0.504143
O10   O     O_R   0.414530 0.353840 0.219650 -0.486794
O11   O     O_R   0.414530 0.353840 0.780350 -0.486399
O12   O     O_3   1.000000 0.000000 0.750040 -0.496896
O13   O     O_R   0.585470 0.353840 0.219650 -0.505539
O14   O     O_R   0.853820 0.914550 0.219610 -0.491576
O15   O     O_R   0.146180 0.914550 0.780390 -0.501479
O16   O     O_R   0.146180 0.914550 0.219610 -0.500996
O17   O     O_R   0.853820 0.914550 0.780390 -0.501385
O18   O     O_R   0.353820 0.414550 0.719610 -0.501549
O19   O     O_R   0.646180 0.414550 0.280390 -0.500920
O20   O     O_R   0.646180 0.414550 0.719610 -0.501630
O21   O     O_R   0.353820 0.414550 0.280390 -0.502030
O22   O     O_R   0.146180 0.085440 0.219600 -0.507359
O23   O     O_3   0.500000 0.500000 0.749960 -0.496890
O24   O     O_R   0.853820 0.085440 0.780400 -0.516448
O25   O     O_R   0.853820 0.085440 0.219600 -0.499884
O26   O     O_R   0.146180 0.085440 0.780400 -0.510111
O27   O     O_R   0.646180 0.585440 0.719600 -0.510280
O28   O     O_R   0.353820 0.585440 0.280400 -0.516532
O29   O     O_R   0.353820 0.585440 0.719600 -0.516629
O30   O     O_R   0.646180 0.585440 0.280400 -0.510878
O31   O     O_R   0.939280 0.999970 0.134160 -0.509600
O32   O     O_R   0.060720 0.999970 0.865840 -0.519534
O33   O     O_R   0.060720 0.999970 0.134160 -0.519585
O34   O     O_3   0.500000 0.500000 0.250040 -0.496799
O35   O     O_R   0.939280 0.999970 0.865840 -0.508758
O36   O     O_R   0.439280 0.499970 0.634160 -0.508943
O37   O     O_R   0.560720 0.499970 0.365840 -0.520171
O38   O     O_R   0.560720 0.499970 0.634160 -0.519652
O39   O     O_R   0.439280 0.499970 0.365840 -0.508991
O40   O     O_R   0.000000 0.060760 0.365770 -0.501011
O41   O     O_R   0.000000 0.060760 0.634230 -0.501040
O42   O     O_R   0.500000 0.560760 0.865770 -0.500900
O43   O     O_R   0.500000 0.560760 0.134230 -0.500729
O44   O     O_R   0.000000 0.939310 0.365780 -0.499939
O45   O     O_R   0.914520 0.146190 0.280310 -0.504507
O46   O     O_R   0.000000 0.939310 0.634220 -0.499588
O47   O     O_R   0.500000 0.439310 0.865780 -0.499453
O48   O     O_R   0.500000 0.439310 0.134220 -0.499168
O49   O     O_R   0.085480 0.146190 0.719690 -0.496817
O50   O     O_R   0.085480 0.146190 0.280310 -0.505986
O51   O     O_R   0.914520 0.146190 0.719690 -0.487448
O52   O     O_R   0.414520 0.646190 0.780310 -0.487220
Zn1   Zn    Zn3+2 0.000000 0.913250 0.293350 1.069763
Zn2   Zn    Zn3+2 0.586770 0.499990 0.293420 1.042414
Zn3   Zn    Zn3+2 0.586770 0.499990 0.706580 1.043079
Zn4   Zn    Zn3+2 0.413230 0.499990 0.293420 1.050933
Zn5   Zn    Zn3+2 0.000000 0.086780 0.293330 1.051274
Zn6   Zn    Zn3+2 1.000000 0.086780 0.706670 1.063456
Zn7   Zn    Zn3+2 0.500000 0.586780 0.793330 1.063852
Zn8   Zn    Zn3+2 0.500000 0.586780 0.206670 1.065095
Zn9   Zn    Zn3+2 0.000000 0.913250 0.706650 1.068423
Zn10  Zn    Zn3+2 0.500000 0.413250 0.793350 1.068778
Zn11  Zn    Zn3+2 0.500000 0.413250 0.206650 1.069063
Zn12  Zn    Zn3+2 0.913230 0.999990 0.206580 1.062636
Zn13  Zn    Zn3+2 0.086770 0.999990 0.793420 1.043478
Zn14  Zn    Zn3+2 0.086770 0.999990 0.206580 1.041565
Zn15  Zn    Zn3+2 0.913230 0.999990 0.793420 1.052047
Zn16  Zn    Zn3+2 0.413230 0.499990 0.706580 1.051679

loop_
_geom_bond_atom_site_label_1
_geom_bond_atom_site_label_2
_ccdc_geom_bond_type
C46   C55   A    
O8    Zn9   S    
Br5   C10   S    
O1    Zn1   S    
C1    C26   S    
O23   Zn3   S    
C49   C94   A    
C87   O42   A    
C74   O14   A    
C32   C45   A    
C8    C52   A    
C98   C103  A    
C63   I9    S    
C25   C34   A    
C40   C44   A    
C99   C102  A    
O34   Zn11  S    
C80   O31   A    
C50   O52   A    
C83   O28   A    
O7    Zn1   S    
C63   C66   A    
C16   C25   A    
C75   O15   A    
C34   C47   A    
C3    C100  A    
Br21  C44   S    
C92   C100  A    
C91   C101  A    
C79   O19   A    
C13   C18   A    
O21   Zn4   S    
C4    C5    A    
C20   C29   A    
C6    C7    A    
C43   C52   A    
Br4   C9    S    
C85   C102  S    
O2    Zn8   S    
C24   C33   A    
O4    Zn8   S    
C7    I15   S    
C90   C95   A    
C88   O43   A    
C17   C25   S    
C30   C38   A    
O24   Zn15  S    
C35   I19   S    
C10   C14   A    
O19   Zn2   S    
C58   C68   A    
C48   C57   A    
O41   Zn6   S    
C60   I7    S    
O34   Zn4   S    
Br8   C13   S    
C33   I17   S    
C44   C53   A    
C80   O33   A    
Br16  C21   S    
C84   O39   A    
C100  C101  A    
O29   Zn16  S    
C14   C23   A    
C101  C104  A    
C52   C74   S    
C5    C103  A    
O28   Zn4   S    
C10   C54   A    
C6    C104  A    
O12   Zn9   S    
C13   C57   A    
C4    I1    S    
O12   Zn13  S    
O11   Zn10  S    
C65   C70   A    
C63   C70   A    
C59   I6    S    
C56   C78   S    
C61   O30   A    
Br2   C2    S    
C39   O51   A    
O12   Zn6   S    
O38   Zn3   S    
O6    Zn9   S    
Br9   C14   S    
C73   O17   A    
C64   C69   A    
C96   C97   A    
C65   I11   S    
C3    C88   S    
C86   O46   A    
C89   C99   A    
O42   Zn7   S    
C41   C49   A    
C47   C56   A    
O15   Zn13  S    
C58   C62   A    
O14   Zn12  S    
O31   Zn12  S    
C78   O18   A    
C81   O35   A    
Br30  C96   S    
C71   O5    A    
C17   O26   A    
O3    Zn7   S    
C28   O22   A    
C50   O29   A    
O43   Zn8   S    
C18   C26   A    
C42   C51   A    
C29   C72   S    
C87   O47   A    
O36   Zn16  S    
Br12  C90   S    
C59   C60   A    
C34   I18   S    
O33   Zn14  S    
Br23  C91   S    
C31   C50   S    
C36   C41   A    
Br7   C12   S    
C81   O32   A    
O5    Zn1   S    
O1    Zn12  S    
Br26  C48   S    
C51   C73   S    
Br20  C43   S    
C79   O13   A    
C82   O36   A    
C74   O7    A    
C39   O24   A    
C3    C7    A    
C64   C65   A    
C89   C93   A    
C70   C82   S    
C27   C36   A    
C78   O11   A    
O46   Zn9   S    
Br14  C19   S    
C40   I4    S    
C23   C32   A    
O25   Zn12  S    
O18   Zn16  S    
C37   C42   A    
Br15  C20   S    
C31   C40   A    
Br11  C16   S    
C76   O20   A    
O45   Zn5   S    
C85   O44   A    
Br32  C94   S    
O9    Zn10  S    
C84   O37   A    
C91   C96   A    
O50   Zn5   S    
Br24  C46   S    
O13   Zn11  S    
C32   I16   S    
C45   C54   A    
C68   C80   S    
Br18  C41   S    
Br6   C11   S    
O30   Zn2   S    
O23   Zn10  S    
C1    O25   A    
O1    Zn14  S    
C88   O48   A    
C19   C27   A    
C2    C51   A    
O12   Zn15  S    
O17   Zn15  S    
O35   Zn15  S    
Br10  C15   S    
O48   Zn11  S    
Br28  C93   S    
C60   C68   A    
C49   C71   S    
C29   C37   A    
C37   I2    S    
O26   Zn13  S    
C33   C46   A    
C82   O38   A    
O47   Zn10  S    
Br3   C8    S    
Br25  C47   S    
C19   C94   A    
C2    C20   A    
Br19  C42   S    
C54   C76   S    
C35   C48   A    
O44   Zn1   S    
Br22  C45   S    
C17   O49   A    
C11   C15   A    
C36   I20   S    
C4    C102  A    
C67   C81   S    
Br27  C92   S    
C55   C77   S    
O52   Zn7   S    
C66   C69   A    
C64   I10   S    
C57   C79   S    
O1    Zn5   S    
C87   C104  S    
O20   Zn3   S    
O23   Zn16  S    
C62   I8    S    
Br29  C95   S    
C98   C99   A    
O34   Zn2   S    
C83   O4    A    
C11   C55   A    
O39   Zn4   S    
Br31  C97   S    
C85   O40   A    
C53   C75   S    
O32   Zn13  S    
O40   Zn5   S    
C76   O9    A    
C28   O50   A    
O37   Zn2   S    
C71   O16   A    
O34   Zn8   S    
C62   C67   A    
Br17  C22   S    
C1    O45   A    
C6    I14   S    
C92   C97   A    
O51   Zn6   S    
C5    I12   S    
C61   O2    A    
Br1   C89   S    
C9    C22   A    
O49   Zn6   S    
C58   I5    S    
O16   Zn14  S    
C77   O10   A    
C86   C103  S    
Br13  C18   S    
C77   O21   A    
C26   C35   A    
C38   I3    S    
C72   O27   A    
C24   C28   S    
C75   O8    A    
C21   C30   A    
C27   C83   S    
C8    C21   A    
C22   C31   A    
C30   C61   S    
O23   Zn7   S    
C38   C43   A    
C93   C95   A    
C69   C84   S    
C73   O6    A    
O22   Zn14  S    
C72   O3    A    
C59   C67   A    
C12   C56   A    
C86   O41   A    
O27   Zn3   S    
O10   Zn11  S    
C90   C98   A    
C23   C39   S    
C9    C53   A    
C12   C16   A    
C15   C24   A    
C66   I13   S    
