data_mof_unit_20680.cif
_audit_creation_date              2012-12-11T14:33:09-0500
_audit_creation_method            fapswitch 2.2
_symmetry_space_group_name_H-M    P1
_symmetry_Int_Tables_number       1
_space_group_crystal_system       triclinic
_cell_length_a                    7.007607
_cell_length_b                    14.237439
_cell_length_c                    18.131768
_cell_angle_alpha                 112.987978
_cell_angle_beta                  94.355009
_cell_angle_gamma                 90.410112
_cell_volume                      1659.20946394

loop_
_atom_site_label
_atom_site_type_symbol
_atom_type_description
_atom_site_fract_x
_atom_site_fract_y
_atom_site_fract_z
_atom_type_partial_charge
O1    O     O_R   0.484560 0.544530 0.414330 -0.553335
O2    O     O_R   0.197040 0.638810 0.585080 -0.533591
O3    O     O_R   0.026800 0.455470 0.585670 -0.507516
C1    C     C_R   0.372179 0.683337 0.593599 0.793975
O4    O     O_R   0.155000 0.556150 0.414940 -0.531154
O5    O     O_R   0.984450 0.372220 0.414320 -0.546095
C2    C     C_R   0.319538 0.565708 0.387562 0.727830
O6    O     O_R   0.526900 0.627780 0.585680 -0.487048
O7    O     O_3   0.339170 0.439750 0.499990 -0.359461
V1    V     V_3+5 0.064350 0.511180 0.500000 1.589221
O8    O     O_R   0.654880 0.361190 0.414920 -0.537827
C3    C     C_R   0.818160 0.325814 0.386557 0.748502
O9    O     O_R   0.696930 0.443850 0.585060 -0.548710
C4    C     C_R   0.873219 0.427983 0.609505 0.692333
V2    V     V_3+5 0.564340 0.488820 0.500000 1.570874
O10   O     O_3   0.839390 0.560250 0.500010 -0.340078
C5    C     C_R   0.055047 0.888941 0.836914 -0.173209
C6    C     C_R   0.910867 0.391017 0.677210 -0.066725
C7    C     C_R   0.969516 0.853136 0.693474 0.183920
C8    C     C_R   0.984132 0.822539 0.759322 -0.071995
C9    C     C_R   0.094767 0.992482 0.847549 -0.237569
C10   C     C_R   0.078450 0.025646 0.780741 0.057996
C11   C     C_R   0.033028 0.950710 0.701304 0.002320
C12   C     C_R   0.091229 0.131178 0.789768 0.061668
C13   C     C_R   0.052813 0.157448 0.721057 0.024299
C14   C     C_R   0.045052 0.080390 0.645129 -0.228926
C15   C     C_R   0.038903 0.978429 0.632838 -0.026559
C16   C     C_R   0.128445 0.212187 0.865146 -0.152980
C17   C     C_R   0.106673 0.313152 0.873687 -0.136443
C18   C     C_R   0.048050 0.337189 0.807678 0.088997
C19   C     C_R   0.023194 0.260489 0.729476 0.082933
C20   C     C_R   0.005067 0.437236 0.820136 -0.125229
C21   C     C_R   0.928079 0.461387 0.756870 -0.131431
C22   C     C_R   0.960969 0.289929 0.663748 -0.178114
H1    H     H_    0.942712 0.236298 0.602090 0.146336
H2    H     H_    0.868138 0.533848 0.772133 0.165426
H3    H     H_    0.127786 0.372983 0.933456 0.178619
H4    H     H_    0.134642 0.045791 0.908152 0.146994
H5    H     H_    0.051963 0.099037 0.593287 0.187098
H6    H     H_    0.167278 0.199499 0.919091 0.158416
H7    H     H_    0.019656 0.496069 0.880320 0.152782
H8    H     H_    0.112664 0.213992 0.313389 0.170369
C23   C     C_2   0.129291 0.034922 0.184224 -0.355033
C24   C     C_2   0.970004 0.091024 0.204582 -0.058641
H9    H     H_    0.672534 0.195465 0.287313 0.168281
C25   C     C_2   0.813000 0.227902 0.315153 -0.265987
C26   C     C_2   0.973432 0.182425 0.282539 -0.147781
H10   H     H_    0.260554 0.059823 0.223668 0.183694
C27   C     C_R   0.406873 0.796033 0.652412 -0.057773
C28   C     C_R   0.546121 0.469624 0.830464 -0.178949
C29   C     C_R   0.500630 0.903846 0.791273 -0.028252
C30   C     C_R   0.416131 0.815032 0.732759 -0.136377
C31   C     C_R   0.456929 0.882164 0.633533 -0.124565
C32   C     C_R   0.514899 0.982977 0.695503 0.091379
C33   C     C_R   0.555609 0.985806 0.773662 0.040158
C34   C     C_R   0.529290 0.081938 0.688273 -0.052364
C35   C     C_R   0.573878 0.174439 0.760982 0.025220
C36   C     C_R   0.661453 0.162071 0.827304 -0.098726
C37   C     C_R   0.652491 0.070308 0.833974 -0.154386
C38   C     C_R   0.498634 0.095576 0.615042 0.222401
C39   C     C_R   0.469155 0.193594 0.616307 0.196388
C40   C     C_R   0.487011 0.281274 0.689552 -0.049908
C41   C     C_R   0.545568 0.275987 0.764041 0.029991
C42   C     C_R   0.448472 0.375456 0.687868 -0.135880
C43   C     C_R   0.481679 0.466492 0.754846 -0.096637
C44   C     C_R   0.565549 0.372737 0.836762 0.188145
H11   H     H_    0.720337 0.067353 0.888568 0.168849
H12   H     H_    0.358560 0.759740 0.751435 0.164675
H13   H     H_    0.455033 0.865529 0.571196 0.209891
H14   H     H_    0.745982 0.221703 0.873880 0.186685
H15   H     H_    0.394666 0.379760 0.632172 0.215687
H16   H     H_    0.349680 0.686982 0.209191 0.146681
H17   H     H_    0.606130 0.574876 0.298820 0.189573
C45   C     C_2   0.320303 0.607248 0.323484 -0.264941
C46   C     C_2   0.476847 0.607406 0.283878 -0.059668
C47   C     C_2   0.631621 0.648128 0.177769 0.133104
C48   C     C_2   0.478263 0.650781 0.220502 -0.121065
H18   H     H_    0.189891 0.639308 0.309111 0.188810
O11   O     O_R   0.421600 0.630430 0.917010 -0.512133
O12   O     O_R   0.793840 0.702190 0.087630 -0.525049
O13   O     O_R   0.964010 0.886170 0.088190 -0.544734
C49   C     C_R   0.629599 0.692112 0.114904 0.706165
O14   O     O_R   0.751460 0.619510 0.917500 -0.532310
O15   O     O_R   0.921330 0.802900 0.916840 -0.486564
C50   C     C_R   0.576247 0.575424 0.900425 0.810376
O16   O     O_R   0.464290 0.713700 0.088350 -0.562968
O17   O     O_3   0.609200 0.818520 0.002630 -0.347489
V3    V     V_3+5 0.884140 0.747190 0.002530 1.600304
O18   O     O_R   0.251150 0.814630 0.917340 -0.516463
C51   C     C_R   0.078252 0.846450 0.904064 0.744075
O19   O     O_R   0.293530 0.897310 0.087470 -0.535172
C52   C     C_R   0.129402 0.934171 0.114581 0.708611
V4    V     V_3+5 0.384070 0.769710 0.002370 1.591988
O20   O     O_3   0.109180 0.698190 0.002460 -0.386704
C53   C     C_2   0.045589 0.908333 0.545791 0.881876
O21   O     O_2   0.129280 0.828468 0.526053 -0.572816
O22   O     O_R   0.961367 0.936678 0.485433 -0.614108
H19   H     H_    0.976905 0.884324 0.429316 0.330665
C54   C     C_2   0.799003 0.069724 0.145713 0.838099
O23   O     O_2   0.645475 0.044461 0.161411 -0.550164
O24   O     O_R   0.813164 0.075974 0.071251 -0.654351
H20   H     H_    0.946209 0.098087 0.064461 0.245144
Br1   Br    Br    0.578908 0.384072 0.946953 -0.609182
C55   C     C_2   0.434408 0.557950 0.742731 0.744202
O25   O     O_2   0.506000 0.640935 0.786196 -0.535157
O26   O     O_R   0.303403 0.548568 0.680449 -0.639183
H21   H     H_    0.235719 0.612658 0.694035 0.307407
Br2   Br    Br    0.402565 0.205844 0.514129 -0.507833
C56   C     C_2   0.532845 0.906262 0.871281 0.772630
O27   O     O_2   0.595540 0.830541 0.876753 -0.484884
O28   O     O_R   0.485120 0.989939 0.938859 -0.673647
H22   H     H_    0.504825 0.978509 0.990475 0.333391
Br3   Br    Br    0.528482 0.989741 0.510663 -0.470727
Br4   Br    Br    0.860619 0.581432 0.192614 -0.561351
Br5   Br    Br    0.834428 0.766909 0.594831 -0.487301
C57   C     C_2   0.928989 0.718366 0.747120 0.790917
O29   O     O_2   0.024033 0.673309 0.780788 -0.601806
O30   O     O_R   0.761969 0.674128 0.702203 -0.605071
H23   H     H_    0.747517 0.600636 0.693057 0.291727

loop_
_geom_bond_atom_site_label_1
_geom_bond_atom_site_label_2
_ccdc_geom_bond_type
C13   C19   A    
O17   V3    S    
V4    O20   S    
C33   C37   A    
C4    C6    S    
C15   C53   S    
C53   O21   D    
C1    O6    A    
C31   H13   S    
C21   H2    S    
C55   O26   S    
O22   H19   S    
C31   C32   A    
C57   O29   D    
C14   C15   A    
H16   C48   S    
C16   C17   A    
O11   V4    S    
C56   O28   S    
O5    C3    A    
C18   C19   A    
C24   C54   S    
C14   H5    S    
O26   H21   S    
C16   H6    S    
V2    O10   S    
C5    C8    A    
C34   C35   A    
C22   H1    S    
C42   H15   S    
C46   C48   S    
C39   Br2   S    
O30   H23   S    
C40   C42   A    
C28   C50   S    
C37   H11   S    
C32   C33   A    
O13   C52   A    
O8    V2    S    
C9    H4    S    
C7    C8    A    
C47   Br4   S    
C20   H7    S    
O1    V2    S    
C11   C15   A    
C23   H10   S    
C30   H12   S    
C24   C26   S    
O14   V3    S    
C41   C44   A    
C29   C56   S    
O9    C4    A    
O18   V4    S    
H17   C46   S    
C38   Br3   S    
O15   C51   A    
C55   O25   D    
C28   C43   A    
C35   C41   A    
C2    C45   S    
C32   C34   A    
V3    O20   S    
C45   C46   D    
C29   C30   A    
O24   H20   S    
O15   V3    S    
C12   C13   A    
O12   C49   A    
C47   C49   S    
O19   C52   A    
C8    C57   S    
C7    C11   A    
C36   H14   S    
C36   C37   A    
C49   O16   A    
C5    C9    A    
C34   C38   A    
C38   C39   A    
O2    C1    A    
C23   C24   D    
C17   C18   A    
O16   V4    S    
O19   V4    S    
C6    C22   A    
C54   O23   D    
C7    Br5   S    
C27   C30   A    
C40   C41   A    
C19   C22   A    
C47   C48   D    
C28   C44   A    
O3    C4    A    
C3    C25   S    
O14   C50   A    
O6    V2    S    
O9    V2    S    
C10   C12   A    
O2    V1    S    
O11   C50   A    
O4    C2    A    
O7    V1    S    
C25   C26   D    
O28   H22   S    
C54   O24   S    
O1    C2    A    
C44   Br1   S    
C5    C51   S    
C12   C16   A    
O5    V1    S    
O8    C3    A    
C53   O22   S    
C23   C52   S    
C1    C27   S    
C42   C43   A    
C13   C14   A    
O4    V1    S    
O12   V3    S    
O3    V1    S    
V1    O10   S    
C56   O27   D    
C20   C21   A    
C18   C20   A    
C35   C36   A    
C27   C31   A    
O17   V4    S    
C57   O30   S    
C29   C33   A    
H8    C26   S    
O7    V2    S    
C39   C40   A    
C6    C21   A    
O13   V3    S    
H9    C25   S    
C45   H18   S    
C17   H3    S    
C10   C11   A    
C43   C55   S    
O18   C51   A    
C9    C10   A    
