data_mof_unit_19447.cif
_audit_creation_date              2012-12-11T15:25:58-0500
_audit_creation_method            fapswitch 2.2
_symmetry_space_group_name_H-M    P1
_symmetry_Int_Tables_number       1
_space_group_crystal_system       triclinic
_cell_length_a                    24.75091
_cell_length_b                    17.294703
_cell_length_c                    15.660477
_cell_angle_alpha                 89.319796
_cell_angle_beta                  51.102962
_cell_angle_gamma                 88.549941
_cell_volume                      5215.52214537

loop_
_atom_site_label
_atom_site_type_symbol
_atom_type_description
_atom_site_fract_x
_atom_site_fract_y
_atom_site_fract_z
_atom_type_partial_charge
C1    C     C_R   0.333255 0.108639 0.799489 0.541262
C2    C     C_2   0.314599 0.841839 0.968900 0.480338
C3    C     C_2   0.309804 0.177469 0.960042 0.363055
C4    C     C_2   0.672717 0.770627 0.097581 0.411645
C5    C     C_2   0.172837 0.716947 0.084516 0.393747
C6    C     C_2   0.812316 0.349529 0.974227 0.479133
C7    C     C_2   0.808686 0.671365 0.966814 0.377030
C8    C     C_2   0.170485 0.270851 0.097903 0.493741
C9    C     C_2   0.712745 0.268557 0.103668 0.357327
C10   C     C_2   0.287287 0.772529 0.984606 0.280528
C11   C     C_2   0.245399 0.154801 0.044398 0.342226
C12   C     C_R   0.661205 0.874636 0.216679 0.505273
C13   C     C_2   0.690919 0.708546 0.128798 0.279245
C14   C     C_2   0.218496 0.755080 0.087816 0.350598
C15   C     C_2   0.779439 0.283414 0.994971 0.287373
C16   C     C_2   0.742633 0.650632 0.046588 0.340360
C17   C     C_2   0.193134 0.211869 0.126807 0.233911
C18   C     C_R   0.607174 0.118476 0.593240 0.527962
C19   C     C_R   0.391935 0.881008 0.408172 0.507550
C20   C     C_R   0.382680 0.091279 0.408665 0.570265
C21   C     C_R   0.596747 0.861745 0.591395 0.477982
C22   C     C_R   0.093997 0.636974 0.593329 0.497798
C23   C     C_R   0.658859 0.124475 0.216248 0.499489
C24   C     C_R   0.907366 0.361214 0.406921 0.453495
C25   C     C_R   0.882754 0.588623 0.408132 0.591840
C26   C     C_R   0.099761 0.365466 0.591712 0.491988
C27   C     C_R   0.681236 0.118424 0.410711 0.451153
C28   C     C_R   0.317471 0.884032 0.590012 0.434936
C29   C     C_R   0.312144 0.105244 0.587990 0.449767
C30   C     C_R   0.674526 0.866732 0.409685 0.506363
C31   C     C_R   0.168743 0.636741 0.410202 0.452041
C32   C     C_R   0.832021 0.362185 0.589430 0.411785
C33   C     C_R   0.812515 0.605958 0.586912 0.450163
C34   C     C_R   0.336876 0.887979 0.799553 0.457117
C35   C     C_R   0.177665 0.371460 0.410193 0.537771
C36   C     C_R   0.562680 0.138976 0.233980 0.516993
C37   C     C_R   0.425865 0.892160 0.799754 0.516735
C38   C     C_R   0.422819 0.112270 0.799371 0.502693
C39   C     C_R   0.570772 0.868290 0.219613 0.480485
C40   C     C_R   0.067352 0.630272 0.220551 0.502855
C41   C     C_R   0.925436 0.393167 0.800605 0.509417
C42   C     C_R   0.921825 0.608474 0.802199 0.518424
C43   C     C_R   0.072795 0.373812 0.212953 0.483371
C44   C     C_R   0.353085 0.132439 0.859282 -0.224625
C45   C     C_R   0.833566 0.610287 0.799039 0.549693
C46   C     C_R   0.635728 0.835437 0.173999 -0.215871
C47   C     C_R   0.627131 0.170706 0.186153 -0.275966
C48   C     C_R   0.360292 0.866422 0.856200 -0.138797
C49   C     C_R   0.852637 0.630916 0.861222 -0.228861
C50   C     C_R   0.134915 0.336564 0.173026 -0.149192
C51   C     C_R   0.134020 0.657131 0.166875 -0.265338
C52   C     C_R   0.858498 0.371289 0.859940 -0.139987
C53   C     C_R   0.667283 0.148013 0.503436 0.012451
C54   C     C_R   0.331792 0.852586 0.498382 0.026866
C55   C     C_R   0.313847 0.103858 0.497390 -0.103372
C56   C     C_R   0.159759 0.372544 0.219146 0.469681
C57   C     C_R   0.650226 0.819623 0.500033 -0.033899
C58   C     C_R   0.146581 0.676772 0.503116 0.012063
C59   C     C_R   0.855018 0.321287 0.496718 0.045113
C60   C     C_R   0.813977 0.601889 0.496575 -0.101476
C61   C     C_R   0.155175 0.325661 0.500364 -0.047849
C62   C     C_R   0.189152 0.142160 0.594633 0.320141
C63   C     C_R   0.731265 0.705231 0.397241 0.285386
C64   C     C_R   0.761033 0.151758 0.513713 0.398289
C65   C     C_R   0.242851 0.846272 0.477265 0.390597
C66   C     C_R   0.688976 0.639265 0.594343 0.321407
C67   C     C_R   0.162183 0.615063 0.206102 0.506016
C68   C     C_R   0.235539 0.211192 0.396897 0.272459
C69   C     C_R   0.236166 0.686035 0.520349 0.393684
C70   C     C_R   0.764986 0.313147 0.479626 0.378873
C71   C     C_R   0.648909 0.699213 0.595579 0.493450
C72   C     C_R   0.268339 0.144007 0.397896 0.409336
C73   C     C_R   0.280586 0.731095 0.523269 0.332083
C74   C     C_R   0.714030 0.270345 0.491037 0.339244
C75   C     C_R   0.151099 0.204239 0.595433 0.489018
C76   C     C_R   0.767441 0.641058 0.397257 0.405451
C77   C     C_R   0.807635 0.195931 0.513623 0.338993
C78   C     C_R   0.835227 0.393703 0.803345 0.466309
C79   C     C_R   0.192702 0.802522 0.486456 0.340534
C80   C     C_R   0.678075 0.741750 0.498117 -0.117833
C81   C     C_R   0.255769 0.124503 0.495975 -0.134690
C82   C     C_R   0.284518 0.809392 0.497984 -0.074718
C83   C     C_R   0.714466 0.190614 0.504946 -0.084297
C84   C     C_R   0.182118 0.247490 0.497955 -0.126079
C85   C     C_R   0.755805 0.622807 0.495173 -0.156455
C86   C     C_R   0.809798 0.275118 0.493405 -0.057127
C87   C     C_R   0.191676 0.723283 0.505564 -0.071441
C88   C     C_2   0.662421 0.234409 0.108624 0.378605
Cl1   Cl    Cl    0.247583 0.089972 0.853535 -0.381861
Cl2   Cl    Cl    0.231975 0.913007 0.698530 -0.477656
Cl3   Cl    Cl    0.275187 0.189463 0.669889 -0.443766
Cl4   Cl    Cl    0.762810 0.891213 0.321847 -0.393204
Cl5   Cl    Cl    0.254889 0.638184 0.288653 -0.468385
Cl6   Cl    Cl    0.744760 0.360347 0.707515 -0.448655
Cl7   Cl    Cl    0.780800 0.695565 0.656724 -0.447888
Cl8   Cl    Cl    0.263605 0.404296 0.328572 -0.395685
Cl9   Cl    Cl    0.278592 0.913732 0.071726 -0.503648
Cl10  Cl    Cl    0.656669 0.243269 0.001746 -0.454902
Cl11  Cl    Cl    0.701492 0.783037 0.962825 -0.451857
Cl12  Cl    Cl    0.749214 0.893574 0.141297 -0.345143
Cl13  Cl    Cl    0.341716 0.269083 0.952757 -0.461452
Cl14  Cl    Cl    0.785610 0.421030 0.074189 -0.520350
Cl15  Cl    Cl    0.176729 0.716375 0.967806 -0.479867
Cl16  Cl    Cl    0.189177 0.275847 0.969142 -0.389833
Cl17  Cl    Cl    0.843309 0.755845 0.975337 -0.460206
Cl18  Cl    Cl    0.746093 0.093788 0.120148 -0.465748
Cl19  Cl    Cl    0.248062 0.903580 0.870010 -0.391253
Cl20  Cl    Cl    0.747777 0.603294 0.847445 -0.395080
Cl21  Cl    Cl    0.247851 0.381367 0.153332 -0.364063
Cl22  Cl    Cl    0.246985 0.575388 0.116707 -0.456933
Cl23  Cl    Cl    0.748445 0.424983 0.877648 -0.397531
Cl24  Cl    Cl    0.766430 0.102057 0.290638 -0.421561
H1    H     H_    0.572488 0.055239 0.717752 0.334819
H2    H     H_    0.480047 0.959183 0.813343 0.322938
H3    H     H_    0.428704 0.133418 0.914023 0.371638
H4    H     H_    0.555356 0.810543 0.132452 0.376878
H5    H     H_    0.040815 0.697175 0.152834 0.383760
H6    H     H_    0.984131 0.455743 0.808800 0.338558
H7    H     H_    0.923151 0.615325 0.924120 0.374321
H8    H     H_    0.032675 0.435311 0.163247 0.318596
H9    H     H_    0.187727 0.052646 0.671081 0.383857
H10   H     H_    0.794651 0.718311 0.238908 0.380260
H11   H     H_    0.806565 0.052073 0.490837 0.360812
H12   H     H_    0.435572 0.933662 0.272225 0.368531
H13   H     H_    0.238125 0.934752 0.404289 0.360370
H14   H     H_    0.689788 0.550745 0.670920 0.367209
H15   H     H_    0.302273 0.224851 0.238874 0.377243
H16   H     H_    0.281955 0.587256 0.502169 0.363792
H17   H     H_    0.756442 0.403984 0.414118 0.360349
H18   H     H_    0.567755 0.679100 0.747834 0.402774
H19   H     H_    0.291722 0.101047 0.263734 0.334859
H20   H     H_    0.297233 0.656101 0.598484 0.366363
H21   H     H_    0.654332 0.357770 0.516485 0.357426
H22   H     H_    0.068972 0.185453 0.747602 0.405439
H23   H     H_    0.455231 0.054044 0.262844 0.336522
H24   H     H_    0.791958 0.595231 0.263832 0.339459
H25   H     H_    0.828957 0.118027 0.579660 0.360330
H26   H     H_    0.136243 0.889281 0.499885 0.350465
H27   H     H_    0.300715 0.668602 0.926467 0.385697
H28   H     H_    0.753935 0.280108 0.175256 0.375735
H29   H     H_    0.679538 0.650514 0.245450 0.356042
H30   H     H_    0.179301 0.072505 0.119795 0.373650
H31   H     H_    0.782757 0.181335 0.939389 0.385022
H32   H     H_    0.249142 0.775238 0.173263 0.381794
H33   H     H_    0.189696 0.159232 0.240126 0.355771
H34   H     H_    0.586407 0.914872 0.706677 0.323366
H35   H     H_    0.672829 0.572015 0.112720 0.369986
H36   H     H_    0.076591 0.583746 0.715205 0.357520
H37   H     H_    0.921571 0.410733 0.285372 0.353202
H38   H     H_    0.952433 0.539177 0.269559 0.316955
H39   H     H_    0.093007 0.424433 0.699931 0.320245
H40   H     H_    0.527317 0.219885 0.194166 0.380326
N1    N     N_R   0.388930 0.078160 0.705470 -0.133487
N2    N     N_R   0.419500 0.922160 0.443350 -0.174851
N3    N     N_R   0.419500 0.077840 0.443350 -0.154423
N4    N     N_R   0.580500 0.922160 0.556650 -0.176118
N5    N     N_R   0.080500 0.577840 0.556650 -0.158657
N6    N     N_R   0.919500 0.422160 0.443350 -0.172138
N7    N     N_R   0.919500 0.577840 0.443350 -0.150403
N8    N     N_R   0.080500 0.422160 0.556650 -0.172748
N9    N     N_R   0.626210 0.077590 0.443410 -0.130548
N10   N     N_R   0.373790 0.922410 0.556590 -0.143368
N11   N     N_R   0.373790 0.077590 0.556590 -0.124539
N12   N     N_R   0.611070 0.921840 0.294530 -0.139404
N13   N     N_R   0.626210 0.922410 0.443410 -0.140051
N14   N     N_R   0.126210 0.577590 0.443410 -0.117087
N15   N     N_R   0.873790 0.422410 0.556590 -0.134349
N16   N     N_R   0.873790 0.577590 0.556590 -0.120445
N17   N     N_R   0.126210 0.422410 0.443410 -0.139873
N18   N     N_R   0.554800 0.077270 0.294580 -0.128098
N19   N     N_R   0.445200 0.922730 0.705420 -0.167298
N20   N     N_R   0.445200 0.077270 0.705420 -0.132427
N21   N     N_R   0.554800 0.922730 0.294580 -0.128020
N22   N     N_R   0.054800 0.577270 0.294580 -0.131305
N23   N     N_R   0.611070 0.078160 0.294530 -0.120172
N24   N     N_R   0.945200 0.422730 0.705420 -0.165570
N25   N     N_R   0.945200 0.577270 0.705420 -0.136133
N26   N     N_R   0.054800 0.422730 0.294580 -0.171982
N27   N     N_R   0.388930 0.921840 0.705470 -0.132133
N28   N     N_R   0.888930 0.578160 0.705470 -0.136296
N29   N     N_R   0.111070 0.421840 0.294530 -0.134735
N30   N     N_R   0.111070 0.578160 0.294530 -0.123455
N31   N     N_R   0.888930 0.421840 0.705470 -0.139811
N32   N     N_R   0.580500 0.077840 0.556650 -0.162925
Ni1   Ni    Ni4+2 0.382710 0.000000 0.629850 0.308502
Ni2   Ni    Ni4+2 0.617290 0.000000 0.370150 0.337402
Ni3   Ni    Ni4+2 0.882710 0.500000 0.629850 0.302854
Ni4   Ni    Ni4+2 0.117290 0.500000 0.370150 0.338829
Ni5   Ni    Ni4+2 0.513020 0.000000 0.629850 0.207657
Ni6   Ni    Ni4+2 0.486980 0.000000 0.370150 0.239689
Ni7   Ni    Ni4+2 0.013020 0.500000 0.629850 0.211090
Ni8   Ni    Ni4+2 0.986980 0.500000 0.370150 0.206840
O1    O     O_3   0.594810 0.106109 0.690779 -0.627921
O2    O     O_3   0.452476 0.912443 0.850966 -0.639012
O3    O     O_3   0.459186 0.111782 0.838618 -0.697561
O4    O     O_3   0.532423 0.853555 0.186377 -0.694235
O5    O     O_3   0.020466 0.653840 0.205511 -0.696360
O6    O     O_3   0.954458 0.410832 0.848871 -0.628310
O7    O     O_3   0.954594 0.597312 0.846874 -0.709072
O8    O     O_3   0.051462 0.381770 0.150939 -0.610675
O9    O     O_3   0.161720 0.102341 0.690407 -0.627831
O10   O     O_3   0.745548 0.731173 0.301407 -0.676447
O11   O     O_3   0.759847 0.071954 0.520502 -0.673998
O12   O     O_3   0.404100 0.890067 0.310278 -0.620333
O13   O     O_3   0.252167 0.923831 0.450177 -0.688566
O14   O     O_3   0.663129 0.600114 0.690109 -0.638930
O15   O     O_3   0.253561 0.240437 0.299908 -0.669639
O16   O     O_3   0.235528 0.606275 0.529234 -0.698748
O17   O     O_3   0.771385 0.391717 0.458525 -0.717756
O18   O     O_3   0.581282 0.714784 0.687757 -0.635730
O19   O     O_3   0.305948 0.093504 0.309986 -0.618424
O20   O     O_3   0.320848 0.701120 0.549571 -0.698244
O21   O     O_3   0.663228 0.303785 0.489549 -0.692070
O22   O     O_3   0.083971 0.221992 0.687630 -0.638317
O23   O     O_3   0.407092 0.074345 0.304447 -0.618123
O24   O     O_3   0.808028 0.592201 0.307947 -0.626020
O25   O     O_3   0.850541 0.164826 0.533991 -0.689631
O26   O     O_3   0.144551 0.834179 0.477619 -0.679032
O27   O     O_3   0.322382 0.719688 0.898378 -0.680290
O28   O     O_3   0.707117 0.272502 0.197402 -0.696058
O29   O     O_3   0.660484 0.699060 0.238308 -0.720214
O30   O     O_3   0.228847 0.077751 0.054835 -0.641481
O31   O     O_3   0.807481 0.230681 0.909579 -0.681304
O32   O     O_3   0.204960 0.764560 0.187543 -0.694064
O33   O     O_3   0.167413 0.205332 0.234569 -0.724136
O34   O     O_3   0.584824 0.860495 0.689507 -0.612105
O35   O     O_3   0.723179 0.575674 0.050578 -0.640217
O36   O     O_3   0.081190 0.638437 0.692159 -0.630912
O37   O     O_3   0.921233 0.356858 0.307476 -0.648506
O38   O     O_3   0.905958 0.563511 0.307211 -0.626558
O39   O     O_3   0.090350 0.369036 0.687711 -0.610941
O40   O     O_3   0.512354 0.168737 0.230003 -0.703702

loop_
_geom_bond_atom_site_label_1
_geom_bond_atom_site_label_2
_ccdc_geom_bond_type
N24   N31   A    
C32   Cl6   S    
C5    Cl15  S    
C43   N26   A    
C65   C79   A    
C20   N3    A    
C22   N5    A    
C64   C77   A    
C29   N11   A    
C73   O20   S    
C62   C81   A    
H20   O20   S    
C54   C82   S    
C74   C83   A    
C39   N21   A    
C58   C87   S    
N22   N30   A    
C66   C85   A    
C79   C87   A    
C28   N10   A    
C64   C83   A    
C4    C46   S    
C35   Cl8   S    
N7    N16   A    
C21   C57   A    
C21   O34   S    
H12   O12   S    
N25   Ni7   S    
C34   Cl19  S    
C31   C58   A    
C14   O32   S    
C42   O7    S    
N3    Ni6   S    
C26   C61   A    
N6    Ni8   S    
H16   O16   S    
C9    C88   D    
H31   O31   S    
C66   O14   S    
C24   N6    A    
C75   C84   A    
C72   O19   S    
C23   N23   A    
C63   C76   A    
C42   N25   A    
C30   C57   A    
N21   Ni6   S    
C38   O3    S    
N19   Ni5   S    
C36   C47   A    
C78   N31   A    
C4    C13   D    
H15   O15   S    
C1    C44   A    
C45   N28   A    
C6    C15   D    
C63   O10   S    
C17   O33   S    
H28   O28   S    
H39   O39   S    
C2    Cl9   S    
H36   O36   S    
C27   Cl24  S    
C70   C74   A    
N8    N17   A    
C7    Cl17  S    
C69   C73   A    
C78   Cl23  S    
C25   C60   A    
C18   N32   A    
C55   C81   S    
C41   C52   A    
C72   C81   A    
C69   C87   A    
C45   Cl20  S    
C36   O40   S    
C63   C80   A    
N4    Ni5   S    
C3    Cl13  S    
N2    Ni6   S    
N16   Ni3   S    
C40   O5    S    
C18   O1    S    
H24   O24   S    
C57   C80   S    
N19   N27   A    
C34   N27   A    
C20   C55   A    
C52   C78   A    
C33   Cl7   S    
C11   O30   S    
C71   C80   A    
N29   Ni4   S    
N6    N15   A    
N18   N23   A    
C13   C16   S    
C25   O38   S    
H23   O23   S    
C3    C44   S    
C18   C53   A    
C23   C47   A    
C68   C84   A    
C20   O23   S    
C3    C11   D    
C7    C49   S    
C30   Cl4   S    
C24   O37   S    
C10   C14   S    
C37   N19   A    
C28   C54   A    
C25   N7    A    
N24   Ni7   S    
C51   C67   A    
H34   O34   S    
C2    C48   S    
C31   Cl5   S    
C23   Cl18  S    
H33   O33   S    
C50   C56   A    
N5    Ni7   S    
C62   O9    S    
C38   C44   A    
N9    Ni2   S    
N28   Ni3   S    
N31   Ni3   S    
C12   N12   A    
N26   Ni8   S    
C76   O24   S    
C67   Cl22  S    
C64   O11   S    
C66   C71   A    
C31   N14   A    
C45   C49   A    
C68   C72   A    
N25   N28   A    
N15   Ni3   S    
C68   O15   S    
N12   N21   A    
C35   C61   A    
N30   Ni4   S    
C37   C48   A    
C1    N1    A    
C8    Cl16  S    
C5    C14   D    
C43   O8    S    
C39   C46   A    
C19   C54   A    
C12   C46   A    
C7    C16   D    
N17   Ni4   S    
C41   N24   A    
C77   C86   A    
C33   C60   A    
C74   O21   S    
H19   O19   S    
C35   N17   A    
H32   O32   S    
H7    O7    S    
C62   C75   A    
C4    Cl11  S    
C33   N16   A    
C34   C48   A    
H17   O17   S    
C16   O35   S    
C2    C10   D    
H6    O6    S    
C8    C50   S    
C56   Cl21  S    
C29   Cl3   S    
H5    O5    S    
C9    O28   S    
C26   N8    A    
C19   N2    A    
H3    O3    S    
C11   C17   S    
C69   O16   S    
C1    Cl1   S    
H2    O2    S    
H1    O1    S    
N7    Ni8   S    
N2    N10   A    
N13   Ni2   S    
N8    Ni7   S    
C13   O29   S    
C41   O6    S    
C79   O26   S    
C61   C84   S    
H22   O22   S    
N5    N14   A    
C22   C58   A    
N10   Ni1   S    
C60   C85   S    
C27   C53   A    
C43   C50   A    
C38   N20   A    
N27   Ni1   S    
C71   O18   S    
N20   Ni5   S    
C40   C51   A    
C29   C55   A    
C39   O4    S    
N18   Ni6   S    
C75   O22   S    
C36   N18   A    
C8    C17   D    
H38   O38   S    
H11   O11   S    
N11   Ni1   S    
C65   O13   S    
H21   O21   S    
C37   O2    S    
H10   O10   S    
N9    N32   A    
C9    C15   S    
N12   Ni2   S    
H37   O37   S    
N22   Ni8   S    
C47   C88   S    
N23   Ni2   S    
C40   N22   A    
C77   O25   S    
C65   C82   A    
H35   O35   S    
N1    Ni1   S    
N4    N13   A    
H14   O14   S    
C24   C59   A    
C59   C86   S    
C53   C83   S    
N1    N20   A    
H13   O13   S    
C19   O12   S    
H8    O8    S    
C21   N4    A    
C73   C82   A    
C6    Cl14  S    
C15   O31   S    
C26   O39   S    
C88   Cl10  S    
C12   Cl12  S    
N26   N29   A    
H18   O18   S    
C42   C49   A    
H9    O9    S    
H4    O4    S    
H27   O27   S    
C22   O36   S    
C10   O27   S    
H26   O26   S    
N3    N11   A    
C56   N29   A    
C32   N15   A    
H25   O25   S    
C70   O17   S    
N32   Ni5   S    
C5    C51   S    
C28   Cl2   S    
C30   N13   A    
C32   C59   A    
C6    C52   S    
C76   C85   A    
H30   O30   S    
C27   N9    A    
N14   Ni4   S    
C67   N30   A    
H29   O29   S    
H40   O40   S    
C70   C86   A    
