data_mof_unit_18304.cif
_audit_creation_date              2012-12-10T18:36:07-0500
_audit_creation_method            fapswitch 2.2
_symmetry_space_group_name_H-M    P1
_symmetry_Int_Tables_number       1
_space_group_crystal_system       triclinic
_cell_length_a                    15.227886
_cell_length_b                    13.82747
_cell_length_c                    15.084464
_cell_angle_alpha                 90.000062
_cell_angle_beta                  89.952161
_cell_angle_gamma                 90.000365
_cell_volume                      3176.23095001

loop_
_atom_site_label
_atom_site_type_symbol
_atom_type_description
_atom_site_fract_x
_atom_site_fract_y
_atom_site_fract_z
_atom_type_partial_charge
C1    C     C_R   0.329689 0.499927 0.499061 0.911177
C2    C     C_R   0.670310 0.499927 0.500943 0.911209
C3    C     C_R   0.498267 0.676211 0.046216 -0.194436
C4    C     C_R   0.501665 0.323758 0.953784 -0.194070
C5    C     C_R   0.095111 0.578910 0.460488 0.328865
C6    C     C_R   0.905109 0.423246 0.462238 0.327803
C7    C     C_R   0.904887 0.578893 0.539557 0.328858
C8    C     C_R   0.094889 0.423233 0.537755 0.327792
C9    C     C_R   0.186400 0.582265 0.468597 0.362655
C10   C     C_R   0.814491 0.417233 0.474043 0.372848
C11   C     C_R   0.813598 0.582253 0.531447 0.362702
C12   C     C_R   0.185507 0.417226 0.525950 0.372858
C13   C     C_R   0.232875 0.499671 0.497522 -0.422383
C14   C     C_R   0.767124 0.499670 0.502491 -0.422381
C15   C     C_R   0.048389 0.501490 0.499733 -0.239053
C16   C     C_R   0.951609 0.501490 0.500283 -0.239043
C17   C     C_R   0.455012 0.107967 0.566957 0.294131
C18   C     C_R   0.448299 0.892065 0.438280 0.285725
C19   C     C_R   0.544992 0.107974 0.433033 0.294029
C20   C     C_R   0.551714 0.892065 0.561710 0.285640
C21   C     C_R   0.457103 0.209635 0.565179 0.005662
C22   C     C_R   0.450495 0.790354 0.439839 0.012138
C23   C     C_R   0.542896 0.209640 0.434817 0.005796
C24   C     C_R   0.549507 0.790355 0.560159 0.012019
C25   C     C_R   0.500005 0.054666 0.499996 -0.141130
C26   C     C_R   0.500007 0.945321 0.499994 -0.130631
C27   C     C_R   0.499948 0.499998 0.328458 0.820636
C28   C     C_R   0.500051 0.499998 0.671542 0.820611
C29   C     C_R   0.500841 0.412016 0.814741 -0.229809
C30   C     C_R   0.499000 0.587956 0.185255 -0.229364
C31   C     C_R   0.500096 0.499990 0.768383 -0.072932
C32   C     C_R   0.499900 0.499989 0.231617 -0.073219
C33   C     C_R   0.499364 0.587960 0.814747 -0.229450
C34   C     C_R   0.500785 0.412016 0.185257 -0.229668
C35   C     C_R   0.499267 0.588568 0.907109 0.103315
C36   C     C_R   0.500801 0.411402 0.092893 0.103420
C37   C     C_R   0.500029 0.499985 0.953528 0.064534
C38   C     C_R   0.499964 0.499984 0.046472 0.064469
C39   C     C_R   0.500853 0.411403 0.907106 0.103530
C40   C     C_R   0.499065 0.588566 0.092893 0.103229
C41   C     C_R   0.498393 0.676212 0.953787 -0.194535
C42   C     C_R   0.501659 0.323758 0.046214 -0.193956
Cu1   Cu    Cu3+1 0.500000 0.596430 0.500000 0.949153
Cu2   Cu    Cu3+1 0.500000 0.403570 0.500000 0.946624
H1    H     H_    0.501432 0.343916 0.779088 0.161056
H2    H     H_    0.498250 0.656056 0.220905 0.161672
H3    H     H_    0.498805 0.656061 0.779097 0.161522
H4    H     H_    0.501502 0.343918 0.220909 0.161210
H5    H     H_    0.497788 0.744671 0.918818 0.157251
H6    H     H_    0.502312 0.255300 0.081185 0.158563
H7    H     H_    0.497567 0.744668 0.081187 0.157407
H8    H     H_    0.502316 0.255300 0.918812 0.158375
H9    H     H_    0.422633 0.249785 0.615985 0.185297
H10   H     H_    0.411233 0.750103 0.392823 0.185431
H11   H     H_    0.577365 0.249795 0.384012 0.185018
H12   H     H_    0.588768 0.750104 0.607176 0.185681
N1    N     N_R   0.500000 0.258690 0.500000 -0.260576
N2    N     N_R   0.500000 0.741310 0.500000 -0.256833
O1    O     O_R   0.371460 0.581430 0.500010 -0.565011
O2    O     O_R   0.628540 0.418570 0.499990 -0.566932
O3    O     O_R   0.628540 0.581430 0.499990 -0.564938
O4    O     O_R   0.371460 0.418570 0.500010 -0.566823
O5    O     O_R   0.499980 0.581440 0.370260 -0.595028
O6    O     O_R   0.500020 0.418560 0.629740 -0.598052
O7    O     O_R   0.500020 0.581440 0.629740 -0.595053
O8    O     O_R   0.499980 0.418560 0.370260 -0.598039
O9    O     O_3   0.054435 0.654295 0.416480 -0.690774
H13   H     H_    0.995696 0.633412 0.396093 0.332305
O10   O     O_3   0.945712 0.350004 0.415190 -0.693708
H14   H     H_    0.002466 0.373730 0.391737 0.327105
O11   O     O_3   0.945564 0.654250 0.583603 -0.690818
H15   H     H_    0.004300 0.633353 0.603984 0.332298
O12   O     O_3   0.054285 0.349977 0.584784 -0.693718
H16   H     H_    0.997536 0.373700 0.608250 0.327100
O13   O     O_3   0.229987 0.665364 0.442505 -0.559937
C43   C     C_3   0.226316 0.734631 0.511921 0.123233
H17   H     H_    0.292949 0.741808 0.541066 0.158298
H18   H     H_    0.180692 0.715624 0.567475 0.113878
C44   C     C_3   0.198293 0.832499 0.474459 -0.309146
H19   H     H_    0.241620 0.852497 0.418132 0.259817
H20   H     H_    0.129818 0.827576 0.449531 0.259875
C45   C     C_3   0.203093 0.911041 0.545330 -0.898428
H21   H     H_    0.161551 0.891497 0.603186 0.262938
H22   H     H_    0.178792 0.980256 0.517804 0.270031
H23   H     H_    0.272005 0.921049 0.567447 0.264014
O14   O     O_3   0.772392 0.332186 0.450715 -0.548958
C46   C     C_3   0.762595 0.273224 0.527199 0.126188
H24   H     H_    0.700851 0.231585 0.519577 0.169284
H25   H     H_    0.755339 0.315362 0.590025 0.109279
C47   C     C_3   0.838367 0.200995 0.535644 -0.336834
H26   H     H_    0.844812 0.159301 0.473008 0.250596
H27   H     H_    0.900736 0.240156 0.547770 0.258823
C48   C     C_3   0.822969 0.131343 0.612622 -0.923261
H28   H     H_    0.818442 0.171845 0.676058 0.266182
H29   H     H_    0.878607 0.079667 0.617080 0.271782
H30   H     H_    0.761343 0.089857 0.602359 0.265325
O15   O     O_3   0.770006 0.665330 0.557589 -0.559925
C49   C     C_3   0.773674 0.734655 0.488221 0.123315
H31   H     H_    0.707026 0.741910 0.459131 0.158432
H32   H     H_    0.819242 0.715657 0.432618 0.113771
C50   C     C_3   0.801794 0.832469 0.525731 -0.308996
H33   H     H_    0.758586 0.852414 0.582170 0.259870
H34   H     H_    0.870318 0.827492 0.550511 0.259833
C51   C     C_3   0.796873 0.911108 0.454957 -0.898443
H35   H     H_    0.838067 0.891493 0.396868 0.262901
H36   H     H_    0.821518 0.980203 0.482426 0.269966
H37   H     H_    0.727879 0.921384 0.433205 0.264180
O16   O     O_3   0.227609 0.332180 0.549269 -0.548920
C52   C     C_3   0.237388 0.273219 0.472782 0.126257
H38   H     H_    0.299150 0.231605 0.480377 0.169327
H39   H     H_    0.244603 0.315354 0.409949 0.109290
C53   C     C_3   0.161630 0.200964 0.464377 -0.336837
H40   H     H_    0.155181 0.159324 0.527043 0.250643
H41   H     H_    0.099258 0.240102 0.452211 0.258794
C54   C     C_3   0.177055 0.131244 0.387456 -0.923161
H42   H     H_    0.181588 0.171689 0.323989 0.266250
H43   H     H_    0.121426 0.079550 0.383027 0.271776
H44   H     H_    0.238685 0.089782 0.397763 0.265284
O17   O     O_3   0.408080 0.065111 0.634845 -0.717961
H45   H     H_    0.408583 0.994076 0.627978 0.338418
O18   O     O_3   0.395056 0.935164 0.375552 -0.736177
H46   H     H_    0.392995 0.005805 0.385215 0.339239
O19   O     O_3   0.591920 0.065123 0.365139 -0.718075
H47   H     H_    0.591409 0.994087 0.371994 0.338473
O20   O     O_3   0.604972 0.935164 0.624426 -0.736047
H48   H     H_    0.607040 0.005804 0.614756 0.339188

loop_
_geom_bond_atom_site_label_1
_geom_bond_atom_site_label_2
_ccdc_geom_bond_type
C6    O10   S    
C21   H9    S    
C46   H24   S    
C48   H28   S    
O12   H16   S    
Cu2   O8    S    
C18   C26   A    
C43   C44   S    
C24   H12   S    
C5    O9    S    
C1    O4    A    
C51   H36   S    
O15   C49   S    
Cu1   O5    S    
O19   H47   S    
C22   H10   S    
Cu2   O6    S    
C5    C9    A    
C19   O19   S    
C50   H33   S    
C4    C42   A    
C4    H8    S    
C35   C37   A    
C43   H18   S    
C1    O1    A    
C7    O11   S    
C11   C14   A    
C2    O2    A    
C54   H42   S    
O16   C52   S    
C41   H5    S    
C9    C13   A    
C53   H40   S    
Cu1   N2    S    
C36   C42   A    
C3    C41   A    
C20   C24   A    
C54   H43   S    
C31   C33   A    
C2    O3    A    
Cu1   O1    S    
C50   H34   S    
C38   C40   A    
C18   C22   A    
C2    C14   S    
C53   H41   S    
C51   H35   S    
O9    H13   S    
Cu1   O7    S    
C43   H17   S    
C10   C14   A    
C52   C53   S    
C12   O16   S    
C3    H7    S    
C19   C23   A    
Cu2   O4    S    
C25   C26   S    
C17   C21   A    
C29   H1    S    
C32   C34   A    
C7    C11   A    
O13   C43   S    
C21   N1    A    
C37   C38   A    
C47   H27   S    
C4    C39   A    
Cu2   N1    S    
C8    C12   A    
C54   H44   S    
C29   C39   A    
C30   C40   A    
O18   H46   S    
C35   C41   A    
C27   O5    A    
C42   H6    S    
C28   O6    A    
C24   N2    A    
C7    C16   A    
C3    C40   A    
C45   H21   S    
C8    C15   A    
C45   H22   S    
C46   H25   S    
Cu1   Cu2   S    
O20   H48   S    
C33   H3    S    
C1    C13   S    
C49   C50   S    
Cu1   O3    S    
C47   C48   S    
C44   H20   S    
C22   N2    A    
C23   N1    A    
C10   O14   S    
C27   C32   S    
O14   C46   S    
C30   H2    S    
C28   C31   S    
C6    C10   A    
C44   C45   S    
O17   H45   S    
C23   H11   S    
C48   H30   S    
C45   H23   S    
C49   H32   S    
C11   O15   S    
C17   C25   A    
C36   C38   A    
C28   O7    A    
O11   H15   S    
C37   C39   A    
C27   O8    A    
C52   H38   S    
C30   C32   A    
C47   H26   S    
C48   H29   S    
C20   C26   A    
Cu2   O2    S    
C52   H39   S    
C8    O12   S    
C33   C35   A    
C34   C36   A    
C51   H37   S    
O10   H14   S    
C19   C25   A    
C5    C15   A    
C17   O17   S    
C18   O18   S    
C6    C16   A    
C44   H19   S    
C20   O20   S    
C34   H4    S    
C12   C13   A    
C29   C31   A    
C49   H31   S    
C46   C47   S    
C50   C51   S    
C9    O13   S    
C53   C54   S    
C15   C16   S    
