data_mof_unit_43860.cif
_audit_creation_date              2013-03-05T15:48:55-0500
_audit_creation_method            fapswitch 2.2
_symmetry_space_group_name_H-M    P1
_symmetry_Int_Tables_number       1
_space_group_crystal_system       triclinic
_cell_length_a                    6.943411
_cell_length_b                    13.49536
_cell_length_c                    20.100425
_cell_angle_alpha                 104.040095
_cell_angle_beta                  90.035745
_cell_angle_gamma                 90.638567
_cell_volume                      1827.095678

loop_
_atom_site_label
_atom_site_type_symbol
_atom_site_description
_atom_site_fract_x
_atom_site_fract_y
_atom_site_fract_z
_atom_type_partial_charge
O1    O     O_R   0.506780 0.600060 0.449950 -0.557459
O2    O     O_R   0.179840 0.597110 0.589410 -0.603748
O3    O     O_R   0.004570 0.399940 0.550050 -0.604297
C1    C     C_R   0.348502 0.618459 0.617109 0.966091
O4    O     O_R   0.177380 0.612160 0.452890 -0.601040
O5    O     O_R   0.002100 0.415100 0.412560 -0.609057
C2    C     C_R   0.347878 0.642554 0.439082 1.117743
O6    O     O_R   0.509250 0.584900 0.587440 -0.585245
O7    O     O_3   0.337570 0.435330 0.486930 -0.289616
V1    V     V_3+5 0.064650 0.512000 0.502430 1.198908
O8    O     O_R   0.672090 0.402890 0.410590 -0.597639
C3    C     C_R   0.840086 0.381929 0.382864 0.959750
O9    O     O_R   0.674540 0.387840 0.547110 -0.584984
C4    C     C_R   0.843303 0.360419 0.563147 0.944715
V2    V     V_3+5 0.564040 0.488000 0.497570 1.219168
O10   O     O_3   0.840990 0.564670 0.513070 -0.247869
C5    C     C_R   0.934880 0.111505 0.608407 0.004149
H1    H     H_    0.931994 0.161712 0.515030 0.164687
H2    H     H_    0.978062 0.988081 0.691473 0.141677
H3    H     H_    0.975851 0.034622 0.582383 0.184627
C6    C     C_R   0.854610 0.282549 0.602210 -0.137475
C7    C     C_R   0.808959 0.315078 0.931165 -0.084462
C8    C     C_R   0.783049 0.390355 0.895768 -0.016005
C9    C     C_R   0.801307 0.367454 0.824713 -0.228012
C10   C     C_R   0.846494 0.267374 0.786980 0.113405
C11   C     C_R   0.877166 0.191037 0.823954 0.108523
C12   C     C_R   0.861870 0.240494 0.713939 0.092016
C13   C     C_R   0.912137 0.138962 0.679873 0.116026
C14   C     C_R   0.941188 0.065707 0.717254 -0.178703
C15   C     C_R   0.923379 0.091010 0.788093 -0.236474
C16   C     C_R   0.830534 0.310966 0.673297 -0.242561
C17   C     C_R   0.908578 0.183268 0.569917 -0.044851
C18   C     C_R   0.857806 0.216112 0.896231 -0.243839
H4    H     H_    0.791634 0.389152 0.695113 0.105329
H5    H     H_    0.789717 0.333752 0.986160 0.211546
H6    H     H_    0.778608 0.429970 0.801122 0.116697
H7    H     H_    0.746560 0.467029 0.923563 0.162309
H8    H     H_    0.947111 0.031228 0.814566 0.125760
C19   C     C_3   0.777858 0.161983 0.248984 -0.157631
C20   C     C_3   0.954048 0.211274 0.292476 -0.096765
H9    H     H_    0.032192 0.176623 0.328797 0.171250
H10   H     H_    0.718055 0.085392 0.248184 0.128691
C21   C     C_3   0.847396 0.313714 0.311766 -0.155286
C22   C     C_3   0.670096 0.265234 0.269207 -0.197440
C23   C     C_3   0.759905 0.294728 0.206768 0.403121
C24   C     C_3   0.934501 0.345470 0.249263 -0.179699
C25   C     C_3   0.040891 0.241673 0.229067 -0.106200
C26   C     C_3   0.864365 0.192633 0.186082 -0.240660
H11   H     H_    0.517081 0.275356 0.285166 0.140066
H12   H     H_    0.997014 0.421496 0.249065 0.154372
H13   H     H_    0.193591 0.231721 0.212686 0.154572
C27   C     C_3   0.538326 0.731969 0.728320 -0.127739
C28   C     C_3   0.442577 0.838218 0.748752 -0.117124
H14   H     H_    0.513609 0.911986 0.747790 0.128935
H15   H     H_    0.688603 0.717472 0.709986 0.112635
C29   C     C_3   0.356787 0.810555 0.812628 -0.088772
C30   C     C_3   0.452535 0.705089 0.793006 -0.113575
C31   C     C_3   0.269630 0.660554 0.751740 -0.140718
C32   C     C_3   0.174015 0.766788 0.772263 -0.145135
C33   C     C_3   0.259599 0.793629 0.707618 -0.072842
C34   C     C_3   0.355537 0.688260 0.687877 -0.097787
H16   H     H_    0.531722 0.668865 0.828726 0.110309
H17   H     H_    0.198531 0.586743 0.752511 0.112412
H18   H     H_    0.023747 0.781489 0.790563 0.119287
H19   H     H_    0.176964 0.829327 0.672607 0.154594
C35   C     C_R   0.406400 0.902228 0.397046 0.400259
H20   H     H_    0.481225 0.017785 0.306427 0.189055
C36   C     C_R   0.362327 0.724453 0.402227 -0.361483
C37   C     C_R   0.293286 0.686281 0.072426 -0.321450
C38   C     C_R   0.254258 0.613579 0.109503 0.675396
C39   C     C_R   0.273350 0.639218 0.180891 -0.295279
C40   C     C_R   0.332796 0.738499 0.217140 0.073685
C41   C     C_R   0.370165 0.812272 0.178442 0.119213
C42   C     C_R   0.351643 0.767549 0.290539 0.113276
C43   C     C_R   0.395734 0.870880 0.324084 -0.084099
C44   C     C_R   0.434135 0.940584 0.283829 -0.058457
C45   C     C_R   0.421905 0.912154 0.212916 -0.256814
C46   C     C_R   0.329283 0.696925 0.331537 -0.282059
C47   C     C_R   0.412196 0.826508 0.435445 0.380346
C48   C     C_R   0.351242 0.785250 0.105916 -0.236685
H21   H     H_    0.296050 0.617532 0.309697 0.146932
H22   H     H_    0.272266 0.666733 0.017312 0.166851
H23   H     H_    0.234127 0.580681 0.206520 0.172315
H24   H     H_    0.453378 0.969918 0.185227 0.120889
O11   O     O_R   0.203580 0.914920 0.912610 -0.603861
O12   O     O_R   0.535710 0.887810 0.047120 -0.598070
O13   O     O_R   0.710730 0.084950 0.087430 -0.583623
C49   C     C_R   0.366174 0.861998 0.064923 0.968582
O14   O     O_R   0.533010 0.902850 0.910600 -0.604597
O15   O     O_R   0.708010 0.100090 0.949930 -0.579486
C50   C     C_R   0.364169 0.880853 0.883154 0.907512
O16   O     O_R   0.206300 0.899780 0.050100 -0.596037
O17   O     O_3   0.375170 0.064580 0.013100 -0.246471
V3    V     V_3+5 0.648200 0.988020 0.997570 1.196999
O18   O     O_R   0.038030 0.112330 0.952840 -0.592711
C51   C     C_R   0.869330 0.138380 0.935752 0.974012
O19   O     O_R   0.040730 0.097300 0.089360 -0.593667
C52   C     C_R   0.872425 0.120693 0.116225 1.007619
V4    V     V_3+5 0.148780 0.012220 0.002360 1.205492
O20   O     O_3   0.871930 0.935430 0.986900 -0.288255
N1    N     N_R   0.652035 0.343895 0.161762 0.247818
O21   O     O_R   0.578948 0.433596 0.186313 -0.378392
O22   O     O_R   0.626554 0.298718 0.097452 -0.383213
S1    S     S_3+6 0.486273 0.858067 0.523482 -0.019707
O23   O     O_2   0.619462 0.949287 0.538304 -0.241341
O24   O     O_2   0.310286 0.881642 0.567621 -0.326927
O25   O     O_3   0.605220 0.762573 0.544622 -0.540852
H25   H     H_    0.647826 0.790539 0.592630 0.349889
S2    S     S_3+6 0.397626 0.035571 0.439129 -0.013824
O26   O     O_2   0.315058 0.053228 0.510019 -0.228072
O27   O     O_2   0.598141 0.079798 0.443154 -0.306370
O28   O     O_3   0.257550 0.097675 0.394901 -0.595824
H26   H     H_    0.279452 0.171081 0.416697 0.359528
S3    S     S_3+6 0.163093 0.492623 0.066693 -0.030453
O29   O     O_2   0.207037 0.414789 0.106707 -0.257746
O30   O     O_2   0.948657 0.500610 0.060171 -0.307380
O31   O     O_3   0.260773 0.456714 0.988069 -0.547752
H27   H     H_    0.216627 0.385217 0.969803 0.372634

loop_
_geom_bond_atom_site_label_1
_geom_bond_atom_site_label_2
_geom_bond_distance
_ccdc_geom_bond_type
C22   H11   1.110289 S    
C20   C25   1.550972 S    
O17   V3    2.155636 S    
O18   C51   1.296493 A    
C1    O6    1.299071 A    
S1    O24   1.501531 D    
S3    O29   1.503361 D    
O11   C50   1.298223 A    
C30   H16   1.110225 S    
C23   C24   1.537722 S    
C38   S3    1.760806 S    
C7    H5    1.081238 S    
C6    C16   1.397333 A    
C32   H18   1.110388 S    
C9    H6    1.076316 S    
C4    C6    1.459164 S    
C13   C14   1.395439 A    
C3    C21   1.501731 S    
C27   C34   1.539140 S    
S2    O27   1.503017 D    
O5    C3    1.296317 A    
O12   C49   1.298827 A    
C28   C29   1.539893 S    
V2    O10   2.159625 S    
O13   V3    2.000513 S    
C5    H3    1.083753 S    
C29   C30   1.540246 S    
C15   H8    1.082753 S    
O14   V3    2.004901 S    
O28   H26   0.991168 S    
C37   H22   1.084104 S    
O12   V3    2.015413 S    
C2    C36   1.474896 S    
O8    V2    1.996320 S    
C20   C21   1.540459 S    
C49   O16   1.291092 A    
C25   C26   1.545961 S    
C8    C9    1.392237 A    
O15   V3    2.016447 S    
C38   C39   1.397901 A    
O1    V2    2.019050 S    
O14   C50   1.295688 A    
O7    V1    2.155618 S    
O17   V4    1.708112 S    
C27   H15   1.110353 S    
O13   C52   1.296082 A    
C31   C34   1.540215 S    
C32   C33   1.548314 S    
N1    O22   1.299572 A    
O9    C4    1.296544 A    
C35   C47   1.423081 A    
S1    O23   1.501923 D    
O19   V4    1.996467 S    
C28   C33   1.549223 S    
O19   C52   1.297393 A    
C19   H10   1.106086 S    
C39   H23   1.075401 S    
C29   C50   1.502850 S    
C36   C46   1.396847 A    
C6    C17   1.395140 A    
C42   C43   1.423726 A    
C12   C16   1.414406 A    
N1    O21   1.300241 A    
C44   C45   1.385600 A    
C40   C42   1.437160 A    
S2    O28   1.678478 S    
C19   C20   1.549750 S    
O4    C2    1.300608 A    
C25   H13   1.110296 S    
C45   H24   1.082632 S    
C10   C11   1.426605 A    
C8    H7    1.082837 S    
C1    C34   1.503956 S    
C33   C34   1.539772 S    
O2    C1    1.295487 A    
C43   C44   1.405221 A    
C14   C15   1.387313 A    
O11   V4    1.996521 S    
C11   C18   1.416298 A    
V4    O20   2.159693 S    
V3    O20   1.707057 S    
O25   H25   0.990748 S    
C16   H4    1.077318 S    
C9    C10   1.417946 A    
O15   C51   1.289124 A    
O3    C4    1.289481 A    
C23   N1    1.456405 S    
C20   H9    1.103118 S    
C33   H19   1.107573 S    
C11   C15   1.408043 A    
O6    V2    1.995932 S    
O9    V2    2.020534 S    
C21   C22   1.544198 S    
C47   S1    1.790444 S    
H1    C17   1.083406 S    
O2    V1    2.004760 S    
C18   C51   1.464253 S    
C27   C28   1.550007 S    
C23   C26   1.530356 S    
C31   H17   1.110276 S    
C7    C18   1.395445 A    
C24   C25   1.555695 S    
O1    C2    1.291701 A    
C5    C13   1.403229 A    
C22   C23   1.536313 S    
C40   C41   1.426121 A    
O5    V1    2.000518 S    
S3    O30   1.501952 D    
O8    C3    1.297269 A    
C28   H14   1.110441 S    
C19   C22   1.554186 S    
C10   C12   1.428668 A    
C26   C52   1.502392 S    
C24   H12   1.110467 S    
C29   C32   1.538559 S    
C31   C32   1.549496 S    
O4    V1    2.015386 S    
C48   C49   1.474532 S    
O3    V1    2.016440 S    
V1    O10   1.707024 S    
O31   H27   0.990515 S    
C46   H21   1.077077 S    
C30   C31   1.549807 S    
C36   C47   1.416140 A    
C35   C43   1.425980 A    
C41   C48   1.419934 A    
O18   V4    2.020408 S    
C35   S2    1.794825 S    
O7    V2    1.710135 S    
C37   C38   1.393050 A    
C21   C24   1.544100 S    
S3    O31   1.682112 S    
C27   C30   1.549827 S    
C39   C40   1.417761 A    
C42   C46   1.410527 A    
C12   C13   1.422639 A    
C5    C17   1.391828 A    
C41   C45   1.400672 A    
C7    C8    1.387537 A    
C37   C48   1.396574 A    
H20   C44   1.077638 S    
S2    O26   1.501724 D    
S1    O25   1.677041 S    
O16   V4    2.025444 S    
C19   C26   1.542610 S    
H2    C14   1.083645 S    
