data_mof_unit_26683.cif
_audit_creation_date              2012-10-26T21:13:40-0400
_audit_creation_method            fapswitch 2.2
_symmetry_space_group_name_H-M    P1
_symmetry_Int_Tables_number       1
_space_group_crystal_system       triclinic
_cell_length_a                    9.077914
_cell_length_b                    10.862823
_cell_length_c                    9.548975
_cell_angle_alpha                 90.012316
_cell_angle_beta                  89.995401
_cell_angle_gamma                 90.141304
_cell_volume                      941.638466607

loop_
_atom_site_label
_atom_site_type_symbol
_atom_type_description
_atom_site_fract_x
_atom_site_fract_y
_atom_site_fract_z
_atom_type_partial_charge
C1    C     C_R   0.500296 0.262705 0.499839 0.549656
C2    C     C_R   0.570263 0.591360 0.926300 0.155397
C3    C     C_3   0.730324 0.622295 0.920741 -0.276783
C4    C     C_R   0.220679 0.499982 0.499983 0.555799
C5    C     C_3   0.729860 0.623058 0.079670 -0.277491
C6    C     C_R   0.500674 0.737292 0.499850 0.549381
C7    C     C_R   0.779310 0.500119 0.500020 0.554692
C8    C     C_1   0.065535 0.500079 0.499997 -0.063279
C9    C     C_1   0.934435 0.500134 0.500015 -0.067782
C10   C     C_R   0.495279 0.062001 0.620805 0.021018
C11   C     C_R   0.502244 0.130085 0.498144 0.010141
C12   C     C_R   0.511749 0.935401 0.370725 -0.163110
C13   C     C_R   0.511422 0.064558 0.370686 -0.163535
C14   C     C_R   0.502830 0.869912 0.498226 0.008892
C15   C     C_R   0.495753 0.938049 0.620880 0.020023
C16   C     C_3   0.481385 0.929246 0.776008 -0.265759
C17   C     C_3   0.480729 0.071023 0.775868 -0.271704
C18   C     C_R   0.570033 0.591515 0.073634 0.155477
C19   C     C_R   0.419250 0.416743 0.074396 -0.011997
C20   C     C_R   0.419162 0.416794 0.925535 -0.012058
Cu1   Cu    Cu3+1 0.499990 0.499980 0.640670 0.938678
Cu2   Cu    Cu3+1 0.500010 0.500020 0.359330 0.937077
H1    H     H_    0.517867 0.112299 0.271292 0.132551
H2    H     H_    0.356141 0.347837 0.130148 0.114394
H3    H     H_    0.355831 0.348065 0.869753 0.112102
H4    H     H_    0.798189 0.546800 0.876171 0.159395
H5    H     H_    0.750897 0.714538 0.874383 0.119299
H6    H     H_    0.797988 0.548347 0.125492 0.160073
H7    H     H_    0.749131 0.715960 0.125059 0.122230
H8    H     H_    0.518443 0.887624 0.271348 0.133782
H9    H     H_    0.374629 0.887819 0.808496 0.142402
H10   H     H_    0.580826 0.889086 0.825863 0.131545
H11   H     H_    0.373453 0.111189 0.808107 0.127734
H12   H     H_    0.579724 0.112679 0.825599 0.140609
N1    N     N_R   0.500920 0.500930 0.147930 -0.230206
N2    N     N_R   0.500930 0.500890 0.852020 -0.230542
O1    O     O_R   0.500000 0.319640 0.618810 -0.505277
O2    O     O_R   0.500020 0.319680 0.381230 -0.514530
O3    O     O_R   0.288380 0.499980 0.618770 -0.497582
O4    O     O_R   0.288400 0.500020 0.381190 -0.495642
O5    O     O_R   0.499980 0.680320 0.618770 -0.498414
O6    O     O_R   0.500000 0.680360 0.381190 -0.506815
O7    O     O_R   0.711600 0.499980 0.618810 -0.500150
O8    O     O_R   0.711620 0.500020 0.381230 -0.499691

loop_
_geom_bond_atom_site_label_1
_geom_bond_atom_site_label_2
_ccdc_geom_bond_type
C7    O7    A    
C2    C18   A    
C5    H6    S    
C18   N1    A    
C19   C20   A    
Cu1   O3    S    
C4    O3    A    
C1    O1    A    
C4    C8    S    
Cu2   O4    S    
C3    H5    S    
C2    C3    S    
C10   C11   A    
Cu1   N2    S    
C19   N1    A    
C7    O8    A    
C16   H9    S    
Cu2   N1    S    
C11   C13   A    
C17   H12   S    
Cu2   O6    S    
C17   H11   S    
C1    O2    A    
Cu1   O5    S    
Cu1   Cu2   S    
C12   C14   A    
C19   H2    S    
C5    H7    S    
C10   C15   A    
Cu2   O2    S    
C14   C15   A    
C6    C14   S    
C20   H3    S    
C10   C17   S    
C15   C16   S    
C20   N2    A    
Cu1   O1    S    
C12   C13   A    
C13   H1    S    
C6    O6    A    
C2    N2    A    
C7    C9    S    
C16   H10   S    
C8    C9    T    
C5    C18   S    
C12   H8    S    
Cu1   O7    S    
C3    H4    S    
Cu2   O8    S    
C4    O4    A    
C16   C17   S    
C3    C5    S    
C6    O5    A    
C1    C11   S    
