data_mof_unit_38913.cif
_audit_creation_date              2012-12-10T18:15:13-0500
_audit_creation_method            fapswitch 2.2
_symmetry_space_group_name_H-M    P1
_symmetry_Int_Tables_number       1
_space_group_crystal_system       triclinic
_cell_length_a                    12.655074
_cell_length_b                    13.001408
_cell_length_c                    23.397485
_cell_angle_alpha                 91.740786
_cell_angle_beta                  102.833673
_cell_angle_gamma                 82.363386
_cell_volume                      3720.21580663

loop_
_atom_site_label
_atom_site_type_symbol
_atom_type_description
_atom_site_fract_x
_atom_site_fract_y
_atom_site_fract_z
_atom_type_partial_charge
C1    C     C_R   0.440003 0.691266 0.488258 0.847045
C2    C     C_R   0.543108 0.684464 0.038503 -0.135964
C3    C     C_R   0.548266 0.682359 0.979994 -0.133268
C4    C     C_R   0.522144 0.595752 0.945231 -0.028045
C5    C     C_R   0.490427 0.509434 0.969551 -0.007538
C6    C     C_R   0.465477 0.421479 0.934549 -0.102197
C7    C     C_R   0.436730 0.334221 0.960176 -0.061921
C8    C     C_R   0.429498 0.337156 0.019749 -0.062170
C9    C     C_R   0.526604 0.593999 0.886278 0.589434
C10   C     C_R   0.469850 0.425161 0.874708 0.524562
C11   C     C_R   0.602250 0.499188 0.774465 0.519094
C12   C     C_R   0.500832 0.501294 0.610480 0.903404
C13   C     C_R   0.601479 0.497069 0.714453 -0.329928
C14   C     C_R   0.501946 0.505502 0.672931 -0.084015
C15   C     C_R   0.402879 0.518197 0.691327 -0.194151
C16   C     C_R   0.403201 0.521544 0.750580 -0.160419
C17   C     C_R   0.502252 0.511265 0.792007 0.270744
C18   C     C_R   0.392061 0.569198 0.231444 0.037068
C19   C     C_R   0.401197 0.560880 0.291724 -0.360921
C20   C     C_R   0.492615 0.503135 0.326975 -0.114631
C21   C     C_R   0.576474 0.451320 0.301808 0.464269
C22   C     C_R   0.569518 0.462891 0.242346 -0.148832
C23   C     C_R   0.560374 0.308743 0.501643 0.920435
C24   C     C_R   0.478147 0.519883 0.207065 0.213875
C25   C     C_R   0.735342 0.050312 0.495568 -0.009230
C26   C     C_R   0.596025 0.200782 0.488587 -0.119495
C27   C     C_R   0.300144 0.846287 0.474676 -0.171237
C28   C     C_R   0.272136 0.953206 0.470822 -0.093967
C29   C     C_R   0.350022 0.016412 0.465857 -0.212309
C30   C     C_R   0.455700 0.972847 0.460111 0.080715
C31   C     C_R   0.481525 0.864117 0.459409 0.099086
C32   C     C_R   0.540490 0.034466 0.461936 0.006683
C33   C     C_R   0.650958 0.988139 0.473249 0.069046
C34   C     C_R   0.498525 0.499866 0.389630 0.891045
C35   C     C_R   0.670987 0.882489 0.460345 -0.240861
C36   C     C_R   0.585075 0.822960 0.449171 -0.161212
C37   C     C_R   0.519605 0.141478 0.455557 -0.068638
C38   C     C_R   0.704935 0.155673 0.507280 -0.217828
C39   C     C_R   0.405618 0.800944 0.471712 -0.134930
C40   C     C_R   0.096096 0.327758 0.429331 -0.215428
C41   C     C_R   0.800493 0.627106 0.572209 -0.096254
C42   C     C_R   0.908332 0.643280 0.594921 -0.076004
C43   C     C_R   0.990537 0.587252 0.571033 -0.072881
C44   C     C_R   0.964574 0.521311 0.522104 -0.014471
C45   C     C_R   0.442011 0.436609 0.113240 0.554804
C46   C     C_R   0.855723 0.499586 0.505713 0.180888
C47   C     C_R   0.043119 0.471284 0.491406 -0.086598
C48   C     C_R   0.016571 0.384535 0.455068 0.103811
C49   C     C_R   0.910887 0.356233 0.444360 0.443997
C50   C     C_R   0.830489 0.417843 0.467047 -0.291100
C51   C     C_R   0.146540 0.504425 0.494004 0.091924
C52   C     C_R   0.199355 0.358055 0.438465 -0.029674
C53   C     C_R   0.506775 0.601957 0.122313 0.586071
C54   C     C_R   0.510973 0.600320 0.063316 -0.016380
C55   C     C_R   0.483962 0.512082 0.028939 -0.004206
C56   C     C_R   0.451143 0.427339 0.054066 -0.112404
H1    H     H_    0.564128 0.752514 0.064176 0.198730
H2    H     H_    0.336878 0.599828 0.311519 0.167529
H3    H     H_    0.633601 0.423511 0.222616 0.166596
H4    H     H_    0.765891 0.202843 0.529801 0.203121
H5    H     H_    0.751549 0.844890 0.458440 0.152855
H6    H     H_    0.240880 0.799702 0.483021 0.212512
H7    H     H_    0.327936 0.099287 0.469229 0.132843
H8    H     H_    0.191574 0.987627 0.475192 0.182632
H9    H     H_    0.572930 0.748956 0.962131 0.199869
H10   H     H_    0.602701 0.743696 0.435348 0.188148
H11   H     H_    0.261332 0.313130 0.419933 0.167069
H12   H     H_    0.079335 0.259884 0.402558 0.206530
H13   H     H_    0.735179 0.667650 0.590498 0.144841
H14   H     H_    0.074163 0.592590 0.592839 0.158581
H15   H     H_    0.749233 0.398706 0.455240 0.206114
H16   H     H_    0.678133 0.487052 0.700309 0.166011
H17   H     H_    0.325122 0.525948 0.659983 0.165756
H18   H     H_    0.326415 0.531018 0.764551 0.179085
N1    N     N_R   0.472704 0.521061 0.145623 -0.323269
N2    N     N_R   0.500503 0.509871 0.852694 -0.334454
N3    N     N_R   0.222200 0.444670 0.469780 -0.135065
N4    N     N_R   0.776960 0.554790 0.529910 -0.111571
O1    O     O_R   0.366740 0.627150 0.485570 -0.631863
O2    O     O_2   0.536581 0.683455 0.156429 -0.544081
O3    O     O_2   0.555514 0.676176 0.862233 -0.526456
O4    O     O_2   0.442764 0.346027 0.838099 -0.549184
O5    O     O_R   0.544830 0.662520 0.504870 -0.620338
O6    O     O_R   0.410930 0.482340 0.574190 -0.642245
O7    O     O_R   0.589010 0.517710 0.593490 -0.609459
O8    O     O_R   0.455170 0.337480 0.495130 -0.589329
O9    O     O_R   0.633260 0.372850 0.514430 -0.645812
O10   O     O_R   0.410990 0.482290 0.406510 -0.563242
O11   O     O_R   0.589070 0.517660 0.425810 -0.642462
O12   O     O_2   0.402165 0.363140 0.138759 -0.536842
Zn1   Zn    Zn3+2 0.381090 0.476380 0.487110 0.972510
Zn2   Zn    Zn3+2 0.618910 0.523620 0.512890 0.937622
O13   O     O_3   0.663390 0.385748 0.332856 -0.739645
H19   H     H_    0.640645 0.357473 0.366374 0.329536
C57   C     C_2   0.852691 0.006543 0.512010 0.432548
H20   H     H_    0.877779 0.923593 0.514347 0.076083
O14   O     O_2   0.923876 0.063571 0.523791 -0.543798
C58   C     C_2   0.437182 0.184776 0.403224 0.380657
H21   H     H_    0.373467 0.140381 0.380803 0.077886
O15   O     O_2   0.444647 0.266932 0.381535 -0.573684
O16   O     O_3   0.887088 0.269831 0.410411 -0.723021
H22   H     H_    0.812689 0.255338 0.411663 0.354215
C59   C     C_2   0.170049 0.608272 0.515303 0.398433
H23   H     H_    0.242322 0.617540 0.548798 0.096730
O17   O     O_2   0.106320 0.684767 0.496340 -0.586327
C60   C     C_2   0.933720 0.716484 0.644143 0.423676
H24   H     H_    0.868240 0.757451 0.662388 0.067158
O18   O     O_2   0.027614 0.732287 0.664792 -0.538473
C61   C     C_2   0.423280 0.236103 0.926779 0.550624
H25   H     H_    0.491754 0.194604 0.911246 0.075097
O19   O     O_2   0.334972 0.203294 0.914835 -0.465845
C62   C     C_2   0.410258 0.241610 0.047074 0.536211
H26   H     H_    0.471013 0.206218 0.083805 0.072077
O20   O     O_2   0.325348 0.204059 0.029987 -0.464844
O21   O     O_3   0.698515 0.488081 0.816624 -0.731539
H27   H     H_    0.760956 0.480323 0.796970 0.342256
C63   C     C_2   0.291641 0.628638 0.196167 0.498523
H28   H     H_    0.230138 0.667616 0.217972 0.056591
O22   O     O_2   0.275268 0.634589 0.142897 -0.533295

loop_
_geom_bond_atom_site_label_1
_geom_bond_atom_site_label_2
_ccdc_geom_bond_type
C55   C56   A    
C29   H7    S    
O13   H19   S    
C41   C42   A    
C57   H20   S    
C43   C44   A    
C8    C56   A    
C62   O20   D    
C2    H1    S    
C7    C8    A    
C26   C37   A    
C3    H9    S    
C53   C54   A    
O5    Zn2   S    
O16   H22   S    
C60   O18   D    
C12   O7    A    
C18   C24   A    
C28   C29   A    
O8    Zn1   S    
C63   O22   D    
C49   O16   S    
C5    C6    A    
C36   H10   S    
C60   H24   S    
C51   C59   S    
C15   C16   A    
C12   O6    A    
C18   C19   A    
C23   C26   S    
C49   C50   A    
C62   H26   S    
C10   N2    A    
C11   C17   A    
C35   C36   A    
C45   C56   A    
C27   C39   A    
C16   C17   A    
C23   O8    A    
C17   N2    S    
C9    N2    A    
C11   O21   S    
O1    Zn1   S    
C44   C47   A    
C20   C34   S    
C23   O9    A    
C21   C22   A    
C53   N1    A    
C37   C58   S    
O7    Zn2   S    
C44   C46   A    
C19   H2    S    
C53   O2    S    
C35   H5    S    
C2    C54   A    
C22   H3    S    
C46   N4    A    
C26   C38   A    
C47   C51   A    
N4    Zn2   S    
C40   C52   A    
C10   O4    S    
C3    C4    A    
C7    C61   S    
C50   H15   S    
C51   N3    A    
C29   C30   A    
C27   H6    S    
C25   C38   A    
C47   C48   A    
O10   Zn1   S    
C59   O17   D    
C34   O10   A    
C32   C37   A    
O11   Zn2   S    
C45   O12   S    
C42   C60   S    
C18   C63   S    
C52   H11   S    
C38   H4    S    
C28   H8    S    
C48   C49   A    
C15   H17   S    
C12   C14   S    
C25   C57   S    
C43   H14   S    
C58   O15   D    
C1    O1    A    
C22   C24   A    
C42   C43   A    
C52   N3    A    
C41   N4    A    
O9    Zn2   S    
C41   H13   S    
C40   C48   A    
C54   C55   A    
N3    Zn1   S    
C31   C36   A    
C5    C55   A    
C4    C5    A    
C6    C10   A    
C57   O14   D    
C24   N1    S    
C6    C7    A    
C16   H18   S    
C13   H16   S    
C1    O5    A    
C46   C50   A    
C63   H28   S    
C45   N1    A    
C32   C33   A    
C19   C20   A    
C61   O19   D    
C2    C3    A    
C34   O11   A    
C61   H25   S    
C30   C32   A    
C11   C13   A    
C30   C31   A    
C21   O13   S    
O6    Zn1   S    
C33   C35   A    
C8    C62   S    
C31   C39   A    
C1    C39   S    
C20   C21   A    
C58   H21   S    
C40   H12   S    
C25   C33   A    
C59   H23   S    
C14   C15   A    
C4    C9    A    
C13   C14   A    
O21   H27   S    
C9    O3    S    
C27   C28   A    
