data_mof_unit_19770.cif
_audit_creation_date              2012-12-10T18:06:49-0500
_audit_creation_method            fapswitch 2.2
_symmetry_space_group_name_H-M    P1
_symmetry_Int_Tables_number       1
_space_group_crystal_system       triclinic
_cell_length_a                    12.601317
_cell_length_b                    13.152309
_cell_length_c                    15.339657
_cell_angle_alpha                 83.326909
_cell_angle_beta                  98.978415
_cell_angle_gamma                 96.71411
_cell_volume                      2481.50132438

loop_
_atom_site_label
_atom_site_type_symbol
_atom_type_description
_atom_site_fract_x
_atom_site_fract_y
_atom_site_fract_z
_atom_type_partial_charge
C1    C     C_R   0.442183 0.308690 0.506936 0.845776
C2    C     C_R   0.690934 0.528463 0.935040 0.113261
C3    C     C_R   0.587188 0.556431 0.898014 0.088700
C4    C     C_R   0.436004 0.515142 0.335490 0.854639
C5    C     C_R   0.755173 0.489004 0.882961 -0.263829
C6    C     C_R   0.715571 0.471386 0.795030 0.210529
C7    C     C_R   0.548454 0.538824 0.810133 -0.308735
C8    C     C_R   0.643652 0.942638 0.368552 -0.204426
C9    C     C_R   0.582518 0.800934 0.469277 -0.048653
C10   C     C_R   0.331881 0.159128 0.569458 -0.192718
C11   C     C_R   0.311667 0.053568 0.588294 -0.150952
C12   C     C_R   0.470059 0.581743 0.098447 0.088879
C13   C     C_R   0.369937 0.987818 0.554265 -0.189743
C14   C     C_R   0.446376 0.027272 0.496878 0.086933
C15   C     C_R   0.453905 0.132900 0.467387 0.093052
C16   C     C_R   0.555991 0.691547 0.489049 0.857222
C17   C     C_R   0.515541 0.965519 0.467660 0.082086
C18   C     C_R   0.577832 0.005437 0.399471 0.180993
C19   C     C_R   0.571744 0.106606 0.362103 -0.257427
C20   C     C_R   0.510289 0.169689 0.395510 -0.209331
C21   C     C_R   0.525635 0.865282 0.505599 -0.256839
C22   C     C_R   0.644507 0.839704 0.402390 -0.192961
C23   C     C_R   0.372191 0.623587 0.062631 0.170621
C24   C     C_R   0.405589 0.199290 0.511409 -0.115894
C25   C     C_R   0.139150 0.640744 0.624011 -0.311514
C26   C     C_R   0.757059 0.381600 0.394251 0.032562
C27   C     C_R   0.852104 0.356607 0.371258 -0.265714
C28   C     C_R   0.565707 0.488969 0.664451 0.865679
C29   C     C_R   0.950062 0.401299 0.411676 -0.195737
C30   C     C_R   0.952697 0.471827 0.475292 0.012082
C31   C     C_R   0.853528 0.494616 0.496182 0.230786
C32   C     C_R   0.049043 0.520837 0.518414 -0.013696
C33   C     C_R   0.044505 0.591522 0.581063 0.194316
C34   C     C_R   0.551591 0.580593 0.044856 0.021747
C35   C     C_R   0.945655 0.612553 0.600002 -0.302701
C36   C     C_R   0.851404 0.564775 0.557793 -0.187521
C37   C     C_R   0.150632 0.502764 0.501947 -0.056104
C38   C     C_R   0.237155 0.619490 0.604489 0.012543
C39   C     C_R   0.405299 0.543161 0.240571 -0.077569
C40   C     C_R   0.610633 0.496845 0.758190 -0.102408
C41   C     C_R   0.294144 0.629513 0.117458 -0.210355
C42   C     C_R   0.311876 0.591585 0.206866 -0.192544
C43   C     C_R   0.479802 0.533666 0.184667 -0.224865
C44   C     C_3   0.757321 0.317748 0.741300 -0.731081
C45   C     C_R   0.521291 0.592696 0.951957 0.041762
C46   C     C_3   0.717555 0.687192 0.188841 -0.764907
C47   C     C_R   0.424482 0.637138 0.916883 -0.214303
C48   C     C_R   0.352808 0.655717 0.972282 -0.239616
C49   C     C_R   0.660949 0.565043 0.079873 0.182104
C50   C     C_R   0.728856 0.538579 0.024182 -0.298628
H1    H     H_    0.279234 0.689543 0.943618 0.141102
H2    H     H_    0.505985 0.247216 0.363705 0.152040
H3    H     H_    0.311851 0.656406 0.636799 0.120803
H4    H     H_    0.467446 0.554176 0.781846 0.170742
H5    H     H_    0.941073 0.666290 0.647493 0.155098
H6    H     H_    0.137265 0.694780 0.671857 0.137612
H7    H     H_    0.162894 0.450613 0.456207 0.125838
H8    H     H_    0.680376 0.348065 0.362725 0.127761
H9    H     H_    0.021528 0.379434 0.391386 0.137420
H10   H     H_    0.849897 0.303129 0.322264 0.145664
H11   H     H_    0.777928 0.584475 0.574561 0.217168
H12   H     H_    0.835016 0.468395 0.911501 0.135431
H13   H     H_    0.810883 0.523380 0.051293 0.143046
H14   H     H_    0.220036 0.663676 0.091336 0.135439
H15   H     H_    0.253249 0.600521 0.249335 0.161377
H16   H     H_    0.545326 0.487078 0.208998 0.181209
H17   H     H_    0.403575 0.660080 0.846968 0.138435
H18   H     H_    0.863143 0.448159 0.761657 0.220941
H19   H     H_    0.807106 0.291333 0.696280 0.237379
H20   H     H_    0.670881 0.298378 0.715218 0.244979
H21   H     H_    0.776071 0.276553 0.808476 0.220284
H22   H     H_    0.773641 0.544354 0.193430 0.226417
H23   H     H_    0.688609 0.789614 0.373384 0.155662
H24   H     H_    0.749216 0.691205 0.260202 0.233920
H25   H     H_    0.638586 0.719858 0.175017 0.251313
H26   H     H_    0.775285 0.733904 0.148620 0.233922
H27   H     H_    0.615767 0.137493 0.307989 0.139692
H28   H     H_    0.690656 0.971934 0.315934 0.136022
H29   H     H_    0.486228 0.833507 0.561746 0.139661
H30   H     H_    0.292395 0.209360 0.602462 0.160092
H31   H     H_    0.351496 0.906625 0.572143 0.129964
H32   H     H_    0.253919 0.022690 0.632370 0.140390
N1    N     N_R   0.239390 0.551900 0.544730 -0.099940
N2    N     N_R   0.759950 0.448600 0.455730 -0.126679
N3    N     N_2   0.781553 0.427556 0.745011 -0.291075
N4    N     N_2   0.705529 0.581165 0.169174 -0.314298
O1    O     O_R   0.374950 0.371210 0.521360 -0.612578
O2    O     O_R   0.542050 0.338030 0.492790 -0.608552
O3    O     O_R   0.368720 0.526070 0.390200 -0.612877
O4    O     O_R   0.535820 0.492890 0.361630 -0.619533
O5    O     O_R   0.457950 0.661970 0.507210 -0.609636
O6    O     O_R   0.625050 0.628790 0.478640 -0.637508
O7    O     O_R   0.464180 0.507110 0.638370 -0.619513
O8    O     O_R   0.631280 0.473930 0.609800 -0.595965
Zn1   Zn    Zn3+2 0.388420 0.522150 0.519080 0.933056
Zn2   Zn    Zn3+2 0.611580 0.477850 0.480920 0.932777

loop_
_geom_bond_atom_site_label_1
_geom_bond_atom_site_label_2
_ccdc_geom_bond_type
C1    O1    A    
O2    Zn2   S    
H18   N3    S    
C38   N1    A    
C27   C29   A    
C41   C42   A    
C19   C20   A    
C25   H6    S    
C46   H26   S    
C12   C23   A    
C26   C27   A    
C6    N3    S    
C9    C16   S    
C12   C43   A    
C3    C7    A    
C27   H10   S    
C30   C31   A    
C9    C22   A    
C28   C40   S    
C13   H31   S    
O6    Zn2   S    
C44   H21   S    
C28   O8    A    
C18   C19   A    
N2    Zn2   S    
C19   H27   S    
C2    C50   A    
C48   H1    S    
C29   H9    S    
O1    Zn1   S    
C42   H15   S    
C8    C22   A    
C7    C40   A    
C44   H20   S    
C1    O2    A    
O7    Zn1   S    
C13   C14   A    
C8    H28   S    
C50   H13   S    
C14   C17   A    
C47   H17   S    
C46   H25   S    
C39   C42   A    
C4    O4    A    
C45   C47   A    
C11   H32   S    
C15   C20   A    
C35   H5    S    
C7    H4    S    
C10   H30   S    
C39   C43   A    
C10   C24   A    
C3    C45   A    
C8    C18   A    
C31   N2    A    
C28   O7    A    
C35   C36   A    
O3    Zn1   S    
C29   C30   A    
C25   C38   A    
C47   C48   A    
C4    C39   S    
N1    Zn1   S    
C21   H29   S    
C17   C18   A    
C44   H19   S    
C34   C45   A    
C32   C37   A    
O8    Zn2   S    
C26   H8    S    
C1    C24   S    
C15   C24   A    
C16   O6    A    
C6    C40   A    
C2    C5    A    
C12   C34   A    
C44   N3    S    
C46   H24   S    
C4    O3    A    
C34   C49   A    
C26   N2    A    
C23   C48   A    
C14   C15   A    
C49   N4    S    
C23   C41   A    
H22   N4    S    
O4    Zn2   S    
C22   H23   S    
C32   C33   A    
C2    C3    A    
C20   H2    S    
C30   C32   A    
C11   C13   A    
C9    C21   A    
C5    C6    A    
C38   H3    S    
C43   H16   S    
C33   C35   A    
C5    H12   S    
C17   C21   A    
C10   C11   A    
O5    Zn1   S    
C16   O5    A    
C49   C50   A    
C31   C36   A    
C37   N1    A    
C41   H14   S    
C37   H7    S    
C36   H11   S    
C25   C33   A    
C46   N4    S    
