data_mof_unit_43193.cif
_audit_creation_date              2012-12-11T15:23:58-0500
_audit_creation_method            fapswitch 2.2
_symmetry_space_group_name_H-M    P1
_symmetry_Int_Tables_number       1
_space_group_crystal_system       triclinic
_cell_length_a                    17.310306
_cell_length_b                    24.337984
_cell_length_c                    14.943019
_cell_angle_alpha                 90.17953
_cell_angle_beta                  125.381668
_cell_angle_gamma                 89.999286
_cell_volume                      5132.73593227

loop_
_atom_site_label
_atom_site_type_symbol
_atom_type_description
_atom_site_fract_x
_atom_site_fract_y
_atom_site_fract_z
_atom_type_partial_charge
C1    C     C_R   0.351271 0.348059 0.908785 -0.127102
C2    C     C_R   0.441358 0.496950 0.635643 0.126887
C3    C     C_3   0.695297 0.889338 0.212751 -0.276847
C4    C     C_3   0.599364 0.888370 0.101375 -1.010938
C5    C     C_3   0.009503 0.877379 0.571700 0.178854
C6    C     C_3   0.026383 0.838229 0.504094 -0.221260
C7    C     C_3   0.121014 0.808484 0.576445 -1.080143
C8    C     C_R   0.950976 0.998137 0.276848 0.110749
C9    C     C_R   0.941358 0.996950 0.635642 0.126880
C10   C     C_R   0.203277 0.498125 0.631946 0.140191
C11   C     C_R   0.825525 0.497707 0.313138 0.137070
C12   C     C_R   0.703277 0.998125 0.631946 0.140189
C13   C     C_R   0.325525 0.997707 0.313138 0.137070
C14   C     C_2   0.977686 0.457062 0.379572 -0.115891
C15   C     C_2   0.079403 0.453170 0.463863 -0.112652
C16   C     C_2   0.477686 0.957062 0.379572 -0.115891
C17   C     C_R   0.646443 0.347407 0.089163 -0.133851
C18   C     C_2   0.579404 0.953170 0.463863 -0.112647
C19   C     C_2   0.927459 0.497444 0.384557 -0.199165
C20   C     C_2   0.129397 0.498598 0.515048 -0.195016
C21   C     C_2   0.427459 0.997444 0.384557 -0.199165
C22   C     C_2   0.629397 0.998598 0.515048 -0.195015
C23   C     C_R   0.160778 0.691133 0.894508 -0.170498
C24   C     C_R   0.840905 0.687289 0.097894 -0.168104
C25   C     C_R   0.660776 0.191130 0.894510 -0.170499
C26   C     C_R   0.340904 0.187289 0.097894 -0.168104
C27   C     C_R   0.609330 0.234246 0.894935 -0.171040
C28   C     C_R   0.851271 0.848059 0.908785 -0.127105
C29   C     C_R   0.390116 0.232040 0.098017 -0.169882
C30   C     C_R   0.109331 0.734247 0.894933 -0.171036
C31   C     C_R   0.890117 0.732040 0.098017 -0.169879
C32   C     C_R   0.638563 0.258607 0.995054 0.142896
C33   C     C_R   0.357347 0.258512 0.998838 0.140920
C34   C     C_R   0.138560 0.758606 0.995052 0.142894
C35   C     C_R   0.857347 0.758512 0.998838 0.140919
C36   C     C_R   0.704249 0.231591 0.093691 -0.171242
C37   C     C_R   0.288723 0.232890 0.899204 -0.171057
C38   C     C_R   0.204244 0.731589 0.093688 -0.171241
C39   C     C_R   0.146442 0.847406 0.089163 -0.133853
C40   C     C_R   0.788723 0.732890 0.899204 -0.171057
C41   C     C_R   0.255376 0.688163 0.093179 -0.169719
C42   C     C_R   0.739402 0.688259 0.899172 -0.168970
C43   C     C_R   0.755380 0.188164 0.093182 -0.169719
C44   C     C_R   0.239403 0.188259 0.899172 -0.168970
C45   C     C_R   0.405302 0.632322 0.088006 -0.130529
C46   C     C_R   0.597424 0.624928 0.908204 -0.127346
C47   C     C_R   0.905302 0.132322 0.088006 -0.130528
C48   C     C_R   0.097424 0.124928 0.908204 -0.127346
C49   C     C_R   0.240816 0.672454 0.994207 0.146465
C50   C     C_R   0.315005 0.643640 0.995723 0.041832
C51   C     C_R   0.758588 0.669583 0.998767 0.143978
C52   C     C_R   0.740816 0.172454 0.994209 0.146467
C53   C     C_R   0.258588 0.169583 0.998767 0.143978
C54   C     C_R   0.395830 0.545408 0.466854 -0.228034
C55   C     C_R   0.394315 0.546820 0.373504 -0.223726
C56   C     C_R   0.895834 0.045409 0.466856 -0.228031
C57   C     C_R   0.894319 0.046822 0.373508 -0.223714
C58   C     C_R   0.402373 0.497791 0.330754 -0.110296
C59   C     C_R   0.410409 0.495306 0.520984 -0.096223
C60   C     C_R   0.902374 0.997792 0.330755 -0.110306
C61   C     C_R   0.685698 0.640152 0.999591 0.039499
C62   C     C_R   0.910409 0.995307 0.520983 -0.096234
C63   C     C_R   0.384167 0.447885 0.362476 0.417470
C64   C     C_R   0.402723 0.445444 0.466216 0.441358
C65   C     C_R   0.884163 0.947887 0.362471 0.417453
C66   C     C_R   0.902721 0.945444 0.466213 0.441374
C67   C     C_R   0.481227 0.452693 0.249017 -0.148823
C68   C     C_R   0.453478 0.452453 0.699287 -0.147783
C69   C     C_R   0.981228 0.952693 0.249018 -0.148844
C70   C     C_R   0.953478 0.952453 0.699287 -0.147791
C71   C     C_R   0.248017 0.544230 0.694801 -0.163850
C72   C     C_R   0.815005 0.143639 0.995724 0.041831
C73   C     C_R   0.769368 0.544132 0.278768 -0.149501
C74   C     C_R   0.748017 0.044230 0.694801 -0.163849
C75   C     C_R   0.269368 0.044132 0.278767 -0.149500
C76   C     C_R   0.485987 0.544159 0.256573 -0.124796
C77   C     C_R   0.454945 0.543707 0.697700 -0.144720
C78   C     C_R   0.985990 0.044159 0.256575 -0.124783
C79   C     C_R   0.954945 0.043707 0.697700 -0.144713
C80   C     C_R   0.248210 0.452879 0.697317 -0.111546
C81   C     C_R   0.767479 0.452206 0.268456 -0.123522
C82   C     C_R   0.748210 0.952879 0.697317 -0.111544
C83   C     C_R   0.185698 0.140152 0.999591 0.039498
C84   C     C_R   0.267479 0.952206 0.268456 -0.123521
C85   C     C_R   0.311060 0.626263 0.905061 -0.127230
C86   C     C_R   0.687352 0.628159 0.091540 -0.119269
C87   C     C_R   0.811060 0.126263 0.905061 -0.127228
C88   C     C_R   0.187352 0.128159 0.091540 -0.119268
C89   C     C_R   0.443695 0.347398 0.091301 -0.148741
C90   C     C_R   0.555977 0.348123 0.906460 -0.134129
C91   C     C_R   0.943695 0.847398 0.091301 -0.148728
C92   C     C_R   0.055975 0.848122 0.906460 -0.134125
C93   C     C_R   0.381807 0.315856 0.999578 0.044586
C94   C     C_R   0.450974 0.498136 0.276845 0.110763
C95   C     C_R   0.615647 0.315841 0.997008 0.049826
C96   C     C_R   0.881807 0.815856 0.999578 0.044583
C97   C     C_R   0.115645 0.815841 0.997007 0.049826
C98   C     C_3   0.275480 0.402986 0.200986 0.177774
C99   C     C_3   0.195325 0.389299 0.212777 -0.276817
C100  C     C_3   0.099397 0.388280 0.101396 -1.010939
C101  C     C_3   0.509506 0.377376 0.571690 0.178937
C102  C     C_3   0.526343 0.338183 0.504103 -0.221255
C103  C     C_3   0.620972 0.308437 0.576457 -1.080186
C104  C     C_3   0.775466 0.903000 0.200969 0.177794
H1    H     H_    0.312074 0.335054 0.824053 0.084520
H2    H     H_    0.862187 0.670671 0.176065 0.108980
H3    H     H_    0.643234 0.177009 0.816152 0.108105
H4    H     H_    0.362187 0.170671 0.176065 0.108979
H5    H     H_    0.554393 0.251755 0.816784 0.107533
H6    H     H_    0.447163 0.248560 0.176438 0.110605
H7    H     H_    0.054398 0.751758 0.816782 0.107530
H8    H     H_    0.947163 0.748560 0.176438 0.110605
H9    H     H_    0.723706 0.247024 0.172098 0.105476
H10   H     H_    0.265791 0.250116 0.820921 0.106816
H11   H     H_    0.223697 0.747021 0.172094 0.105476
H12   H     H_    0.684070 0.333488 0.172992 0.082825
H13   H     H_    0.765791 0.750116 0.820921 0.106816
H14   H     H_    0.311852 0.670979 0.171024 0.103214
H15   H     H_    0.680527 0.672736 0.820853 0.107853
H16   H     H_    0.811858 0.170982 0.171027 0.103214
H17   H     H_    0.180528 0.172735 0.820854 0.107853
H18   H     H_    0.395441 0.584324 0.501398 0.141540
H19   H     H_    0.396073 0.586440 0.342201 0.139400
H20   H     H_    0.895446 0.084325 0.501402 0.141539
H21   H     H_    0.896082 0.086442 0.342208 0.139398
H22   H     H_    0.436665 0.647834 0.169592 0.084939
H23   H     H_    0.812074 0.835054 0.824053 0.084522
H24   H     H_    0.569956 0.629328 0.822916 0.093001
H25   H     H_    0.936665 0.147834 0.169592 0.084938
H26   H     H_    0.069956 0.129328 0.822916 0.093001
H27   H     H_    0.472628 0.409886 0.258794 0.149722
H28   H     H_    0.430744 0.410755 0.673817 0.147650
H29   H     H_    0.972627 0.909887 0.258795 0.149716
H30   H     H_    0.930747 0.910755 0.673818 0.147645
H31   H     H_    0.238968 0.585697 0.664331 0.093300
H32   H     H_    0.792852 0.585374 0.309132 0.089737
H33   H     H_    0.738968 0.085697 0.664331 0.093301
H34   H     H_    0.184069 0.833487 0.172992 0.082826
H35   H     H_    0.292852 0.085374 0.309132 0.089735
H36   H     H_    0.487536 0.585301 0.283303 0.086173
H37   H     H_    0.437744 0.585581 0.669220 0.085346
H38   H     H_    0.987540 0.085302 0.283306 0.086169
H39   H     H_    0.937743 0.085581 0.669220 0.085345
H40   H     H_    0.240364 0.410662 0.670600 0.083916
H41   H     H_    0.787527 0.409389 0.283376 0.092169
H42   H     H_    0.740363 0.910662 0.670600 0.083917
H43   H     H_    0.287527 0.909389 0.283376 0.092169
H44   H     H_    0.253395 0.629825 0.819436 0.095147
H45   H     H_    0.960908 0.531011 0.443166 0.133185
H46   H     H_    0.741424 0.639331 0.174974 0.087831
H47   H     H_    0.753394 0.129826 0.819436 0.095150
H48   H     H_    0.241424 0.139331 0.174974 0.087830
H49   H     H_    0.490569 0.333426 0.175011 0.090465
H50   H     H_    0.510011 0.335330 0.821648 0.081728
H51   H     H_    0.990570 0.833426 0.175012 0.090466
H52   H     H_    0.010008 0.835330 0.821647 0.081724
H53   H     H_    0.942637 0.422969 0.322564 0.125153
H54   H     H_    0.106689 0.412625 0.497217 0.119772
H55   H     H_    0.442637 0.922970 0.322564 0.125153
H56   H     H_    0.103453 0.538601 0.476887 0.132437
H57   H     H_    0.606689 0.912625 0.497217 0.119773
H58   H     H_    0.274907 0.372039 0.145763 0.135642
H59   H     H_    0.262947 0.443565 0.160283 0.098145
H60   H     H_    0.208671 0.348445 0.252245 0.216628
H61   H     H_    0.193392 0.420538 0.265863 0.194568
H62   H     H_    0.084071 0.429029 0.061188 0.270372
H63   H     H_    0.042940 0.378446 0.112732 0.273315
H64   H     H_    0.098746 0.356445 0.047520 0.268707
H65   H     H_    0.525369 0.354812 0.645085 0.119320
H66   H     H_    0.560908 0.412324 0.603447 0.070743
H67   H     H_    0.460908 0.031011 0.443166 0.133185
H68   H     H_    0.468360 0.307250 0.462039 0.221832
H69   H     H_    0.527283 0.361763 0.441323 0.206018
H70   H     H_    0.680079 0.338601 0.619290 0.277339
H71   H     H_    0.631869 0.281307 0.524790 0.272639
H72   H     H_    0.621653 0.282744 0.638244 0.272791
H73   H     H_    0.774877 0.872046 0.145746 0.135619
H74   H     H_    0.762961 0.943577 0.160270 0.098170
H75   H     H_    0.708590 0.848472 0.252162 0.216606
H76   H     H_    0.693410 0.920569 0.265881 0.194592
H77   H     H_    0.584090 0.929133 0.061226 0.270376
H78   H     H_    0.603453 0.038601 0.476887 0.132437
H79   H     H_    0.542898 0.878551 0.112702 0.273317
H80   H     H_    0.598667 0.856546 0.047450 0.268707
H81   H     H_    0.025337 0.854782 0.645051 0.119342
H82   H     H_    0.060901 0.912331 0.603529 0.070777
H83   H     H_    0.968407 0.807295 0.461964 0.221873
H84   H     H_    0.027347 0.861844 0.441364 0.205956
H85   H     H_    0.180115 0.838649 0.619338 0.277335
H86   H     H_    0.131940 0.781384 0.524766 0.272636
H87   H     H_    0.121675 0.782760 0.638184 0.272782
H88   H     H_    0.143241 0.677014 0.816151 0.108102
N1    N     N_R   0.395440 0.396300 0.944370 -0.038071
N2    N     N_R   0.474910 0.470990 0.794360 -0.047243
N3    N     N_R   0.025090 0.970990 0.205640 -0.048172
N4    N     N_R   0.974910 0.970990 0.794360 -0.047240
N5    N     N_R   0.320240 0.527820 0.794510 -0.039266
N6    N     N_R   0.679760 0.527820 0.205490 -0.040401
N7    N     N_R   0.820240 0.027820 0.794510 -0.039266
N8    N     N_R   0.179760 0.027820 0.205490 -0.040402
N9    N     N_R   0.524580 0.527810 0.205160 -0.042574
N10   N     N_R   0.475420 0.527810 0.794840 -0.039275
N11   N     N_R   0.024580 0.027810 0.205160 -0.042574
N12   N     N_R   0.604560 0.396300 0.055630 -0.036492
N13   N     N_R   0.975420 0.027810 0.794840 -0.039276
N14   N     N_R   0.320750 0.470990 0.794990 -0.044468
N15   N     N_R   0.679250 0.470990 0.205010 -0.044170
N16   N     N_R   0.820750 0.970990 0.794990 -0.044468
N17   N     N_R   0.179250 0.970990 0.205010 -0.044170
N18   N     N_R   0.393580 0.602500 0.942610 -0.040042
N19   N     N_R   0.606420 0.602500 0.057390 -0.040547
N20   N     N_R   0.893580 0.102500 0.942610 -0.040042
N21   N     N_R   0.106420 0.102500 0.057390 -0.040547
N22   N     N_R   0.451750 0.396300 0.057540 -0.038561
N23   N     N_R   0.895440 0.896300 0.944370 -0.038072
N24   N     N_R   0.548250 0.396300 0.942460 -0.037666
N25   N     N_R   0.951750 0.896300 0.057540 -0.038561
N26   N     N_R   0.048250 0.896300 0.942460 -0.037666
N27   N     N_R   0.104560 0.896300 0.055630 -0.036493
N28   N     N_R   0.449890 0.602500 0.055780 -0.039413
N29   N     N_R   0.550110 0.602500 0.944220 -0.040856
N30   N     N_R   0.949890 0.102500 0.055780 -0.039413
N31   N     N_R   0.050110 0.102500 0.944220 -0.040856
N32   N     N_R   0.525090 0.470990 0.205640 -0.048177
Ni1   Ni    Ni4+2 0.435420 0.434250 0.870220 0.205410
Ni2   Ni    Ni4+2 0.564580 0.434250 0.129780 0.206494
Ni3   Ni    Ni4+2 0.935420 0.934250 0.870220 0.205411
Ni4   Ni    Ni4+2 0.064580 0.934250 0.129780 0.206495
Ni5   Ni    Ni4+2 0.563400 0.564580 0.128670 0.215723
Ni6   Ni    Ni4+2 0.436600 0.564580 0.871330 0.211635
Ni7   Ni    Ni4+2 0.063400 0.064580 0.128670 0.215722
Ni8   Ni    Ni4+2 0.936600 0.064580 0.871330 0.211636
O1    O     O_3   0.364495 0.399491 0.303841 -0.681122
O2    O     O_3   0.413135 0.394108 0.511456 -0.664515
O3    O     O_3   0.864477 0.899494 0.303827 -0.681096
O4    O     O_3   0.913129 0.894108 0.511448 -0.664491

loop_
_geom_bond_atom_site_label_1
_geom_bond_atom_site_label_2
_ccdc_geom_bond_type
C3    C104  S    
C80   N14   A    
C101  C102  S    
C12   C74   A    
C87   N20   A    
C51   C61   S    
C85   H44   S    
C5    H81   S    
C3    H76   S    
C7    H87   S    
C85   N18   A    
C90   N24   A    
C98   H59   S    
N6    Ni5   S    
C90   C95   A    
N20   N30   A    
C75   N8    A    
C11   C81   A    
C102  H69   S    
C64   O2    S    
C13   C84   A    
C11   C19   S    
C59   C64   A    
C16   C21   D    
C46   N29   A    
N3    Ni4   S    
C47   H25   S    
C100  H63   S    
C56   H20   S    
N2    Ni1   S    
C39   N27   A    
N11   Ni7   S    
C28   C96   A    
C2    C68   A    
C78   H38   S    
N16   Ni3   S    
C57   H21   S    
C5    C6    S    
N20   Ni8   S    
C18   H57   S    
C43   C52   A    
C23   C49   A    
N3    N11   A    
N2    N10   A    
C29   C33   A    
C44   H17   S    
C69   N3    A    
C34   C97   S    
N18   N28   A    
C56   C57   A    
C100  H62   S    
C9    C79   A    
N32   Ni2   S    
N4    N13   A    
C68   H28   S    
C3    H75   S    
N7    N16   A    
C50   C85   A    
C76   C94   A    
C91   C96   A    
C44   C53   A    
C104  O3    S    
C79   H39   S    
C13   C75   A    
C10   C20   S    
C80   H40   S    
C5    O4    S    
N29   Ni6   S    
C67   C94   A    
C31   H8    S    
C7    H86   S    
C101  H65   S    
C17   C95   A    
N8    Ni7   S    
N27   Ni4   S    
C90   H50   S    
N23   Ni3   S    
N21   Ni7   S    
C28   H23   S    
C43   H16   S    
N10   Ni6   S    
C10   C71   A    
C28   N23   A    
C40   C42   A    
C83   C88   A    
N6    N15   A    
N4    Ni3   S    
C87   H47   S    
C77   N10   A    
C16   H55   S    
C8    C78   A    
C88   H48   S    
C48   H26   S    
N5    N14   A    
C67   N32   A    
C5    H82   S    
N22   Ni2   S    
C36   H9    S    
C41   C49   A    
C23   H88   S    
C98   H58   S    
C92   C97   A    
C71   N5    A    
C54   C59   A    
C76   H36   S    
C102  H68   S    
C15   C20   D    
C74   H33   S    
C55   H19   S    
C88   N21   A    
C62   C66   A    
C14   H53   S    
C13   C21   S    
C9    C62   S    
C23   C30   A    
C29   H6    S    
N1    N22   A    
C86   N19   A    
C38   C41   A    
C53   C83   S    
C11   C73   A    
C26   H4    S    
C30   C34   A    
C76   N9    A    
C57   C60   A    
C37   H10   S    
C46   C61   A    
C24   C31   A    
C35   C96   S    
C6    H83   S    
C103  H70   S    
C33   C37   A    
C63   C64   A    
C66   O4    S    
C34   C38   A    
C91   N25   A    
C17   N12   A    
C1    N1    A    
N7    Ni8   S    
C91   H51   S    
C52   C72   S    
C63   O1    S    
N15   Ni2   S    
C89   H49   S    
C104  H73   S    
C73   H32   S    
C45   H22   S    
C73   N6    A    
N14   Ni1   S    
C103  H71   S    
N18   Ni6   S    
C12   C82   A    
C101  H66   S    
C92   H52   S    
C9    C70   A    
C92   N26   A    
C19   H45   S    
C15   H54   S    
N28   Ni5   S    
C6    H84   S    
C1    C93   A    
C2    C59   S    
C47   N30   A    
C60   C65   A    
C65   C66   A    
C4    H77   S    
C81   H41   S    
N17   Ni4   S    
C20   H56   S    
C41   H14   S    
C12   C22   S    
C56   C62   A    
C24   H2    S    
C82   H42   S    
N12   Ni2   S    
C3    C4    S    
C26   C53   A    
C32   C36   A    
N26   Ni3   S    
C72   C87   A    
N31   Ni8   S    
C25   H3    S    
C84   H43   S    
C46   H24   S    
C58   C63   A    
N12   N24   A    
C54   C55   A    
C69   H29   S    
N19   Ni5   S    
C27   C32   A    
C18   C22   D    
C14   C19   D    
C65   O3    S    
C67   H27   S    
C82   N16   A    
N8    N17   A    
N13   Ni8   S    
C75   H35   S    
C33   C93   S    
N30   Ni7   S    
C48   C83   A    
C70   N4    A    
C6    C7    S    
C78   N11   A    
C48   N31   A    
C25   C27   A    
C10   C80   A    
C42   C51   A    
N24   Ni1   S    
C99   C100  S    
C81   N15   A    
C30   H7    S    
C100  H64   S    
C37   C44   A    
C86   H46   S    
C35   C40   A    
C58   C94   S    
C25   C52   A    
N1    Ni1   S    
C22   H78   S    
C8    C69   A    
C79   N13   A    
C8    C60   S    
C71   H31   S    
C38   H11   S    
N21   N31   A    
N26   N27   A    
C98   O1    S    
C45   C50   A    
C24   C51   A    
N5    Ni6   S    
N9    Ni5   S    
C103  H72   S    
C84   N17   A    
C98   C99   S    
C40   H13   S    
C31   C35   A    
C4    H79   S    
C89   C93   A    
C102  C103  S    
C42   H15   S    
C77   H37   S    
C47   C72   A    
C39   H34   S    
N23   N25   A    
C39   C97   A    
C61   C86   A    
N25   Ni4   S    
C99   H60   S    
C104  H74   S    
C54   H18   S    
C32   C95   S    
C74   N7    A    
C27   H5    S    
C26   C29   A    
C16   C18   S    
C49   C50   S    
C21   H67   S    
C55   C58   A    
C101  O2    S    
C70   H30   S    
C45   N28   A    
C2    C77   A    
C14   C15   S    
C7    H85   S    
C36   C43   A    
C68   N2    A    
N9    N32   A    
C4    H80   S    
C17   H12   S    
C1    H1    S    
C89   N22   A    
C99   H61   S    
N19   N29   A    
