data_mof_unit_18357.cif
_audit_creation_date              2012-12-10T18:33:38-0500
_audit_creation_method            fapswitch 2.2
_symmetry_space_group_name_H-M    P1
_symmetry_Int_Tables_number       1
_space_group_crystal_system       triclinic
_cell_length_a                    10.502318
_cell_length_b                    15.084106
_cell_length_c                    15.447617
_cell_angle_alpha                 80.827906
_cell_angle_beta                  90.872103
_cell_angle_gamma                 104.454259
_cell_volume                      2338.64983918

loop_
_atom_site_label
_atom_site_type_symbol
_atom_type_description
_atom_site_fract_x
_atom_site_fract_y
_atom_site_fract_z
_atom_type_partial_charge
C1    C     C_R   0.480198 0.441086 0.662296 0.905306
C2    C     C_R   0.514203 0.559106 0.337776 0.944134
C3    C     C_R   0.422355 0.459138 0.810562 0.351802
C4    C     C_R   0.443962 0.536909 0.188966 0.360424
C5    C     C_R   0.439202 0.440101 0.901471 -0.096325
C6    C     C_R   0.475164 0.556605 0.098566 -0.096058
C7    C     C_R   0.443801 0.349135 0.939135 -0.018715
C8    C     C_R   0.537231 0.649086 0.061164 -0.014980
C9    C     C_R   0.462445 0.510764 0.954079 0.043388
C10   C     C_R   0.454329 0.485821 0.046019 0.044792
C11   C     C_R   0.443015 0.392045 0.083207 -0.322437
C12   C     C_R   0.511474 0.605113 0.917064 -0.318887
C13   C     C_R   0.440872 0.324105 0.030568 0.467997
C14   C     C_R   0.552208 0.673899 0.969846 0.468918
C15   C     C_R   0.664707 0.833012 0.652603 -0.307212
C16   C     C_R   0.323196 0.167575 0.348445 -0.316853
C17   C     C_R   0.653306 0.750689 0.620920 -0.052822
C18   C     C_R   0.344078 0.251475 0.379563 -0.044585
C19   C     C_R   0.508071 0.791363 0.510288 0.520028
C20   C     C_R   0.483675 0.202746 0.489895 0.490184
C21   C     C_R   0.529504 0.881532 0.532441 -0.117967
C22   C     C_R   0.450443 0.112347 0.469002 -0.018395
C23   C     C_R   0.742169 0.501094 0.500154 0.900951
C24   C     C_R   0.257850 0.498901 0.499867 0.950074
C25   C     C_R   0.600466 0.897713 0.609861 0.131785
C26   C     C_R   0.379240 0.098402 0.391896 0.105685
C27   C     C_R   0.482188 0.954759 0.483237 0.055570
C28   C     C_R   0.491980 0.037368 0.519033 0.096462
C29   C     C_R   0.539654 0.041569 0.604685 -0.127463
C30   C     C_R   0.430679 0.950365 0.398411 -0.217352
C31   C     C_R   0.600754 0.975975 0.646591 -0.186799
C32   C     C_R   0.371963 0.018025 0.356498 -0.173152
C33   C     C_3   0.934881 0.433505 0.560242 0.497271
C34   C     C_3   0.065226 0.566506 0.439796 0.504434
C35   C     C_3   0.049543 0.512537 0.580033 -0.305084
C36   C     C_3   0.950568 0.487479 0.420011 -0.285266
C37   C     C_3   0.122072 0.497023 0.500177 -0.090159
C38   C     C_3   0.878002 0.502986 0.499864 -0.066236
C39   C     C_3   0.008254 0.416294 0.481889 -0.237037
C40   C     C_3   0.991851 0.583727 0.518150 -0.272588
C41   C     C_R   0.461522 0.404160 0.756402 -0.215719
C42   C     C_R   0.512197 0.596816 0.244023 -0.198230
C43   C     C_R   0.460680 0.287057 0.884134 -0.131907
C44   C     C_R   0.587015 0.714481 0.116315 -0.140615
C45   C     C_R   0.482669 0.317149 0.794145 0.337266
C46   C     C_R   0.579503 0.688527 0.207222 0.326147
H1    H     H_    0.721337 0.845411 0.710658 0.162137
H2    H     H_    0.265466 0.157349 0.290463 0.169426
H3    H     H_    0.644480 0.984975 0.709658 0.166115
H4    H     H_    0.326535 0.009542 0.293859 0.164297
N1    N     N_R   0.574200 0.731700 0.552740 -0.105029
N2    N     N_R   0.425800 0.268300 0.447260 -0.155953
O1    O     O_R   0.462600 0.383110 0.605620 -0.642816
O2    O     O_R   0.537400 0.616890 0.394380 -0.580350
O3    O     O_R   0.510210 0.531900 0.639510 -0.566812
O4    O     O_R   0.489790 0.468100 0.360490 -0.576653
O5    O     O_R   0.662240 0.425610 0.483080 -0.607471
O6    O     O_R   0.337760 0.574390 0.516920 -0.539143
O7    O     O_R   0.709860 0.574400 0.516970 -0.641000
O8    O     O_R   0.290140 0.425600 0.483030 -0.637426
Zn1   Zn    Zn3+2 0.468210 0.400660 0.477370 0.978174
Zn2   Zn    Zn3+2 0.531790 0.599340 0.522630 1.025342
H5    H     H_    0.092675 0.520375 0.645297 0.185961
H6    H     H_    0.907554 0.479634 0.354726 0.169300
O9    O     O_3   0.587212 0.227448 0.543750 -0.760293
H7    H     H_    0.578974 0.283102 0.565593 0.396528
O10   O     O_3   0.411720 0.756832 0.454648 -0.734159
H8    H     H_    0.332911 0.777912 0.467754 0.332164
H9    H     H_    0.300904 0.305346 0.346748 0.201644
H10   H     H_    0.700489 0.699075 0.653964 0.151884
H11   H     H_    0.529837 0.094728 0.641394 0.222792
H12   H     H_    0.435907 0.895938 0.362158 0.202868
O11   O     O_3   0.859978 0.364231 0.623536 -0.759414
H13   H     H_    0.922331 0.329457 0.651592 0.339556
O12   O     O_3   0.140186 0.635708 0.376457 -0.735442
H14   H     H_    0.078141 0.671056 0.348959 0.332652
H15   H     H_    0.017777 0.347857 0.469043 0.180499
H16   H     H_    0.982397 0.652187 0.530976 0.174300
O13   O     O_3   0.439903 0.234044 0.067087 -0.772067
H17   H     H_    0.437009 0.228001 0.131951 0.335111
O14   O     O_3   0.608632 0.765049 0.933590 -0.774209
H18   H     H_    0.610724 0.770775 0.868751 0.331118
O15   O     O_3   0.341951 0.463221 0.224610 -0.773007
H19   H     H_    0.278750 0.446768 0.177881 0.340805
O16   O     O_3   0.363299 0.528135 0.773493 -0.764046
H20   H     H_    0.309100 0.541675 0.819336 0.339892
O17   O     O_3   0.639388 0.754087 0.257296 -0.739350
H21   H     H_    0.571396 0.758412 0.299031 0.374927
O18   O     O_3   0.528061 0.261291 0.746461 -0.737879
H22   H     H_    0.597493 0.302544 0.705655 0.361274
H23   H     H_    0.471207 0.218578 0.911473 0.225835
H24   H     H_    0.636952 0.785254 0.089285 0.227296
H25   H     H_    0.448939 0.372116 0.153216 0.190577
H26   H     H_    0.530521 0.625353 0.847231 0.190273

loop_
_geom_bond_atom_site_label_1
_geom_bond_atom_site_label_2
_ccdc_geom_bond_type
O6    Zn2   S    
C38   C40   S    
O17   H21   S    
C13   O13   S    
C25   C31   A    
C3    O16   S    
C34   C37   S    
O11   H13   S    
C15   H1    S    
C17   N1    A    
O14   H18   S    
C18   N2    A    
O16   H20   S    
C23   O7    A    
C33   C39   S    
C34   C40   S    
C39   H15   S    
C28   C29   A    
C35   C37   S    
N2    Zn1   S    
C15   C25   A    
O3    Zn2   S    
C16   H2    S    
C15   C17   A    
C42   C46   A    
C1    O1    A    
O1    Zn1   S    
C19   O10   S    
C7    C43   A    
C45   O18   S    
C9    C10   A    
C44   H24   S    
C34   O12   S    
C11   H25   S    
C18   H9    S    
C21   C27   A    
C17   H10   S    
C22   C28   A    
C27   C30   A    
C12   H26   S    
N1    Zn2   S    
C31   H3    S    
C44   C46   A    
C16   C26   A    
C37   C39   S    
O10   H8    S    
C20   O9    S    
C4    C6    A    
C2    O2    A    
C5    C7    A    
C26   C32   A    
C6    C8    A    
O2    Zn2   S    
C43   H23   S    
O8    Zn1   S    
O12   H14   S    
C5    C9    A    
O15   H19   S    
C24   O8    A    
C24   C37   S    
C16   C18   A    
C43   C45   A    
C32   H4    S    
C33   O11   S    
C12   C14   A    
C40   H16   S    
C46   O17   S    
C1    C41   S    
C23   O5    A    
C21   C25   A    
C3    C41   A    
O7    Zn2   S    
C8    C14   A    
C19   C21   A    
C36   C39   S    
C8    C44   A    
C20   C22   A    
C3    C5    A    
C6    C10   A    
C30   H12   S    
O5    Zn1   S    
C23   C38   S    
C33   C38   S    
C20   N2    A    
C36   C38   S    
C35   C40   S    
C1    O3    A    
C29   C31   A    
C2    O4    A    
C30   C32   A    
C11   C13   A    
C4    O15   S    
C4    C42   A    
C2    C42   S    
C33   C35   S    
C34   C36   S    
C9    C12   A    
C10   C11   A    
O13   H17   S    
C19   N1    A    
C7    C13   A    
C24   O6    A    
O9    H7    S    
C22   C26   A    
C27   C28   A    
C41   C45   A    
O4    Zn1   S    
C35   H5    S    
C14   O14   S    
O18   H22   S    
C36   H6    S    
C29   H11   S    
