data_mof_unit_25526.cif
_audit_creation_date              2012-12-11T15:56:03-0500
_audit_creation_method            fapswitch 2.2
_symmetry_space_group_name_H-M    P1
_symmetry_Int_Tables_number       1
_space_group_crystal_system       triclinic
_cell_length_a                    11.109732
_cell_length_b                    11.059866
_cell_length_c                    18.784933
_cell_angle_alpha                 89.944036
_cell_angle_beta                  89.618138
_cell_angle_gamma                 59.715822
_cell_volume                      1993.11180741

loop_
_atom_site_label
_atom_site_type_symbol
_atom_type_description
_atom_site_fract_x
_atom_site_fract_y
_atom_site_fract_z
_atom_type_partial_charge
C1    C     C_R   0.360255 0.770117 0.397349 0.540402
C2    C     C_R   0.251555 0.433724 0.200659 -0.199711
C3    C     C_R   0.248257 0.444757 0.274629 -0.002262
C4    C     C_R   0.386842 0.354398 0.387918 0.588817
C5    C     C_R   0.946353 0.825164 0.379914 0.253479
C6    C     C_R   0.964147 0.696658 0.403342 -0.071944
C7    C     C_R   0.058944 0.571113 0.368598 0.250836
C8    C     C_R   0.133967 0.575051 0.308226 0.076593
C9    C     C_R   0.359519 0.337152 0.313514 0.035000
C10   C     C_R   0.953656 0.296032 0.195232 0.017747
C11   C     C_R   0.922192 0.203168 0.229707 0.031398
C12   C     C_R   0.589176 0.069246 0.172907 0.019051
C13   C     C_R   0.884147 0.217563 0.301410 -0.021000
C14   C     C_R   0.901334 0.424964 0.305107 -0.071052
C15   C     C_R   0.956078 0.399670 0.236118 -0.136694
C16   C     C_R   0.780187 0.378229 0.403752 0.534637
C17   C     C_3   0.808026 0.179874 0.209293 0.105416
C18   C     C_3   0.769448 0.189097 0.286722 -0.249248
C19   C     C_R   0.866809 0.332832 0.339307 0.012785
C20   C     C_R   0.336321 0.874702 0.179990 0.029377
C21   C     C_R   0.443685 0.749581 0.204705 0.061040
C22   C     C_R   0.456778 0.721314 0.276581 0.116374
C23   C     C_R   0.356644 0.315350 0.165282 0.030004
C24   C     C_R   0.261316 0.950115 0.302246 -0.172642
C25   C     C_R   0.254639 0.980075 0.229452 -0.162972
C26   C     C_3   0.487712 0.604033 0.184034 -0.281147
C27   C     C_3   0.505707 0.570866 0.263165 -0.277746
C28   C     C_R   0.348889 0.760076 0.606906 0.569231
C29   C     C_R   0.358207 0.815668 0.325331 0.042973
C30   C     C_R   0.308954 0.315453 0.812270 -0.007759
C31   C     C_R   0.366951 0.197532 0.767863 0.001408
C32   C     C_R   0.373455 0.207827 0.695724 0.025021
C33   C     C_R   0.246157 0.459772 0.707322 -0.038822
C34   C     C_R   0.466864 0.222001 0.277497 -0.205788
C35   C     C_R   0.241260 0.449855 0.781284 0.207552
C36   C     C_3   0.506758 0.067310 0.770474 -0.241270
C37   C     C_3   0.512383 0.076728 0.690346 -0.272555
C38   C     C_R   0.322293 0.338234 0.664856 0.006890
C39   C     C_R   0.815482 0.339667 0.835715 -0.019509
C40   C     C_R   0.370258 0.351982 0.595908 0.544911
C41   C     C_R   0.816490 0.446449 0.795519 0.081607
C42   C     C_R   0.806154 0.448714 0.723254 0.073825
C43   C     C_R   0.762229 0.257783 0.726644 -0.164985
C44   C     C_R   0.777150 0.251212 0.801385 -0.179629
C45   C     C_R   0.469713 0.205920 0.204144 -0.020932
C46   C     C_3   0.924212 0.490777 0.790056 0.185506
C47   C     C_3   0.911777 0.490996 0.710095 0.134273
C48   C     C_R   0.787184 0.351643 0.686834 0.026862
C49   C     C_R   0.313128 0.815609 0.832084 -0.050201
C50   C     C_R   0.206195 0.821045 0.790809 0.086580
C51   C     C_R   0.218842 0.807009 0.718159 -0.055657
C52   C     C_R   0.756645 0.379260 0.611695 0.553210
C53   C     C_R   0.454408 0.763948 0.724651 0.242376
C54   C     C_R   0.444638 0.767519 0.799934 0.181077
C55   C     C_3   0.055209 0.930424 0.785707 0.127965
C56   C     C_R   0.109880 0.704949 0.283318 -0.171638
C57   C     C_3   0.069898 0.913695 0.705585 -0.190804
C58   C     C_R   0.336762 0.790022 0.683152 -0.014179
C59   C     C_R   0.974914 0.288588 0.117598 0.574791
C60   C     C_R   0.327610 0.290875 0.093169 0.578988
C61   C     C_R   0.305655 0.902033 0.105549 0.528271
C62   C     C_R   0.881243 0.311022 0.905520 0.545400
C63   C     C_R   0.297111 0.289082 0.886302 0.524032
C64   C     C_R   0.805630 0.811457 0.115112 0.165943
C65   C     C_R   0.277213 0.890468 0.899540 0.527377
C66   C     C_R   0.775384 0.938479 0.084313 -0.167429
C67   C     C_R   0.019221 0.827805 0.319503 -0.052371
C68   C     C_R   0.667488 0.066403 0.111170 0.232416
C69   C     C_R   0.625700 0.937944 0.204851 0.215715
C70   C     C_R   0.727529 0.812289 0.174217 0.340409
Cr1   Cr    Cr6+3 0.601740 0.606840 0.505840 1.048688
Cr2   Cr    Cr6+3 0.291500 0.601560 0.495070 1.026316
Cr3   Cr    Cr6+3 0.606780 0.291630 0.499130 1.041807
Cr4   Cr    Cr6+3 0.062440 0.063060 0.008240 0.996146
Cr5   Cr    Cr6+3 0.062950 0.375000 0.998920 1.032961
Cr6   Cr    Cr6+3 0.374550 0.061770 0.992470 1.040536
H1    H     H_    0.552982 0.141488 0.307230 0.183265
H2    H     H_    0.201591 0.563191 0.684228 0.168257
H3    H     H_    0.499596 0.976530 0.789195 0.206666
H4    H     H_    0.586058 0.083267 0.798016 0.160273
H5    H     H_    0.736492 0.187195 0.700198 0.139005
H6    H     H_    0.769247 0.171448 0.830969 0.145573
H7    H     H_    0.027713 0.411027 0.810274 0.166674
H8    H     H_    0.870971 0.595144 0.684372 0.171545
H9    H     H_    0.031944 0.034868 0.805234 0.122787
H10   H     H_    0.011298 0.866793 0.681823 0.185669
H11   H     H_    0.057152 0.008376 0.677898 0.107532
H12   H     H_    0.983022 0.471723 0.212152 0.173334
H13   H     H_    0.834678 0.937901 0.038161 0.093644
H14   H     H_    0.168060 0.710771 0.238254 0.115166
H15   H     H_    0.166689 0.515760 0.170542 0.162146
H16   H     H_    0.819629 0.928345 0.457705 0.317579
H17   H     H_    0.908811 0.693527 0.450342 0.068180
H18   H     H_    0.032758 0.458288 0.440120 0.320434
H19   H     H_    0.870803 0.525378 0.328370 0.196790
H20   H     H_    0.616637 0.319642 0.185005 0.352388
H21   H     H_    0.190667 0.029378 0.339438 0.141436
H22   H     H_    0.769694 0.622666 0.162291 0.358803
H23   H     H_    0.849745 0.075769 0.184218 0.142692
H24   H     H_    0.433685 0.538454 0.285139 0.118949
H25   H     H_    0.207354 0.552115 0.870357 0.328745
H26   H     H_    0.598634 0.092507 0.672342 0.158267
H27   H     H_    0.011629 0.924122 0.301899 0.123718
H28   H     H_    0.505178 0.992958 0.661717 0.183774
H29   H     H_    0.907548 0.615810 0.866302 0.364654
H30   H     H_    0.020172 0.399608 0.625929 0.328479
H31   H     H_    0.637510 0.748049 0.725361 0.369828
H32   H     H_    0.547116 0.708122 0.888599 0.340677
H33   H     H_    0.956051 0.702981 0.047550 0.319135
H34   H     H_    0.665951 0.279227 0.300757 0.137801
H35   H     H_    0.955402 0.908566 0.864507 0.339784
H36   H     H_    0.697108 0.168740 0.034349 0.337854
H37   H     H_    0.464736 0.003220 0.266576 0.328316
H38   H     H_    0.786586 0.089005 0.308125 0.170465
H39   H     H_    0.186663 0.084002 0.211025 0.107618
H40   H     H_    0.586957 0.556089 0.153369 0.209107
H41   H     H_    0.402282 0.593911 0.159633 0.134941
H42   H     H_    0.616083 0.504630 0.278252 0.169251
O1    O     O_R   0.748670 0.497520 0.427970 -0.535819
O2    O     O_R   0.417470 0.174910 0.067830 -0.477011
O3    O     O_R   0.375160 0.946380 0.070880 -0.505419
O4    O     O_R   0.476470 0.723930 0.429450 -0.487484
O5    O     O_R   0.160500 0.919670 0.926690 -0.532116
O6    O     O_R   0.933140 0.190380 0.936050 -0.516315
O7    O     O_R   0.909010 0.403210 0.925030 -0.518869
O8    O     O_R   0.179590 0.361290 0.918480 -0.522234
O9    O     O_R   0.391360 0.170840 0.907510 -0.506677
O10   O     O_R   0.350950 0.942600 0.922260 -0.482852
O11   O     O_3   0.166650 0.166610 0.999880 -0.291612
O12   O     O_R   0.300170 0.471020 0.567120 -0.516812
O13   O     O_R   0.264730 0.744140 0.416740 -0.514052
O14   O     O_R   0.309440 0.472410 0.418220 -0.477118
O15   O     O_R   0.501630 0.260530 0.414310 -0.520308
O16   O     O_R   0.727920 0.305730 0.428950 -0.474624
O17   O     O_R   0.738670 0.496020 0.588600 -0.503295
O18   O     O_R   0.467190 0.722540 0.578350 -0.439825
O19   O     O_R   0.254720 0.742640 0.577370 -0.531791
O20   O     O_3   0.863205 0.948134 0.416504 -0.702849
O21   O     O_3   0.088589 0.442968 0.396130 -0.714978
O22   O     O_3   0.711256 0.294972 0.169314 -0.654583
O23   O     O_R   0.491630 0.259030 0.574940 -0.521903
O24   O     O_3   0.743622 0.690213 0.202024 -0.672763
O25   O     O_3   0.175912 0.572209 0.820378 -0.657177
O26   O     O_3   0.873710 0.626533 0.816709 -0.640344
O27   O     O_3   0.032010 0.382476 0.677944 -0.753099
O28   O     O_3   0.575827 0.738552 0.690907 -0.691235
O29   O     O_3   0.561788 0.732583 0.839785 -0.685411
O30   O     O_3   0.910920 0.685283 0.088807 -0.697578
O31   O     O_3   0.968516 0.883341 0.813281 -0.639468
O32   O     O_3   0.633895 0.189233 0.075814 -0.644031
O33   O     O_3   0.561794 0.925544 0.265243 -0.668521
O34   O     O_R   0.718640 0.304340 0.577850 -0.510802
O35   O     O_3   0.500010 0.500010 0.500020 -0.281962
O36   O     O_R   0.186620 0.923750 0.087000 -0.534498
O37   O     O_R   0.957350 0.194160 0.084660 -0.462976
O38   O     O_R   0.935120 0.407280 0.085350 -0.475112
O39   O     O_R   0.203800 0.365060 0.067090 -0.521754

loop_
_geom_bond_atom_site_label_1
_geom_bond_atom_site_label_2
_ccdc_geom_bond_type
Cr4   O6    S    
C21   C26   S    
C47   O27   S    
C23   C45   A    
C22   C29   A    
C11   C13   A    
C41   C42   A    
H37   O33   S    
Cr1   O4    S    
C66   C68   A    
C26   H41   S    
C5    C67   A    
C16   O16   A    
C61   O36   A    
C8    C56   A    
H29   O26   S    
C62   O6    A    
C67   H27   S    
C5    O20   S    
C4    O14   A    
Cr3   O23   S    
C53   C54   A    
C12   C68   A    
C26   C27   S    
Cr6   O2    S    
H30   O27   S    
C49   C65   S    
C13   C18   S    
C63   O9    A    
Cr6   O3    S    
C36   C37   S    
C38   C40   S    
C44   H6    S    
C10   C15   A    
C25   H39   S    
C34   H1    S    
Cr1   O17   S    
C30   C31   A    
C33   H2    S    
C20   C25   A    
C49   C54   A    
Cr1   O35   S    
C57   H10   S    
Cr4   O36   S    
C61   O3    A    
C20   C61   S    
C1    O4    A    
C24   C29   A    
Cr5   O38   S    
C54   O29   S    
C41   C46   S    
C55   O31   S    
C51   C57   S    
C64   C70   A    
C43   C48   A    
C31   C36   S    
C53   C58   A    
H32   O29   S    
Cr5   O39   S    
C56   H14   S    
Cr4   O5    S    
H16   O20   S    
C21   C22   A    
C64   O30   S    
H18   O21   S    
C18   H38   S    
C2    H15   S    
H35   O31   S    
Cr2   O14   S    
C66   H13   S    
C23   C60   S    
C27   H24   S    
C70   O24   S    
C13   C19   A    
C24   H21   S    
C69   O33   S    
C65   O10   A    
C7    C8    A    
C24   C25   A    
C39   C41   A    
C3    C8    S    
C36   H4    S    
C16   O1    A    
Cr1   O18   S    
C51   C58   A    
H31   O28   S    
C59   O37   A    
C46   O26   S    
C50   C51   A    
C32   C37   S    
C37   H26   S    
C57   H11   S    
Cr5   O7    S    
C64   C66   A    
C55   H9    S    
C43   C44   A    
C3    C9    A    
C40   O23   A    
C62   O7    A    
Cr6   O11   S    
C31   C32   A    
C52   O34   A    
C6    H17   S    
C20   C21   A    
C1    C29   S    
C17   C18   S    
C34   C45   A    
C42   C48   A    
C47   H8    S    
C60   O39   A    
C17   H23   S    
C6    C7    A    
C30   C35   A    
Cr2   O19   S    
C12   C69   A    
Cr3   O15   S    
C32   C38   A    
C22   C27   S    
C55   C57   S    
Cr3   O34   S    
C9    C34   A    
Cr6   O10   S    
H36   O32   S    
H33   O30   S    
C14   H19   S    
Cr2   O13   S    
C27   H42   S    
C52   O17   A    
C39   C62   S    
C40   O12   A    
C46   C47   S    
C11   C17   S    
Cr2   O35   S    
C28   O18   A    
C14   C19   A    
C28   O19   A    
C18   H34   S    
C12   C45   S    
C1    O13   A    
C36   H3    S    
H20   O22   S    
C37   H28   S    
C59   O38   A    
Cr2   O12   S    
C39   C44   A    
C28   C58   S    
C56   C67   A    
C50   C55   S    
Cr1   O1    S    
Cr5   O8    S    
C2    C3    A    
C7    O21   S    
H25   O25   S    
C5    C6    A    
C16   C19   S    
C43   H5    S    
C53   O28   S    
C33   C35   A    
Cr4   O37   S    
C60   O2    A    
C17   O22   S    
C42   C47   S    
C65   O5    A    
C69   C70   A    
C26   H40   S    
C63   O8    A    
C68   O32   S    
C10   C11   A    
C46   H7    S    
C48   C52   S    
Cr3   O16   S    
C49   C50   A    
Cr4   O11   S    
Cr3   O35   S    
C2    C23   A    
Cr6   O9    S    
C14   C15   A    
C15   H12   S    
C33   C38   A    
C4    C9    S    
C30   C63   S    
C10   C59   S    
H22   O24   S    
Cr5   O11   S    
C35   O25   S    
C4    O15   A    
