data_mof_unit_15384.cif
_audit_creation_date              2012-12-10T16:57:16-0500
_audit_creation_method            fapswitch 2.2
_symmetry_space_group_name_H-M    P1
_symmetry_Int_Tables_number       1
_space_group_crystal_system       triclinic
_cell_length_a                    15.928403
_cell_length_b                    10.873583
_cell_length_c                    9.684577
_cell_angle_alpha                 90.334281
_cell_angle_beta                  90.299906
_cell_angle_gamma                 91.114115
_cell_volume                      1676.98759905

loop_
_atom_site_label
_atom_site_type_symbol
_atom_type_description
_atom_site_fract_x
_atom_site_fract_y
_atom_site_fract_z
_atom_type_partial_charge
C1    C     C_R   0.501754 0.264305 0.499062 0.892471
C2    C     C_3   0.950867 0.446527 0.652812 0.547783
C3    C     C_3   0.915758 0.493177 0.505821 -0.267237
C4    C     C_3   0.951825 0.627788 0.477693 0.072938
C5    C     C_3   0.051112 0.633728 0.459496 0.622689
C6    C     C_1   0.823850 0.496734 0.504197 0.235705
C7    C     C_1   0.175183 0.498240 0.491959 0.217300
C8    C     C_1   0.250708 0.499147 0.495966 -0.100442
C9    C     C_2   0.460284 0.929515 0.386075 0.194897
C10   C     C_2   0.465134 0.863032 0.503457 0.071651
C11   C     C_2   0.482416 0.063204 0.381780 0.371407
C12   C     C_R   0.340229 0.499783 0.499303 0.862494
C13   C     C_2   0.500223 0.129812 0.497281 -0.408302
C14   C     C_2   0.445935 0.435796 0.922262 0.609085
C15   C     C_2   0.435933 0.466578 0.076008 -0.059021
C16   C     C_R   0.491055 0.734158 0.500290 0.805744
C17   C     C_R   0.659568 0.500399 0.500371 0.765645
C18   C     C_3   0.050159 0.461962 0.643146 0.084489
C19   C     C_3   0.043808 0.412085 0.374966 0.236038
C20   C     C_3   0.945841 0.406863 0.384776 0.191681
C21   C     C_1   0.748673 0.499005 0.501932 -0.102786
C22   C     C_3   0.082687 0.497977 0.492154 -0.251339
Cu1   Cu    Cu3+1 0.500020 0.500020 0.638630 1.073571
Cu2   Cu    Cu3+1 0.499980 0.499980 0.361370 1.015221
H1    H     H_    0.065329 0.545871 0.704301 0.204856
H2    H     H_    0.508669 0.086204 0.596034 0.187451
H3    H     H_    0.375320 0.454626 0.124661 0.145302
H4    H     H_    0.557364 0.494404 0.108241 0.198767
H5    H     H_    0.056982 0.459776 0.276333 0.139967
H6    H     H_    0.921351 0.445368 0.287565 0.064422
H7    H     H_    0.941604 0.673950 0.575383 0.220782
N1    N     N_2   0.499090 0.498660 0.846910 -0.054426
N2    N     N_2   0.499070 0.498630 0.153040 -0.252387
O1    O     O_R   0.500010 0.321960 0.617040 -0.547515
O2    O     O_R   0.499990 0.321920 0.382900 -0.545277
O3    O     O_R   0.379450 0.500030 0.617120 -0.531542
O4    O     O_R   0.379420 0.499980 0.382980 -0.562843
O5    O     O_R   0.500010 0.678080 0.617100 -0.522389
O6    O     O_R   0.499990 0.678040 0.382960 -0.531139
O7    O     O_R   0.620580 0.500020 0.617020 -0.600561
O8    O     O_R   0.620550 0.499970 0.382880 -0.606300
S1    S     S_3+6 0.911858 0.288770 0.692995 0.143016
O9    O     O_2   0.825400 0.267364 0.633637 -0.308262
O10   O     O_2   0.968537 0.192574 0.636441 -0.190275
O11   O     O_3   0.903623 0.263435 0.863707 -0.436780
H8    H     H_    0.882690 0.177404 0.871775 0.350529
S2    S     S_3+6 0.914953 0.540302 0.801044 -0.017472
O12   O     O_2   0.820720 0.545136 0.800706 -0.328905
O13   O     O_2   0.942942 0.483315 0.934138 -0.226182
O14   O     O_3   0.954481 0.685056 0.805027 -0.609821
H9    H     H_    0.928598 0.724106 0.886629 0.366290
O15   O     O_3   0.902058 0.704667 0.391230 -0.581265
C23   C     C_3   0.904864 0.685898 0.246471 0.178844
H10   H     H_    0.948136 0.615747 0.208967 0.186008
H11   H     H_    0.926230 0.773751 0.199009 0.168894
C24   C     C_3   0.817285 0.655714 0.191119 -0.832797
H12   H     H_    0.772643 0.726859 0.225110 0.248329
H13   H     H_    0.818773 0.653026 0.076661 0.249326
H14   H     H_    0.795306 0.564373 0.227911 0.236804
S3    S     S_3+6 0.407963 0.866072 0.238452 0.050335
O16   O     O_2   0.471427 0.821459 0.136674 -0.229083
O17   O     O_2   0.352283 0.760019 0.280542 -0.328559
O18   O     O_3   0.348890 0.972803 0.161797 -0.487324
H15   H     H_    0.306940 0.995760 0.232092 0.355052
S4    S     S_3+6 0.400558 0.901638 0.645562 -0.016623
O19   O     O_2   0.455391 0.928326 0.769378 -0.301476
O20   O     O_2   0.348118 0.011114 0.612286 -0.334367
O21   O     O_3   0.336337 0.781467 0.681250 -0.498182
H16   H     H_    0.307744 0.804604 0.767917 0.384494
O22   O     O_3   0.483580 0.119301 0.253523 -0.515414
C25   C     C_3   0.564227 0.104397 0.195982 0.098155
H17   H     H_    0.581964 0.005788 0.192228 0.150135
H18   H     H_    0.612428 0.157044 0.257076 0.121443
C26   C     C_3   0.564801 0.152722 0.049014 -0.697940
H19   H     H_    0.551785 0.252520 0.049251 0.213208
H20   H     H_    0.627363 0.138431 0.002144 0.193119
H21   H     H_    0.516393 0.103156 0.985927 0.289406
O23   O     O_3   0.400732 0.339320 0.858504 -0.588982
C27   C     C_3   0.348564 0.273186 0.951386 -0.089109
H22   H     H_    0.295733 0.331110 0.985650 0.200713
H23   H     H_    0.384574 0.240744 0.042621 0.203233
C28   C     C_3   0.311252 0.160025 0.880328 -0.495707
H24   H     H_    0.284271 0.184354 0.778579 0.278172
H25   H     H_    0.360989 0.091685 0.866169 0.291802
H26   H     H_    0.261060 0.118593 0.945375 0.209622
O24   O     O_3   0.520210 0.609673 0.902346 -0.479914
C29   C     C_3   0.606570 0.632056 0.880553 0.233591
H27   H     H_    0.617609 0.668037 0.775612 0.188637
H28   H     H_    0.644201 0.548023 0.897632 0.135270
C30   C     C_3   0.637644 0.731790 0.980143 -0.797615
H29   H     H_    0.630039 0.700939 0.088520 0.251287
H30   H     H_    0.704954 0.752913 0.960625 0.202794
H31   H     H_    0.601799 0.817184 0.964194 0.289345
S5    S     S_3+6 0.114709 0.357060 0.740886 0.075367
O25   O     O_2   0.070218 0.306186 0.864767 -0.152115
O26   O     O_2   0.143444 0.252628 0.652127 -0.256944
O27   O     O_3   0.198734 0.438151 0.799474 -0.546121
H32   H     H_    0.247831 0.400611 0.755203 0.372940
S6    S     S_3+6 0.092725 0.266750 0.333380 0.055597
O28   O     O_2   0.186711 0.275840 0.345265 -0.307041
O29   O     O_2   0.061271 0.162979 0.421210 -0.208967
O30   O     O_3   0.068216 0.233070 0.168180 -0.501301
H33   H     H_    0.097969 0.155991 0.147564 0.370089
O31   O     O_3   0.915403 0.283974 0.399498 -0.456212
C31   C     C_3   0.862247 0.246549 0.288875 0.168792
H34   H     H_    0.895960 0.253361 0.188702 0.196130
H35   H     H_    0.805272 0.304166 0.285430 0.103984
C32   C     C_3   0.834743 0.113218 0.309431 -0.708271
H36   H     H_    0.799535 0.103688 0.407568 0.260981
H37   H     H_    0.793364 0.082817 0.222583 0.165027
H38   H     H_    0.890532 0.053537 0.312925 0.268471
O32   O     O_3   0.089883 0.716855 0.556884 -0.614184
C33   C     C_3   0.063700 0.840074 0.545188 0.075878
H39   H     H_    0.046491 0.866707 0.438165 0.187751
H40   H     H_    0.008752 0.855158 0.612820 0.198733
C34   C     C_3   0.134879 0.924137 0.596045 -0.596137
H41   H     H_    0.112494 0.019343 0.606606 0.279577
H42   H     H_    0.157292 0.893618 0.698874 0.250956
H43   H     H_    0.187855 0.922419 0.521998 0.256369
O33   O     O_3   0.069110 0.669284 0.320637 -0.652861
C35   C     C_3   0.151696 0.710666 0.290831 0.075110
H44   H     H_    0.196539 0.707405 0.378391 0.204970
H45   H     H_    0.148800 0.808546 0.259384 0.174791
C36   C     C_3   0.183825 0.637063 0.167888 -0.680951
H46   H     H_    0.134790 0.630800 0.085970 0.272502
H47   H     H_    0.240129 0.682455 0.122907 0.263942
H48   H     H_    0.199999 0.542658 0.200232 0.238497

loop_
_geom_bond_atom_site_label_1
_geom_bond_atom_site_label_2
_ccdc_geom_bond_type
C29   H27   S    
C2    C18   S    
C19   C20   S    
C3    C6    S    
O27   H32   S    
C11   O22   S    
C7    C8    T    
S2    O13   D    
C20   H6    S    
C23   H10   S    
C34   H41   S    
C31   H35   S    
C26   H20   S    
C4    O15   S    
S3    O18   S    
C7    C22   S    
C23   C24   S    
Cu1   O7    S    
Cu1   O3    S    
Cu2   O6    S    
C32   H36   S    
S3    O17   D    
C12   O4    A    
O31   C31   S    
C35   C36   S    
C15   H3    S    
C5    C22   S    
S6    O28   D    
C34   H42   S    
O21   H16   S    
S4    O20   D    
C26   H21   S    
Cu1   Cu2   S    
O22   C25   S    
C12   O3    A    
C9    C10   D    
C33   C34   S    
Cu1   O1    S    
C18   C22   S    
Cu2   O8    S    
O30   H33   S    
C18   H1    S    
S1    O10   D    
O32   C33   S    
C1    O1    A    
O14   H9    S    
S2    O14   S    
C23   H11   S    
C31   C32   S    
Cu2   O2    S    
C26   H19   S    
C5    O33   S    
C19   C22   S    
C25   H18   S    
C19   S6    S    
O23   C27   S    
S5    O27   S    
O11   H8    S    
C6    C21   T    
C17   C21   S    
C27   H22   S    
S3    O16   D    
S1    O11   S    
C27   C28   S    
C30   H30   S    
S2    O12   D    
C14   C15   S    
C8    C12   S    
S4    O21   S    
N1    O24   S    
Cu2   O4    S    
C3    C20   S    
C32   H38   S    
S5    O26   D    
C9    C11   S    
C35   H44   S    
C36   H48   S    
S6    O29   D    
H4    N2    S    
C28   H24   S    
C28   H25   S    
C29   H28   S    
C18   S5    S    
C13   H2    S    
C1    C13   S    
C24   H12   S    
C3    C4    S    
C28   H26   S    
O15   C23   S    
C1    O2    A    
C30   H31   S    
C36   H47   S    
C33   H39   S    
C10   S4    S    
O24   C29   S    
C14   N1    D    
C4    C5    S    
C15   N2    D    
C25   C26   S    
C24   H14   S    
C20   O31   S    
C5    O32   S    
C2    S2    S    
Cu1   O5    S    
C31   H34   S    
C27   H23   S    
Cu2   N2    S    
C34   H43   S    
C9    S3    S    
Cu1   N1    S    
C2    C3    S    
C25   H17   S    
C10   C16   S    
C11   C13   D    
C30   H29   S    
C32   H37   S    
C2    S1    S    
C24   H13   S    
C14   O23   S    
S5    O25   D    
C17   O8    A    
C35   H45   S    
C4    H7    S    
C16   O6    A    
O18   H15   S    
S6    O30   S    
S4    O19   D    
S1    O9    D    
C29   C30   S    
O33   C35   S    
C17   O7    A    
C16   O5    A    
C36   H46   S    
C33   H40   S    
C19   H5    S    
