data_mof_unit_65808.cif
_audit_creation_date              2013-03-05T16:30:03-0500
_audit_creation_method            fapswitch 2.2
_symmetry_space_group_name_H-M    P1
_symmetry_Int_Tables_number       1
_space_group_crystal_system       triclinic
_cell_length_a                    41.860139
_cell_length_b                    35.678529
_cell_length_c                    21.912712
_cell_angle_alpha                 90.238523
_cell_angle_beta                  121.487019
_cell_angle_gamma                 89.839564
_cell_volume                      27907.8207241

loop_
_atom_site_label
_atom_site_type_symbol
_atom_site_description
_atom_site_fract_x
_atom_site_fract_y
_atom_site_fract_z
_atom_type_partial_charge
O1    O     O_R   0.445630 0.531460 0.945630 -0.518003
O2    O     O_R   0.554370 0.531460 0.054370 -0.518012
O3    O     O_R   0.945630 0.031460 0.945630 -0.547993
O4    O     O_R   0.054370 0.031460 0.054370 -0.515694
O5    O     O_R   0.445610 0.468530 0.945600 -0.599421
O6    O     O_R   0.554390 0.468530 0.054400 -0.599438
O7    O     O_R   0.945610 0.968530 0.945600 -0.570449
O8    O     O_R   0.054390 0.968530 0.054400 -0.601537
C1    C     C_R   0.427713 0.500022 0.926146 0.877681
C2    C     C_R   0.572282 0.500007 0.073867 0.878367
C3    C     C_R   0.927703 0.000020 0.925947 0.875879
C4    C     C_R   0.072282 0.000006 0.073865 0.878786
O9    O     O_R   0.500010 0.531460 0.910980 -0.525474
O10   O     O_R   0.499990 0.531460 0.089020 -0.525146
O11   O     O_R   0.000010 0.031460 0.910980 -0.523417
O12   O     O_R   0.999990 0.031460 0.089020 -0.566673
O13   O     O_R   0.499990 0.468530 0.910950 -0.594589
O14   O     O_R   0.500010 0.468530 0.089050 -0.594547
O15   O     O_R   0.999990 0.968530 0.910950 -0.596772
O16   O     O_R   0.000010 0.968530 0.089050 -0.552180
C5    C     C_R   0.502063 0.499813 0.884552 0.896233
C6    C     C_R   0.497947 0.499947 0.115461 0.896382
C7    C     C_R   0.002064 0.999813 0.884553 0.895083
C8    C     C_R   0.997916 0.000181 0.115425 0.902332
Cu1   Cu    Cu3+1 0.500000 0.537250 0.000000 1.184917
Cu2   Cu    Cu3+1 0.000000 0.037250 0.000000 1.163446
Cu3   Cu    Cu3+1 0.500000 0.462730 0.000000 1.048631
Cu4   Cu    Cu3+1 0.000000 0.962730 0.000000 1.068336
C9    C     C_R   0.476440 0.673176 0.516106 -0.157998
C10   C     C_R   0.523317 0.672927 0.483336 -0.157357
C11   C     C_R   0.976757 0.173202 0.516574 -0.156384
C12   C     C_R   0.023076 0.172854 0.482380 -0.155594
H1    H     H_    0.458676 0.688741 0.529616 0.213419
H2    H     H_    0.540975 0.688288 0.469538 0.214770
H3    H     H_    0.959220 0.188806 0.530599 0.213255
H4    H     H_    0.040524 0.188181 0.468021 0.214895
C13   C     C_R   0.999911 0.386216 0.499458 -0.127117
C14   C     C_R   0.499857 0.886221 0.499428 -0.127178
C15   C     C_1   0.499600 0.732837 0.498928 0.098387
C16   C     C_1   0.999703 0.232819 0.498716 0.098962
C17   C     C_R   0.499970 0.613661 0.499970 -0.264778
C18   C     C_R   0.999972 0.113643 0.499831 -0.265183
C19   C     C_2   0.529323 0.515814 0.744961 -0.203714
C20   C     C_2   0.470784 0.516228 0.255388 -0.203947
C21   C     C_2   0.029316 0.015819 0.744953 -0.203072
C22   C     C_2   0.970694 0.984338 0.255071 -0.190717
C23   C     C_2   0.499017 0.505155 0.682902 -0.212457
C24   C     C_2   0.501011 0.505291 0.317221 -0.211881
C25   C     C_2   0.999017 0.005138 0.682903 -0.212660
C26   C     C_2   0.000999 0.994975 0.317122 -0.241556
H5    H     H_    0.555084 0.522716 0.746764 0.174110
H6    H     H_    0.445047 0.523253 0.253706 0.173933
H7    H     H_    0.055072 0.022739 0.746747 0.174100
H8    H     H_    0.944901 0.977496 0.253197 0.198249
H9    H     H_    0.472169 0.501311 0.678507 0.163913
H10   H     H_    0.527862 0.501349 0.321609 0.164114
H11   H     H_    0.972172 0.001278 0.678511 0.163521
H12   H     H_    0.027851 0.998802 0.321516 0.168670
C27   C     C_2   0.528705 0.520161 0.811464 -0.000616
C28   C     C_2   0.471448 0.520629 0.188979 -0.000714
C29   C     C_2   0.028696 0.020170 0.811453 -0.000359
C30   C     C_2   0.971411 0.979763 0.188752 -0.024078
C31   C     C_2   0.505475 0.498419 0.821736 -0.263238
C32   C     C_2   0.494647 0.498812 0.178399 -0.262778
C33   C     C_2   0.005479 0.998417 0.821740 -0.264636
C34   C     C_2   0.994481 0.001613 0.178216 -0.283750
H13   H     H_    0.489885 0.476007 0.784182 0.148306
H14   H     H_    0.510205 0.476371 0.215658 0.147903
H15   H     H_    0.989903 0.975994 0.784204 0.147874
H16   H     H_    0.009880 0.024188 0.215512 0.170799
C35   C     C_R   0.173520 0.476517 0.714734 -0.103123
C36   C     C_R   0.826468 0.476812 0.284568 -0.103858
C37   C     C_R   0.673570 0.976422 0.714221 -0.102380
C38   C     C_R   0.326469 0.976810 0.284559 -0.103791
C39   C     C_R   0.133840 0.475189 0.673957 -0.080999
C40   C     C_R   0.866153 0.475512 0.325201 -0.080190
C41   C     C_R   0.633885 0.975136 0.673673 -0.080937
C42   C     C_R   0.366154 0.975512 0.325195 -0.080034
C43   C     C_R   0.113751 0.499201 0.614067 -0.156272
C44   C     C_R   0.886231 0.499218 0.385879 -0.156501
C45   C     C_R   0.613737 0.999266 0.613997 -0.156633
C46   C     C_R   0.386231 0.999216 0.385878 -0.156418
C47   C     C_R   0.133309 0.524299 0.595444 0.234662
C48   C     C_R   0.866637 0.524033 0.405309 0.233910
C49   C     C_R   0.633227 0.024495 0.595445 0.234614
C50   C     C_R   0.366635 0.024026 0.405310 0.233881
C51   C     C_R   0.172792 0.526260 0.636594 -0.084236
C52   C     C_R   0.827150 0.525987 0.364275 -0.084317
C53   C     C_R   0.672707 0.026458 0.636442 -0.084235
C54   C     C_R   0.327148 0.025979 0.364275 -0.084349
C55   C     C_R   0.192789 0.501950 0.695852 -0.013229
C56   C     C_R   0.807178 0.501949 0.304298 -0.013432
C57   C     C_R   0.692768 0.001992 0.695414 -0.013351
C58   C     C_R   0.307177 0.001944 0.304292 -0.013439
C59   C     C_1   0.233359 0.501101 0.735156 0.084405
C60   C     C_1   0.766613 0.501078 0.265028 0.084257
C61   C     C_1   0.733327 0.001139 0.734485 0.084418
C62   C     C_1   0.266613 0.001071 0.265018 0.084255
C63   C     C_1   0.267089 0.499954 0.767852 0.115186
C64   C     C_1   0.732887 0.499912 0.232317 0.114928
C65   C     C_1   0.767050 0.999973 0.767019 0.115581
C66   C     C_1   0.232887 0.999904 0.232306 0.115013
C67   C     C_R   0.327732 0.468873 0.852992 0.353030
C68   C     C_R   0.672302 0.468796 0.146816 0.352851
C69   C     C_R   0.827627 0.968308 0.850403 0.342368
C70   C     C_R   0.172300 0.968795 0.146792 0.353043
C71   C     C_R   0.367023 0.470153 0.891315 -0.253758
C72   C     C_R   0.633007 0.470078 0.108486 -0.253578
C73   C     C_R   0.866915 0.969549 0.888800 -0.231251
C74   C     C_R   0.133005 0.970078 0.108464 -0.253928
H17   H     H_    0.382731 0.447627 0.927953 0.212146
H18   H     H_    0.617328 0.447545 0.071599 0.212010
H19   H     H_    0.882537 0.946512 0.923967 0.236824
H20   H     H_    0.117324 0.947549 0.071569 0.211774
C75   C     C_R   0.386293 0.499911 0.882866 -0.190210
C76   C     C_R   0.613694 0.499863 0.117208 -0.189883
C77   C     C_R   0.886260 0.999886 0.882244 -0.210092
C78   C     C_R   0.113694 0.999861 0.117200 -0.189672
C79   C     C_R   0.365603 0.529029 0.834194 0.327781
C80   C     C_R   0.634329 0.529000 0.166183 0.327508
C81   C     C_R   0.865601 0.029514 0.834960 0.317798
C82   C     C_R   0.134331 0.028992 0.166188 0.328271
C83   C     C_R   0.326381 0.528361 0.797729 -0.206581
C84   C     C_R   0.673551 0.528322 0.202689 -0.206809
C85   C     C_R   0.826377 0.028822 0.798347 -0.206148
C86   C     C_R   0.173553 0.028313 0.202691 -0.207059
H21   H     H_    0.310482 0.550741 0.760770 0.224365
H22   H     H_    0.689412 0.550716 0.239886 0.224376
H23   H     H_    0.810517 0.051608 0.762523 0.224781
H24   H     H_    0.189415 0.050703 0.239898 0.224380
C87   C     C_R   0.307396 0.498687 0.806495 -0.068024
C88   C     C_R   0.692585 0.498628 0.193638 -0.068097
C89   C     C_R   0.807346 0.998660 0.805539 -0.067988
C90   C     C_R   0.192585 0.998623 0.193626 -0.068072
C91   C     C_R   0.499831 0.692564 0.499590 -0.028680
C92   C     C_R   0.999894 0.192542 0.499351 -0.028630
C93   C     C_R   0.476594 0.633873 0.517658 0.281073
C94   C     C_R   0.523313 0.633622 0.482192 0.280548
C95   C     C_R   0.976881 0.133902 0.518165 0.280984
C96   C     C_R   0.023030 0.133542 0.481267 0.282380
C97   C     C_1   0.999450 0.266573 0.497908 0.169054
C98   C     C_1   0.499340 0.766587 0.498067 0.168771
C99   C     C_R   0.999017 0.307063 0.496652 -0.086250
C100  C     C_R   0.498917 0.807073 0.496730 -0.086367
O17   O     O_R   0.531450 0.445630 0.531430 -0.557048
O18   O     O_R   0.468550 0.445630 0.468570 -0.556912
O19   O     O_R   0.031450 0.945630 0.531430 -0.558112
O20   O     O_R   0.968550 0.945630 0.468570 -0.559652
C101  C     C_R   0.500012 0.427779 0.500038 0.913913
C102  C     C_R   0.000010 0.927767 0.500087 0.908553
O21   O     O_R   0.531450 0.499990 0.620480 -0.572851
O22   O     O_R   0.468550 0.499990 0.379520 -0.573014
O23   O     O_R   0.031450 0.999990 0.620480 -0.572569
O24   O     O_R   0.968550 0.999990 0.379520 -0.575774
O25   O     O_R   0.468510 0.499990 0.557540 -0.568562
O26   O     O_R   0.531490 0.499990 0.442460 -0.568170
O27   O     O_R   0.968510 0.999990 0.557540 -0.569183
O28   O     O_R   0.031490 0.999990 0.442460 -0.566987
C103  C     C_R   0.499885 0.501321 0.617552 0.915384
C104  C     C_R   0.500116 0.501335 0.382470 0.914788
C105  C     C_R   0.999885 0.001308 0.617553 0.914446
C106  C     C_R   0.000120 0.998738 0.382453 0.922350
Cu5   Cu    Cu3+1 0.537260 0.499990 0.537250 1.109112
Cu6   Cu    Cu3+1 0.462740 0.499990 0.462750 1.109738
Cu7   Cu    Cu3+1 0.037260 0.999990 0.537250 1.109282
Cu8   Cu    Cu3+1 0.962740 0.999990 0.462750 1.109725
O29   O     O_R   0.531470 0.554350 0.531480 -0.561723
O30   O     O_R   0.468530 0.554350 0.468520 -0.561216
O31   O     O_R   0.031470 0.054350 0.531480 -0.562225
O32   O     O_R   0.968530 0.054350 0.468520 -0.555786
C107  C     C_R   0.499990 0.572226 0.500011 0.895567
C108  C     C_R   0.999989 0.072220 0.499995 0.904439
O33   O     O_R   0.999980 0.445730 0.448470 -0.566169
O34   O     O_R   0.000020 0.445730 0.551530 -0.561026
O35   O     O_R   0.499980 0.945730 0.448470 -0.566133
O36   O     O_R   0.500020 0.945730 0.551530 -0.561190
C109  C     C_R   0.000030 0.427849 0.499908 0.981294
C110  C     C_R   0.500018 0.927851 0.499899 0.981376
O37   O     O_R   0.054370 0.500090 0.502830 -0.517841
O38   O     O_R   0.945630 0.500090 0.497170 -0.516741
O39   O     O_R   0.554370 0.000090 0.502830 -0.518111
O40   O     O_R   0.445630 0.000090 0.497170 -0.516766
O41   O     O_R   0.054360 0.500110 0.605880 -0.602172
O42   O     O_R   0.945640 0.500110 0.394120 -0.601994
O43   O     O_R   0.554360 0.000110 0.605880 -0.601891
O44   O     O_R   0.445640 0.000110 0.394120 -0.602038
C111  C     C_R   0.072199 0.499602 0.572224 0.921718
C112  C     C_R   0.927794 0.499607 0.427754 0.923915
C113  C     C_R   0.572194 0.999616 0.572215 0.922281
C114  C     C_R   0.427794 0.999607 0.427754 0.923888
Cu9   Cu    Cu3+1 0.000000 0.500090 0.438970 1.097017
Cu10  Cu    Cu3+1 0.000000 0.500090 0.561030 1.099881
Cu11  Cu    Cu3+1 0.500000 0.000090 0.438970 1.096933
Cu12  Cu    Cu3+1 0.500000 0.000090 0.561030 1.100012
O45   O     O_R   0.000010 0.554450 0.448450 -0.581672
O46   O     O_R   0.999990 0.554450 0.551550 -0.581776
O47   O     O_R   0.500010 0.054450 0.448450 -0.581702
O48   O     O_R   0.499990 0.054450 0.551550 -0.581668
C115  C     C_R   0.000010 0.572359 0.500126 0.847706
C116  C     C_R   0.499995 0.072362 0.500102 0.848060
C117  C     C_R   0.000337 0.672984 0.444966 -0.021951
C118  C     C_R   0.000016 0.673015 0.556895 -0.022326
C119  C     C_R   0.500122 0.172944 0.444508 -0.022462
C120  C     C_R   0.499858 0.173086 0.556491 -0.022230
C121  C     C_R   0.000304 0.633695 0.445709 -0.217549
C122  C     C_R   0.999907 0.633720 0.555525 -0.217797
C123  C     C_R   0.500160 0.133655 0.445436 -0.217131
C124  C     C_R   0.499826 0.133785 0.555311 -0.217648
H25   H     H_    0.000447 0.618438 0.402967 0.163049
H26   H     H_    0.999719 0.618483 0.598034 0.163112
H27   H     H_    0.500303 0.118360 0.402730 0.163039
H28   H     H_    0.499686 0.118587 0.597903 0.163030
C125  C     C_R   0.000065 0.613840 0.500453 0.009370
C126  C     C_R   0.499993 0.113849 0.500303 0.009697
C127  C     C_R   0.000207 0.693007 0.501082 0.072276
C128  C     C_R   0.499988 0.193026 0.500563 0.072351
C129  C     C_1   0.000213 0.733497 0.501315 0.136684
C130  C     C_1   0.499991 0.233524 0.500664 0.137030
C131  C     C_1   0.499995 0.267291 0.500634 0.117101
C132  C     C_1   0.000185 0.767260 0.501344 0.117377
C133  C     C_R   0.477455 0.326905 0.436787 -0.161676
C134  C     C_R   0.522575 0.327195 0.564031 -0.162006
C135  C     C_R   0.977043 0.826788 0.437584 -0.164275
C136  C     C_R   0.023102 0.827231 0.564359 -0.162730
H29   H     H_    0.460440 0.311318 0.387549 0.204489
H30   H     H_    0.539587 0.311843 0.613389 0.204299
H31   H     H_    0.959681 0.811151 0.388559 0.203496
H32   H     H_    0.040499 0.811937 0.613630 0.204080
C137  C     C_R   0.477556 0.366200 0.435472 0.284620
C138  C     C_R   0.522511 0.366499 0.565030 0.284834
C139  C     C_R   0.977073 0.866070 0.436084 0.294059
C140  C     C_R   0.022984 0.866538 0.565199 0.284201
C141  C     C_R   0.500037 0.386400 0.500176 -0.266624
C142  C     C_R   0.000033 0.886368 0.500450 -0.265237
C143  C     C_R   0.500000 0.307549 0.500491 -0.018530
C144  C     C_R   0.000104 0.807512 0.501122 -0.018724
C145  C     C_R   0.975328 0.326621 0.513219 0.258769
C146  C     C_R   0.023434 0.326502 0.482069 0.252640
C147  C     C_R   0.475253 0.826669 0.513307 0.258759
C148  C     C_R   0.523323 0.826469 0.482057 0.252612
C149  C     C_R   0.974924 0.366179 0.513167 -0.143283
C150  C     C_R   0.024539 0.366069 0.484617 -0.150203
C151  C     C_R   0.474871 0.866225 0.513198 -0.143324
C152  C     C_R   0.524449 0.866035 0.484548 -0.150291
N1    N     N_R   0.309235 0.437312 0.862075 0.129024
O49   O     O_R   0.325635 0.418685 0.921847 -0.303024
O50   O     O_R   0.278106 0.424354 0.808411 -0.321650
N2    N     N_R   0.690851 0.437230 0.137374 0.129275
O51   O     O_R   0.674436 0.418523 0.077466 -0.302696
O52   O     O_R   0.722088 0.424377 0.190803 -0.321987
N3    N     N_R   0.809087 0.936257 0.857849 0.129215
O53   O     O_R   0.825526 0.916708 0.916532 -0.300704
O54   O     O_R   0.777803 0.923916 0.803686 -0.321130
N4    N     N_R   0.190847 0.937232 0.137334 0.129247
O55   O     O_R   0.174430 0.918531 0.077420 -0.302961
O56   O     O_R   0.222085 0.924375 0.190756 -0.322147
N5    N     N_R   0.383641 0.558383 0.818477 0.146268
O57   O     O_R   0.369940 0.592188 0.805898 -0.288193
O58   O     O_R   0.409440 0.550197 0.804359 -0.336776
N6    N     N_R   0.616233 0.558391 0.182140 0.146198
O59   O     O_R   0.629933 0.592177 0.195215 -0.288373
O60   O     O_R   0.590344 0.550261 0.195913 -0.336809
N7    N     N_R   0.883667 0.059445 0.820697 0.145949
O61   O     O_R   0.870116 0.093272 0.810168 -0.292659
O62   O     O_R   0.909209 0.051911 0.805555 -0.331037
N8    N     N_R   0.116237 0.058377 0.182162 0.146806
O63   O     O_R   0.129937 0.092164 0.195250 -0.288015
O64   O     O_R   0.090353 0.050239 0.195943 -0.340392
N9    N     N_R   0.453977 0.615146 0.539894 0.145663
O65   O     O_R   0.421719 0.629141 0.523555 -0.287616
O66   O     O_R   0.467895 0.587771 0.585626 -0.364594
N10   N     N_R   0.546001 0.614624 0.460144 0.146119
O67   O     O_R   0.578294 0.628480 0.476683 -0.288774
O68   O     O_R   0.532098 0.587164 0.414284 -0.364008
N11   N     N_R   0.954518 0.115223 0.541046 0.145342
O69   O     O_R   0.922411 0.129305 0.525460 -0.286223
O70   O     O_R   0.968555 0.087769 0.586578 -0.366536
N12   N     N_R   0.045385 0.114471 0.458498 0.146253
O71   O     O_R   0.077456 0.128414 0.473848 -0.289581
O72   O     O_R   0.031374 0.086731 0.413293 -0.357868
C153  C     C_2   0.000496 0.691220 0.384025 0.406973
H33   H     H_    0.000762 0.673919 0.343405 0.092427
O73   O     O_2   0.000303 0.725197 0.377715 -0.525763
C154  C     C_2   0.999929 0.691289 0.618123 0.407993
H34   H     H_    0.999531 0.674015 0.658409 0.092491
O74   O     O_2   0.000346 0.725269 0.625048 -0.524563
C155  C     C_2   0.500214 0.191113 0.383445 0.408014
H35   H     H_    0.500494 0.173765 0.342888 0.092508
O75   O     O_2   0.499944 0.225082 0.376962 -0.524960
C156  C     C_2   0.499762 0.191426 0.617656 0.408302
H36   H     H_    0.499524 0.174193 0.658152 0.092540
O76   O     O_2   0.499976 0.225414 0.624280 -0.524680
N13   N     N_R   0.455808 0.384933 0.367784 0.143987
O77   O     O_R   0.424097 0.370723 0.318121 -0.302164
O78   O     O_R   0.470071 0.412715 0.351567 -0.361441
N14   N     N_R   0.544282 0.385560 0.632565 0.143895
O79   O     O_R   0.576052 0.371495 0.682223 -0.302071
O80   O     O_R   0.529971 0.413495 0.648724 -0.362150
N15   N     N_R   0.954809 0.884691 0.368460 0.139709
O81   O     O_R   0.922741 0.870626 0.319885 -0.315337
O82   O     O_R   0.968953 0.912015 0.350942 -0.390296
N16   N     N_R   0.045179 0.885672 0.632522 0.144507
O83   O     O_R   0.077206 0.871737 0.681471 -0.302291
O84   O     O_R   0.031057 0.913492 0.649384 -0.360832
N17   N     N_R   0.950757 0.306063 0.528201 0.110603
O85   O     O_R   0.956830 0.305736 0.592790 -0.327668
O86   O     O_R   0.925138 0.284282 0.479612 -0.300551
N18   N     N_R   0.048322 0.305847 0.467538 0.110250
O87   O     O_R   0.084392 0.310395 0.507823 -0.297669
O88   O     O_R   0.035095 0.281075 0.416307 -0.321083
N19   N     N_R   0.450688 0.806152 0.528360 0.110690
O89   O     O_R   0.456779 0.805872 0.592963 -0.327732
O90   O     O_R   0.425055 0.784359 0.479827 -0.301336
N20   N     N_R   0.548179 0.805771 0.467500 0.110225
O91   O     O_R   0.584253 0.810305 0.507727 -0.297626
O92   O     O_R   0.534918 0.780976 0.416307 -0.322188
C157  C     C_2   0.946498 0.385537 0.523559 0.488959
H37   H     H_    0.938106 0.373659 0.558508 0.132936
O93   O     O_2   0.930795 0.414002 0.490780 -0.510879
C158  C     C_2   0.051695 0.385428 0.471072 0.516843
H38   H     H_    0.057758 0.373983 0.432233 0.114641
O94   O     O_2   0.068773 0.413187 0.505109 -0.504432
C159  C     C_2   0.446465 0.885625 0.523596 0.488814
H39   H     H_    0.438093 0.873791 0.558607 0.132872
O95   O     O_2   0.430758 0.914074 0.490754 -0.510960
C160  C     C_2   0.551590 0.885349 0.470902 0.516908
H40   H     H_    0.557615 0.873869 0.432037 0.114475
O96   O     O_2   0.568697 0.913110 0.504883 -0.504156
C161  C     C_2   0.556757 0.546338 0.866101 0.436312
H41   H     H_    0.568732 0.568047 0.849512 0.086844
O97   O     O_2   0.568169 0.543073 0.929696 -0.533441
C162  C     C_2   0.443437 0.546887 0.134729 0.436735
H42   H     H_    0.431429 0.568576 0.151615 0.087586
O98   O     O_2   0.432104 0.543728 0.071110 -0.533102
C163  C     C_2   0.056732 0.046365 0.866070 0.437130
H43   H     H_    0.068683 0.068088 0.849461 0.086800
O99   O     O_2   0.068158 0.043101 0.929670 -0.532957
C164  C     C_2   0.943661 0.953182 0.134684 0.442386
H44   H     H_    0.931797 0.931550 0.151670 0.113944
O100  O     O_2   0.932375 0.956003 0.071093 -0.545141
C165  C     C_2   0.195622 0.450945 0.776832 0.432469
H45   H     H_    0.221653 0.460552 0.823085 0.104670
O101  O     O_2   0.185888 0.418611 0.775867 -0.468576
C166  C     C_2   0.804382 0.451504 0.221720 0.431750
H46   H     H_    0.778278 0.461204 0.175850 0.104498
O102  O     O_2   0.814217 0.419263 0.221633 -0.469906
C167  C     C_2   0.695749 0.950644 0.775945 0.432264
H47   H     H_    0.721906 0.960083 0.822100 0.102968
O103  O     O_2   0.685937 0.918318 0.774751 -0.469214
C168  C     C_2   0.304386 0.951505 0.221706 0.431629
H48   H     H_    0.278282 0.961206 0.175836 0.104562
O104  O     O_2   0.314222 0.919266 0.221613 -0.470220
C169  C     C_2   0.113772 0.449021 0.695354 0.515070
H49   H     H_    0.123325 0.445423 0.751503 0.085115
O105  O     O_2   0.087311 0.430371 0.650932 -0.501292
C170  C     C_2   0.886211 0.449730 0.302748 0.513849
H50   H     H_    0.876638 0.446614 0.246454 0.084552
O106  O     O_2   0.912667 0.430850 0.346388 -0.501940
C171  C     C_2   0.613880 0.948896 0.695094 0.514782
H51   H     H_    0.623560 0.945155 0.751270 0.085084
O107  O     O_2   0.587328 0.930349 0.650658 -0.501509
C172  C     C_2   0.386215 0.949735 0.302737 0.513691
H52   H     H_    0.376642 0.946625 0.246443 0.084484
O108  O     O_2   0.412669 0.930853 0.346372 -0.502115
N21   N     N_R   0.112731 0.549586 0.536715 0.099619
O109  O     O_R   0.111007 0.543702 0.476434 -0.326850
O110  O     O_R   0.093304 0.576672 0.541609 -0.374015
N22   N     N_R   0.887176 0.549079 0.464762 0.099854
O111  O     O_R   0.888943 0.542803 0.524894 -0.326664
O112  O     O_R   0.906522 0.576346 0.460613 -0.373729
N23   N     N_R   0.612580 0.049897 0.536947 0.099471
O113  O     O_R   0.610804 0.044225 0.476564 -0.327007
O114  O     O_R   0.593140 0.076868 0.542141 -0.374361
N24   N     N_R   0.387172 0.049070 0.464767 0.099880
O115  O     O_R   0.388940 0.042789 0.524898 -0.326634
O116  O     O_R   0.406514 0.076342 0.460622 -0.373631
C173  C     C_2   0.192187 0.554598 0.616974 0.455302
H53   H     H_    0.177623 0.567611 0.564665 0.142722
O117  O     O_2   0.224233 0.564727 0.659220 -0.529584
C174  C     C_2   0.807719 0.554037 0.384796 0.455114
H54   H     H_    0.822266 0.566764 0.437516 0.142749
O118  O     O_2   0.775662 0.564249 0.342871 -0.529661
C175  C     C_2   0.692036 0.054949 0.616962 0.455552
H55   H     H_    0.677404 0.068118 0.564800 0.142768
O119  O     O_2   0.724102 0.065033 0.659179 -0.529709
C176  C     C_2   0.307715 0.054024 0.384799 0.455276
H56   H     H_    0.322259 0.066746 0.437524 0.142753
O120  O     O_2   0.275658 0.064239 0.342871 -0.529565

loop_
_geom_bond_atom_site_label_1
_geom_bond_atom_site_label_2
_geom_bond_distance
_ccdc_geom_bond_type
O1    Cu1   1.951938 S    
C10   C94   1.402470 A    
C51   C55   1.417387 A    
O44   Cu11  1.951345 S    
C120  C156  1.490923 S    
C37   C57   1.414636 A    
C74   C78   1.405142 A    
C147  N19   1.436185 S    
C118  C154  1.490967 S    
C50   N24   1.435088 S    
C94   N10   1.438003 S    
C22   C30   1.477483 S    
C154  H34   1.086018 S    
C59   C63   1.204917 T    
C133  H29   1.084039 S    
C148  C152  1.412470 A    
O20   Cu8   1.950393 S    
C70   N4    1.440537 S    
N4    O56   1.301034 A    
C120  C124  1.402338 A    
N10   O67   1.301365 A    
C124  C126  1.400199 A    
C155  O75   1.220201 D    
C160  H40   1.085174 S    
O40   Cu12  1.952221 S    
O4    C4    1.291806 A    
N1    O49   1.301488 A    
C136  H32   1.084034 S    
N22   O111  1.300900 A    
C169  O105  1.220496 D    
N2    O52   1.301040 A    
Cu7   O31   1.950315 S    
C10   C91   1.394277 A    
Cu9   Cu10  2.674666 S    
C96   N12   1.438352 S    
Cu6   O30   1.950618 S    
O19   C102  1.291033 A    
C50   C54   1.411673 A    
C163  O99   1.220372 D    
C30   C34   1.353604 D    
C140  N16   1.438409 S    
O16   Cu4   1.961195 S    
N20   O91   1.301237 A    
C102  C142  1.477084 S    
C18   C96   1.420397 A    
O33   Cu9   1.951539 S    
O13   C5    1.283051 A    
O7    Cu4   1.952391 S    
O23   C105  1.289720 A    
C54   C176  1.496349 S    
O44   C114  1.294942 A    
O15   C7    1.283043 A    
C38   C168  1.493636 S    
C146  N18   1.438783 S    
C124  H28   1.084022 S    
C140  C142  1.420312 A    
O42   Cu9   1.951345 S    
O9    C5    1.289836 A    
O34   C109  1.296539 A    
C45   C113  1.482987 S    
C17   C94   1.420416 A    
N14   O79   1.301382 A    
C9    C91   1.394387 A    
C79   C83   1.401563 A    
N9    O66   1.301047 A    
O8    Cu4   1.952683 S    
C98   C100  1.444761 S    
C175  H55   1.083479 S    
C84   H22   1.084349 S    
C9    C93   1.402732 A    
C69   C89   1.411304 A    
C119  C155  1.491054 S    
N7    O62   1.301446 A    
O3    Cu2   1.951938 S    
C48   C52   1.411675 A    
C11   C92   1.394402 A    
C64   C88   1.439795 S    
C65   C89   1.439631 S    
C27   C31   1.353612 D    
O29   C107  1.291709 A    
C28   C32   1.353607 D    
C30   C164  1.487170 S    
N21   O109  1.300891 A    
C34   H16   1.085944 S    
C139  C142  1.420161 A    
C168  H48   1.085168 S    
O3    C3    1.292297 A    
C163  H43   1.085421 S    
C85   H23   1.084359 S    
O37   Cu9   1.952218 S    
C86   C90   1.398244 A    
Cu11  Cu12  2.674666 S    
C171  H51   1.085033 S    
C51   C173  1.496338 S    
C86   H24   1.084348 S    
C147  C151  1.411358 A    
O40   C114  1.298064 A    
C39   C43   1.419837 A    
O35   Cu11  1.951539 S    
C20   C24   1.341586 D    
O28   Cu7   1.961793 S    
C158  O94   1.220288 D    
C174  H54   1.083479 S    
C9    H1    1.084083 S    
C26   C106  1.456777 S    
C99   C145  1.404313 A    
C66   C90   1.439793 S    
C23   C103  1.457160 S    
C81   C85   1.401498 A    
C14   C151  1.424640 A    
C17   C107  1.478309 S    
C67   N1    1.440416 S    
C172  O108  1.220459 D    
C12   H4    1.084089 S    
C128  C130  1.444884 S    
C135  H31   1.084081 S    
C172  H52   1.085047 S    
C56   C60   1.448610 S    
C25   H11   1.085719 S    
C84   C88   1.398246 A    
N5    O57   1.301311 A    
C78   C82   1.416306 A    
O27   C105  1.285348 A    
N24   O115  1.300901 A    
O19   Cu7   1.950692 S    
O5    Cu3   1.952391 S    
O30   C107  1.291903 A    
N17   O86   1.301015 A    
C116  C126  1.480169 S    
C121  H25   1.084051 S    
C74   H20   1.083433 S    
C25   C105  1.457151 S    
C19   C27   1.478442 S    
C20   H6    1.087201 S    
O36   C110  1.296472 A    
C21   H7    1.087203 S    
C159  H39   1.083528 S    
C16   C97   1.204415 T    
C123  H27   1.084014 S    
C161  O97   1.220387 D    
C95   N11   1.438217 S    
O46   C115  1.298100 A    
N18   O88   1.301198 A    
O45   C115  1.297877 A    
C165  O101  1.220982 D    
N16   O84   1.301142 A    
C13   C149  1.424621 A    
C10   H2    1.084107 S    
O25   C103  1.285350 A    
O13   Cu3   1.962911 S    
C131  C143  1.436374 S    
O26   C104  1.285258 A    
C162  H42   1.085409 S    
O17   Cu5   1.950692 S    
O18   Cu6   1.950393 S    
C123  C126  1.400279 A    
C101  C141  1.476354 S    
C76   C80   1.416310 A    
C159  O95   1.220062 D    
O21   C103  1.289734 A    
O5    C1    1.292717 A    
N13   O77   1.301386 A    
C29   C33   1.353605 D    
C122  H26   1.084049 S    
C83   H21   1.084342 S    
O8    C4    1.292708 A    
C71   C75   1.405222 A    
C170  O106  1.220457 D    
C44   C112  1.483762 S    
O15   Cu4   1.962911 S    
C48   N22   1.435091 S    
N8    O64   1.301435 A    
Cu8   O32   1.950618 S    
C164  O100  1.219957 D    
N19   O90   1.301014 A    
C38   C42   1.417524 A    
C80   N6    1.436970 S    
C57   C61   1.448426 S    
C2    C76   1.478911 S    
C82   N8    1.436950 S    
C69   C73   1.403278 A    
C37   C41   1.417538 A    
O23   Cu7   1.961819 S    
O14   C6    1.282606 A    
C71   H17   1.083423 S    
O24   C106  1.289768 A    
C40   C44   1.420174 A    
N6    O59   1.301319 A    
O48   C116  1.298321 A    
C47   N21   1.435080 S    
O43   C113  1.294979 A    
C153  O73   1.220221 D    
C13   C109  1.485404 S    
C120  C128  1.422099 A    
C75   C79   1.416375 A    
C145  C149  1.411437 A    
O10   C6    1.290307 A    
C154  O74   1.220206 D    
Cu12  O48   1.951413 S    
C19   C23   1.341477 D    
C60   C64   1.204850 T    
C36   C166  1.493636 S    
C53   C57   1.417304 A    
Cu9   O45   1.949696 S    
C173  O117  1.220571 D    
C135  C144  1.394129 A    
C55   C59   1.448714 S    
C70   C90   1.411542 A    
C166  H46   1.085167 S    
C134  C138  1.402388 A    
N10   O68   1.300975 A    
C117  C121  1.401967 A    
N12   O71   1.301376 A    
C160  O96   1.220288 D    
C67   C87   1.411436 A    
C28   C162  1.487527 S    
C45   C49   1.412353 A    
O34   Cu10  1.949811 S    
O2    C2    1.291795 A    
C47   C51   1.411694 A    
C152  C160  1.488620 S    
C38   C58   1.414462 A    
N11   O69   1.301374 A    
O43   Cu12  1.951339 S    
C44   C48   1.412612 A    
O41   Cu10  1.951339 S    
N22   O112  1.301005 A    
C169  H49   1.085029 S    
C73   C77   1.405574 A    
N7    O61   1.301312 A    
C15   C91   1.436962 S    
C129  C132  1.204609 T    
C16   C92   1.437105 S    
Cu10  O46   1.951413 S    
C12   C96   1.402694 A    
C97   C99   1.444901 S    
C36   C56   1.414466 A    
C41   C171  1.488870 S    
O37   C111  1.297775 A    
C58   C62   1.448606 S    
N20   O92   1.301196 A    
N23   O113  1.300896 A    
C156  H36   1.085977 S    
C157  O93   1.220064 D    
C151  C159  1.490625 S    
O38   C112  1.298058 A    
O39   C113  1.297591 A    
O26   Cu5   1.961793 S    
C68   N2    1.440525 S    
C118  C127  1.421974 A    
C40   C170  1.488884 S    
O39   Cu11  1.952218 S    
C17   C93   1.420465 A    
C8    C34   1.456856 S    
C42   C172  1.488882 S    
N14   O80   1.301123 A    
C121  C125  1.400189 A    
C35   C165  1.493490 S    
N9    O65   1.301370 A    
C133  C143  1.394414 A    
C135  C139  1.402066 A    
C54   C58   1.417272 A    
O35   C110  1.296542 A    
O12   Cu2   1.962650 S    
C134  C143  1.394308 A    
C1    C75   1.479173 S    
C119  C128  1.421949 A    
O1    C1    1.291947 A    
N3    O53   1.301523 A    
C167  H47   1.085174 S    
C12   C92   1.394431 A    
C49   C53   1.411545 A    
C46   C50   1.412611 A    
C72   H18   1.083430 S    
C26   H12   1.085820 S    
O47   C116  1.297768 A    
N15   O81   1.301362 A    
N4    O55   1.301490 A    
O41   C111  1.294973 A    
O18   C101  1.290724 A    
C24   C104  1.457133 S    
C155  H35   1.085968 S    
C15   C98   1.204328 T    
C21   C25   1.341482 D    
C22   H8    1.087226 S    
C168  O104  1.220982 D    
C4    C78   1.478912 S    
C122  C125  1.400242 A    
C79   N5    1.436912 S    
N1    O50   1.301029 A    
C11   H3    1.084089 S    
C32   H14   1.085740 S    
C68   C72   1.403531 A    
N2    O51   1.301492 A    
C174  O118  1.220575 D    
C27   C161  1.487549 S    
C93   N9    1.438155 S    
C83   C87   1.398282 A    
C149  C157  1.490632 S    
O20   C102  1.290878 A    
O6    C2    1.292721 A    
O4    Cu2   1.951639 S    
C14   C152  1.424531 A    
C72   C76   1.405139 A    
C136  C140  1.402468 A    
C176  H56   1.083479 S    
C136  C144  1.394310 A    
C62   C66   1.204845 T    
C43   C47   1.412391 A    
C19   H5    1.087200 S    
O32   C108  1.291763 A    
C20   C28   1.478907 S    
C33   H15   1.085790 S    
C21   C29   1.478437 S    
O2    Cu1   1.951639 S    
O10   Cu1   1.962650 S    
N24   O116  1.301005 A    
C5    C31   1.456832 S    
C127  C129  1.444640 S    
C6    C32   1.456793 S    
C35   C55   1.414576 A    
N17   O85   1.300824 A    
C68   C88   1.411539 A    
C133  C137  1.402467 A    
O24   Cu8   1.961817 S    
O36   Cu12  1.949811 S    
O17   C101  1.290761 A    
C139  N15   1.438012 S    
N19   O89   1.300825 A    
O22   C104  1.289788 A    
Cu7   Cu8   2.660112 S    
C14   C110  1.485296 S    
C161  H41   1.085450 S    
C176  O120  1.220572 D    
Cu5   Cu6   2.660112 S    
C36   C40   1.417522 A    
C165  H45   1.085163 S    
O7    C3    1.292965 A    
C100  C148  1.405317 A    
C43   C111  1.483330 S    
N11   O70   1.301026 A    
C162  O98   1.220362 D    
N21   O110  1.300990 A    
C148  N20   1.438788 S    
N3    O54   1.301045 A    
C134  H30   1.084042 S    
C138  C141  1.420162 A    
C53   C175  1.496369 S    
C42   C46   1.420179 A    
C117  C127  1.422015 A    
C77   C81   1.416633 A    
O16   C8    1.289914 A    
N23   O114  1.300987 A    
C138  N14   1.438516 S    
C41   C45   1.419751 A    
C73   H19   1.083004 S    
O11   C7    1.289841 A    
O12   C8    1.283038 A    
C46   C114  1.483763 S    
C137  C141  1.420128 A    
C99   C146  1.405306 A    
O9    Cu1   1.960940 S    
C29   C163  1.487527 S    
C22   C26   1.341155 D    
C7    C33   1.456834 S    
C31   H13   1.085788 S    
C150  C158  1.488611 S    
C52   C56   1.417272 A    
C69   N3    1.440617 S    
N6    O60   1.301440 A    
O38   Cu10  1.952221 S    
C117  C153  1.491025 S    
O11   Cu2   1.960940 S    
C153  H33   1.085857 S    
C119  C123  1.402001 A    
O42   C112  1.294944 A    
C100  C147  1.404245 A    
N5    O58   1.301432 A    
C82   C86   1.401466 A    
Cu5   O29   1.950315 S    
C175  O119  1.220568 D    
C167  O103  1.220980 D    
O6    Cu3   1.952683 S    
O33   C109  1.296523 A    
C52   C174  1.496351 S    
C171  O107  1.220483 D    
C137  N13   1.438660 S    
N15   O82   1.300801 A    
C37   C167  1.493657 S    
C173  H53   1.083484 S    
O22   Cu6   1.961817 S    
C18   C108  1.477953 S    
C166  O102  1.220984 D    
O21   Cu5   1.961819 S    
O31   C108  1.291614 A    
N12   O72   1.301147 A    
C11   C95   1.402701 A    
C3    C77   1.480264 S    
C39   C169  1.488853 S    
N18   O87   1.301238 A    
C23   H9    1.085719 S    
C70   C74   1.403530 A    
C85   C89   1.398169 A    
C24   H10   1.085681 S    
N16   O83   1.301378 A    
C13   C150  1.424561 A    
C18   C95   1.420368 A    
C132  C144  1.436124 S    
O14   Cu3   1.961195 S    
O27   Cu8   1.961796 S    
O25   Cu6   1.961796 S    
Cu1   Cu3   2.658768 S    
C146  C150  1.412499 A    
Cu2   Cu4   2.658768 S    
C63   C87   1.439908 S    
C67   C71   1.403457 A    
C158  H38   1.085171 S    
N13   O78   1.301186 A    
C81   N7    1.436726 S    
C35   C39   1.417513 A    
C130  C131  1.204760 T    
Cu11  O47   1.949696 S    
C170  H50   1.085046 S    
C156  O76   1.220205 D    
C157  H37   1.083530 S    
C115  C125  1.479971 S    
N8    O63   1.301324 A    
O28   C106  1.285113 A    
C145  N17   1.436176 S    
C49   N23   1.435111 S    
C164  H44   1.085548 S    
C118  C122  1.402150 A    
C61   C65   1.204750 T    
C80   C84   1.401474 A    
