data_mof_unit_27500.cif
_audit_creation_date              2012-12-11T15:26:44-0500
_audit_creation_method            fapswitch 2.2
_symmetry_space_group_name_H-M    P1
_symmetry_Int_Tables_number       1
_space_group_crystal_system       triclinic
_cell_length_a                    7.232842
_cell_length_b                    12.3734
_cell_length_c                    28.919597
_cell_angle_alpha                 90.000988
_cell_angle_beta                  90.003956
_cell_angle_gamma                 89.999576
_cell_volume                      2588.15490806

loop_
_atom_site_label
_atom_site_type_symbol
_atom_type_description
_atom_site_fract_x
_atom_site_fract_y
_atom_site_fract_z
_atom_type_partial_charge
O1    O     O_R   0.647170 0.849180 0.201220 -0.544499
O2    O     O_R   0.352830 0.150820 0.798780 -0.529431
O3    O     O_R   0.352830 0.150820 0.701220 -0.544447
O4    O     O_R   0.647170 0.849180 0.298780 -0.529468
O5    O     O_R   0.147170 0.650820 0.298780 -0.544437
O6    O     O_R   0.852830 0.349180 0.701220 -0.529456
O7    O     O_R   0.852830 0.349180 0.798780 -0.544449
O8    O     O_R   0.147170 0.650820 0.201220 -0.529410
O9    O     O_R   0.317430 0.862210 0.298450 -0.551162
O10   O     O_R   0.682570 0.137790 0.701550 -0.520937
O11   O     O_R   0.682570 0.137790 0.798450 -0.551170
O12   O     O_R   0.317430 0.862210 0.201550 -0.520983
O13   O     O_R   0.817430 0.637790 0.201550 -0.551153
O14   O     O_R   0.182570 0.362210 0.798450 -0.520953
O15   O     O_R   0.182570 0.362210 0.701550 -0.551160
O16   O     O_R   0.817430 0.637790 0.298450 -0.520919
C1    C     C_R   0.486175 0.887920 0.313170 0.846197
C2    C     C_R   0.513712 0.111246 0.687133 0.823373
C3    C     C_R   0.513835 0.112080 0.813170 0.846176
C4    C     C_R   0.486280 0.888756 0.187134 0.823449
C5    C     C_R   0.986163 0.612076 0.186830 0.846178
C6    C     C_R   0.013723 0.388750 0.812869 0.823362
C7    C     C_R   0.013827 0.387918 0.686829 0.846203
C8    C     C_R   0.986286 0.611249 0.312868 0.823347
H1    H     H_    0.182185 0.284796 0.372595 0.210384
H2    H     H_    0.966476 0.730840 0.625137 0.210428
H3    H     H_    0.818105 0.715264 0.872593 0.210368
H4    H     H_    0.033043 0.269127 0.125136 0.210401
H5    H     H_    0.681612 0.215335 0.127426 0.210391
H6    H     H_    0.466858 0.769133 0.874850 0.210415
H7    H     H_    0.317882 0.784781 0.627397 0.210384
H8    H     H_    0.533521 0.230847 0.374864 0.210424
O17   O     O_3   0.480630 0.680630 0.250000 -0.386747
O18   O     O_3   0.519370 0.319370 0.750000 -0.386792
O19   O     O_3   0.980630 0.819370 0.250000 -0.386837
O20   O     O_3   0.019370 0.180630 0.750000 -0.386776
V1    V     V_3+5 0.205800 0.762860 0.250000 1.642179
V2    V     V_3+5 0.794200 0.237140 0.750000 1.642227
V3    V     V_3+5 0.705800 0.737140 0.250000 1.642216
V4    V     V_3+5 0.294200 0.262860 0.750000 1.642232
H9    H     H_    0.119758 0.298773 0.532973 0.184144
H10   H     H_    0.934300 0.701283 0.463940 0.174467
H11   H     H_    0.880506 0.701265 0.032975 0.184140
H12   H     H_    0.065487 0.298681 0.963941 0.174489
H13   H     H_    0.619505 0.201269 0.967029 0.184146
H14   H     H_    0.434798 0.798644 0.036043 0.174563
H15   H     H_    0.380353 0.798767 0.467020 0.184143
H16   H     H_    0.565683 0.201300 0.536058 0.174507
C9    C     C_R   0.998991 0.531411 0.350334 -0.193096
C10   C     C_R   0.003907 0.462992 0.647589 -0.196711
C11   C     C_R   0.001049 0.468585 0.850337 -0.193118
C12   C     C_R   0.996042 0.536993 0.147591 -0.196675
C13   C     C_R   0.498960 0.968583 0.149666 -0.193084
C14   C     C_R   0.503944 0.036997 0.852406 -0.196696
C15   C     C_R   0.501004 0.031413 0.649665 -0.193092
C16   C     C_R   0.496107 0.962996 0.352411 -0.196726
C17   C     C_R   0.115388 0.361478 0.379462 -0.158136
C18   C     C_R   0.974944 0.644951 0.618144 -0.155382
C19   C     C_R   0.884815 0.638557 0.879462 -0.158107
C20   C     C_R   0.024726 0.355020 0.118144 -0.155331
C21   C     C_R   0.615026 0.138596 0.120549 -0.158181
C22   C     C_R   0.475214 0.855024 0.881844 -0.155388
C23   C     C_R   0.384655 0.861471 0.620532 -0.158141
C24   C     C_R   0.525067 0.144957 0.381856 -0.155359
C25   C     C_R   0.093862 0.434327 0.343179 0.583387
C26   C     C_R   0.003134 0.574543 0.655096 0.568144
C27   C     C_R   0.906274 0.565699 0.843178 0.583358
C28   C     C_R   0.996609 0.425442 0.155095 0.568148
C29   C     C_R   0.593554 0.065751 0.156836 0.583311
C30   C     C_R   0.503327 0.925448 0.844896 0.568169
C31   C     C_R   0.406170 0.934317 0.656819 0.583364
C32   C     C_R   0.496854 0.074547 0.344905 0.568145
C33   C     C_R   0.926300 0.555211 0.394137 0.244202
C34   C     C_R   0.979579 0.421869 0.602756 0.231911
C35   C     C_R   0.073692 0.444757 0.894145 0.244210
C36   C     C_R   0.020479 0.578099 0.102761 0.231916
C37   C     C_R   0.426479 0.944701 0.105849 0.244121
C38   C     C_R   0.479529 0.078102 0.897238 0.231910
C39   C     C_R   0.573664 0.055231 0.605862 0.244165
C40   C     C_R   0.520487 0.921875 0.397241 0.231904
C41   C     C_R   0.981556 0.492713 0.433169 -0.041945
C42   C     C_R   0.980297 0.493035 0.563938 -0.055442
C43   C     C_R   0.018483 0.507271 0.933173 -0.042004
C44   C     C_R   0.019669 0.506936 0.063942 -0.055456
C45   C     C_R   0.481635 0.007240 0.066823 -0.041965
C46   C     C_R   0.480361 0.006935 0.936053 -0.055438
C47   C     C_R   0.518447 0.992725 0.566828 -0.041926
C48   C     C_R   0.519762 0.993041 0.436060 -0.055466
C49   C     C_R   0.063453 0.390509 0.424575 -0.089910
C50   C     C_R   0.962871 0.605431 0.572669 -0.060889
C51   C     C_R   0.936708 0.609506 0.924577 -0.089880
C52   C     C_R   0.036914 0.394533 0.072672 -0.060824
C53   C     C_R   0.563282 0.109506 0.075426 -0.089853
C54   C     C_R   0.463098 0.894533 0.927319 -0.060878
C55   C     C_R   0.436581 0.890511 0.575420 -0.089903
C56   C     C_R   0.537166 0.105438 0.427330 -0.060867
C57   C     C_R   0.966200 0.529800 0.479943 0.014757
C58   C     C_R   0.000329 0.456849 0.517147 0.019969
C59   C     C_R   0.033772 0.470174 0.979947 0.014745
C60   C     C_R   0.999718 0.543136 0.017151 0.019893
C61   C     C_R   0.466368 0.970149 0.020047 0.014717
C62   C     C_R   0.500351 0.043126 0.982846 0.019912
C63   C     C_R   0.533820 0.029811 0.520055 0.014772
C64   C     C_R   0.499729 0.956854 0.482849 0.019964
C65   C     C_R   0.071527 0.353449 0.506547 -0.215010
C66   C     C_R   0.939660 0.640176 0.490509 -0.230077
C67   C     C_R   0.928665 0.646568 0.006549 -0.215051
C68   C     C_R   0.060169 0.359786 0.990512 -0.230115
C69   C     C_R   0.571365 0.146565 0.993452 -0.215015
C70   C     C_R   0.440018 0.859761 0.009477 -0.230018
C71   C     C_R   0.428556 0.853448 0.493447 -0.215021
C72   C     C_R   0.560352 0.140188 0.509490 -0.230077
C73   C     C_R   0.099930 0.320465 0.461252 0.688171
C74   C     C_R   0.938545 0.677324 0.535861 0.711449
C75   C     C_R   0.900317 0.679566 0.961253 0.688209
C76   C     C_R   0.061180 0.322633 0.035864 0.711390
C77   C     C_R   0.599673 0.179568 0.038751 0.688196
C78   C     C_R   0.438904 0.822623 0.964125 0.711425
C79   C     C_R   0.400139 0.820463 0.538741 0.688170
C80   C     C_R   0.561485 0.177333 0.464138 0.711439
F1    F     F_    0.166180 0.219537 0.453386 -0.702327
F2    F     F_    0.919504 0.785103 0.543594 -0.696475
F3    F     F_    0.834203 0.780524 0.953386 -0.702319
F4    F     F_    0.080078 0.214846 0.043595 -0.696460
F5    F     F_    0.665749 0.280535 0.046621 -0.702314
F6    F     F_    0.420009 0.714839 0.956390 -0.696462
F7    F     F_    0.333899 0.719532 0.546604 -0.702318
F8    F     F_    0.580515 0.285112 0.456407 -0.696469
F9    F     F_    0.019789 0.614944 0.698541 -0.598994
F10   F     F_    0.160209 0.408607 0.300661 -0.598109
F11   F     F_    0.979825 0.385050 0.198539 -0.599044
F12   F     F_    0.839966 0.591443 0.800658 -0.598056
F13   F     F_    0.520063 0.885060 0.801450 -0.599024
F14   F     F_    0.659674 0.091553 0.199371 -0.597993
F15   F     F_    0.480155 0.114947 0.301461 -0.598941
F16   F     F_    0.339849 0.908582 0.699337 -0.598093
O21   O     O_3   0.936929 0.313934 0.598785 -0.633960
H17   H     H_    0.846742 0.307117 0.573137 0.317210
O22   O     O_3   0.793062 0.634164 0.396827 -0.631005
H18   H     H_    0.705639 0.613015 0.421667 0.319846
O23   O     O_3   0.063326 0.686006 0.098795 -0.633936
H19   H     H_    0.153509 0.692765 0.073147 0.317240
O24   O     O_3   0.206856 0.365763 0.896841 -0.631002
H20   H     H_    0.294283 0.386884 0.921689 0.319859
O25   O     O_3   0.436706 0.186012 0.901208 -0.633922
H21   H     H_    0.346513 0.192778 0.926855 0.317217
O26   O     O_3   0.293469 0.865631 0.103140 -0.631078
H22   H     H_    0.205985 0.886747 0.078306 0.319820
O27   O     O_3   0.563177 0.813944 0.401209 -0.633935
H23   H     H_    0.653366 0.807133 0.426857 0.317214
O28   O     O_3   0.706848 0.134212 0.603174 -0.631041
H24   H     H_    0.794319 0.113056 0.578345 0.319835

loop_
_geom_bond_atom_site_label_1
_geom_bond_atom_site_label_2
_ccdc_geom_bond_type
C48   C56   A    
C61   C62   A    
C35   O24   S    
O5    V1    S    
C28   F11   S    
C27   F12   S    
C68   C76   A    
C7    C10   S    
C24   C32   A    
C13   C29   A    
C36   C44   A    
C39   C47   A    
C57   C58   A    
C69   C77   A    
C59   C68   A    
O11   C3    A    
C29   F14   S    
C58   C65   A    
C17   C49   A    
C66   C74   A    
O18   V4    S    
C65   C73   A    
O19   V1    S    
C11   C35   A    
C10   C34   A    
C21   C53   A    
O24   H20   S    
C23   C55   A    
C22   C30   A    
O3    C2    A    
C71   C79   A    
O12   V1    S    
C46   C54   A    
C38   O25   S    
C19   C27   A    
O17   V3    S    
C45   C53   A    
C18   C26   A    
O26   H22   S    
C16   C32   A    
C47   C55   A    
C30   F13   S    
O28   H24   S    
O6    V2    S    
C37   O26   S    
C12   C28   A    
C26   F9    S    
C41   C49   A    
C36   O23   S    
C38   C46   A    
O15   C7    A    
C37   C45   A    
O16   C8    A    
C43   C59   A    
C42   C58   A    
C70   C78   A    
C53   C77   A    
C34   C42   A    
C33   C41   A    
C48   C64   A    
O25   H21   S    
C49   C73   A    
H12   C68   S    
C40   O27   S    
C34   O21   S    
H5    C21   S    
C75   F3    S    
C44   C60   A    
H7    C23   S    
H8    C24   S    
C60   C67   A    
H2    C18   S    
C31   F16   S    
C72   C80   A    
C32   F15   S    
H11   C67   S    
C33   O22   S    
C55   C79   A    
C61   C70   A    
C63   C72   A    
C74   F2    S    
O11   V2    S    
C13   C37   A    
C15   C39   A    
C59   C60   A    
C14   C30   A    
O4    V3    S    
C16   C40   A    
O12   C4    A    
O9    V1    S    
O8    C5    A    
O13   C5    A    
C11   C27   A    
C44   C52   A    
C10   C26   A    
C1    C16   S    
C67   C75   A    
H4    C20   S    
C9    C25   A    
C2    C15   S    
C18   C50   A    
C47   C63   A    
C57   C66   A    
C3    C14   S    
O9    C1    A    
H16   C72   S    
C23   C31   A    
O3    V4    S    
C22   C54   A    
C9    C33   A    
O8    V1    S    
O4    C1    A    
C46   C62   A    
H1    C17   S    
C45   C61   A    
C39   O28   S    
C19   C51   A    
C21   C29   A    
C8    C9    S    
O1    C4    A    
C76   F4    S    
O2    C3    A    
C56   C80   A    
C17   C25   A    
C4    C13   S    
C12   C36   A    
C42   C50   A    
C64   C71   A    
O22   H18   S    
C80   F8    S    
O7    C6    A    
C43   C51   A    
O21   H17   S    
C52   C76   A    
C25   F10   S    
O10   V2    S    
O14   C6    A    
H6    C22   S    
C40   C48   A    
H14   C70   S    
H3    C19   S    
O27   H23   S    
C54   C78   A    
C35   C43   A    
O5    C8    A    
C41   C57   A    
O10   C2    A    
H15   C71   S    
O6    C7    A    
O20   V2    S    
O7    V2    S    
C51   C75   A    
C24   C56   A    
H13   C69   S    
C50   C74   A    
O15   V4    S    
O13   V3    S    
O1    V3    S    
O16   V3    S    
O14   V4    S    
H10   C66   S    
O2    V4    S    
C73   F1    S    
H9    C65   S    
C20   C28   A    
C63   C64   A    
C62   C69   A    
C78   F6    S    
O23   H19   S    
C20   C52   A    
C77   F5    S    
C5    C12   S    
C15   C31   A    
C6    C11   S    
C14   C38   A    
C79   F7    S    
