data_mof_unit_63848.cif
_audit_creation_date              2012-12-10T18:14:37-0500
_audit_creation_method            fapswitch 2.2
_symmetry_space_group_name_H-M    P1
_symmetry_Int_Tables_number       1
_space_group_crystal_system       triclinic
_cell_length_a                    42.26307
_cell_length_b                    29.206111
_cell_length_c                    30.572638
_cell_angle_alpha                 90.141492
_cell_angle_beta                  136.287193
_cell_angle_gamma                 89.903313
_cell_volume                      26077.8663444

loop_
_atom_site_label
_atom_site_type_symbol
_atom_type_description
_atom_site_fract_x
_atom_site_fract_y
_atom_site_fract_z
_atom_type_partial_charge
C1    C     C_R   0.586684 0.499999 0.586982 0.907456
C2    C     C_1   0.993590 0.997020 0.328745 -0.117918
C3    C     C_3   0.543122 0.513411 0.266097 -0.456426
C4    C     C_3   0.987333 0.947205 0.207361 -0.438499
C5    C     C_3   0.043086 0.013548 0.266058 -0.456423
C6    C     C_1   0.499672 0.499417 0.120404 -0.211721
C7    C     C_1   0.999673 0.999417 0.120405 -0.211718
C8    C     C_3   0.492730 0.494927 0.281759 0.203408
C9    C     C_3   0.992754 0.994918 0.281782 0.203405
C10   C     C_3   0.496605 0.497195 0.201581 0.293457
C11   C     C_3   0.996618 0.997191 0.201593 0.293455
C12   C     C_R   0.583105 0.484049 0.376572 0.168897
C13   C     C_1   0.496617 0.499205 0.369813 -0.220985
C14   C     C_R   0.606292 0.447995 0.378253 -0.117727
C15   C     C_R   0.643238 0.425796 0.435030 -0.138971
C16   C     C_R   0.658382 0.439553 0.491386 -0.100891
C17   C     C_R   0.636968 0.475953 0.491268 -0.128627
C18   C     C_R   0.600110 0.498304 0.434699 -0.168807
C19   C     C_R   0.507033 0.403922 0.301314 0.146416
C20   C     C_R   0.536679 0.372025 0.310357 -0.128657
C21   C     C_R   0.555645 0.335570 0.352714 -0.137236
C22   C     C_R   0.544070 0.328719 0.384826 -0.112608
C23   C     C_R   0.512469 0.357573 0.373337 -0.118894
C24   C     C_1   0.996624 0.999204 0.369821 -0.221003
C25   C     C_R   0.493449 0.394022 0.331113 -0.138879
C26   C     C_R   0.083161 0.984313 0.376627 0.168896
C27   C     C_R   0.106461 0.948332 0.378422 -0.117728
C28   C     C_R   0.143475 0.926248 0.435268 -0.138975
C29   C     C_R   0.158572 0.940050 0.491580 -0.100870
C30   C     C_R   0.137044 0.976382 0.491347 -0.128668
C31   C     C_R   0.100119 0.998619 0.434709 -0.168838
C32   C     C_R   0.007334 0.903957 0.301618 0.146418
C33   C     C_R   0.037080 0.872154 0.310762 -0.128639
C34   C     C_R   0.056159 0.835758 0.353233 -0.137239
C35   C     C_1   0.637260 0.499990 0.637351 -0.231933
C36   C     C_R   0.044603 0.828871 0.385364 -0.112594
C37   C     C_R   0.012912 0.857626 0.373783 -0.118906
C38   C     C_R   0.993780 0.894015 0.331445 -0.138929
C39   C     C_R   0.451620 0.578600 0.241155 0.121294
C40   C     C_R   0.412446 0.598849 0.222075 -0.157383
C41   C     C_R   0.413579 0.643032 0.240833 -0.135760
C42   C     C_R   0.452690 0.669761 0.275969 -0.101681
C43   C     C_R   0.489911 0.653100 0.289760 -0.130751
C44   C     C_R   0.488892 0.608931 0.271102 -0.169128
C45   C     C_R   0.404202 0.504198 0.187218 0.099232
C46   C     C_1   0.137260 0.999990 0.637350 -0.231926
C47   C     C_R   0.375400 0.481857 0.127349 -0.164501
C48   C     C_R   0.335219 0.459531 0.099944 -0.138803
C49   C     C_R   0.322708 0.457722 0.131283 -0.101064
C50   C     C_R   0.350555 0.477924 0.190541 -0.140772
C51   C     C_R   0.390718 0.500322 0.218298 -0.197145
C52   C     C_R   0.951391 0.078466 0.240922 0.121291
C53   C     C_R   0.988571 0.108909 0.270775 -0.169121
C54   C     C_R   0.989456 0.153081 0.289297 -0.130752
C55   C     C_R   0.952186 0.169631 0.275456 -0.101679
C56   C     C_R   0.913157 0.142784 0.240403 -0.135760
C57   C     C_1   0.679395 0.499975 0.679359 -0.005577
C58   C     C_R   0.912156 0.098597 0.221780 -0.157404
C59   C     C_R   0.904198 0.003921 0.187215 0.099234
C60   C     C_R   0.890726 0.000007 0.218308 -0.197117
C61   C     C_R   0.850632 0.977489 0.190621 -0.140764
C62   C     C_R   0.822845 0.957201 0.131425 -0.101077
C63   C     C_R   0.835350 0.959043 0.100080 -0.138801
C64   C     C_R   0.875463 0.981490 0.127415 -0.164507
C65   C     C_1   0.179395 0.999975 0.679358 -0.005589
C66   C     C_1   0.729127 0.499964 0.729034 0.001561
C67   C     C_1   0.229127 0.999964 0.729033 0.001548
C68   C     C_1   0.771265 0.499964 0.771186 0.002779
C69   C     C_R   0.086684 0.999999 0.586981 0.907485
C70   C     C_1   0.271265 0.999965 0.771185 0.002770
C71   C     C_1   0.821000 0.499973 0.820980 0.001721
C72   C     C_1   0.321001 0.999973 0.820980 0.001716
C73   C     C_R   0.500553 0.499897 0.418225 0.951360
C74   C     C_R   0.000550 0.999897 0.418222 0.951400
C75   C     C_1   0.863140 0.499984 0.863164 -0.216945
C76   C     C_1   0.363140 0.999984 0.863164 -0.216949
C77   C     C_1   0.499992 0.500130 0.636044 -0.224265
C78   C     C_1   0.999992 0.000130 0.636044 -0.224264
C79   C     C_1   0.500012 0.500140 0.677243 0.014245
C80   C     C_3   0.459126 0.531118 0.179630 -0.448960
C81   C     C_1   0.000012 0.000140 0.677243 0.014246
C82   C     C_1   0.500036 0.500121 0.726267 0.001579
C83   C     C_1   0.000036 0.000121 0.726267 0.001579
C84   C     C_1   0.500054 0.500096 0.767465 0.001514
C85   C     C_1   0.000054 0.000096 0.767465 0.001515
C86   C     C_1   0.500071 0.500061 0.816483 0.013811
C87   C     C_1   0.000071 0.000061 0.816483 0.013812
C88   C     C_1   0.500073 0.500032 0.857664 -0.222888
C89   C     C_1   0.000073 0.000032 0.857664 -0.222887
C90   C     C_1   0.362685 0.499984 0.362757 -0.231648
C91   C     C_3   0.959038 0.031003 0.179540 -0.448957
C92   C     C_1   0.862685 0.999984 0.362757 -0.231643
C93   C     C_1   0.320552 0.499977 0.320488 -0.004596
C94   C     C_1   0.820552 0.999977 0.320488 -0.004583
C95   C     C_1   0.270822 0.499974 0.270683 0.000917
C96   C     C_1   0.770822 0.999973 0.270683 0.000925
C97   C     C_R   0.413259 0.499995 0.413542 0.907728
C98   C     C_R   0.913259 0.999995 0.413542 0.907725
C99   C     C_1   0.228687 0.499976 0.228546 0.002234
C100  C     C_1   0.728687 0.999976 0.228546 0.002237
C101  C     C_1   0.178955 0.499983 0.178860 0.001215
C102  C     C_3   0.451537 0.527779 0.222749 0.026186
C103  C     C_1   0.678955 0.999982 0.178860 0.001217
C104  C     C_1   0.136817 0.499990 0.136775 -0.217406
C105  C     C_1   0.636818 0.999990 0.136775 -0.217405
C106  C     C_R   0.500033 0.586642 0.994576 0.906524
C107  C     C_R   0.500027 0.413359 0.994574 0.909170
C108  C     C_R   0.000033 0.086642 0.994576 0.906520
C109  C     C_R   0.000027 0.913359 0.994574 0.909174
C110  C     C_R   0.499984 0.500640 0.075988 0.951495
C111  C     C_R   0.999984 0.000642 0.075988 0.951498
C112  C     C_R   0.500045 0.500001 0.907519 0.893135
C113  C     C_3   0.951461 0.027644 0.222673 0.026184
C114  C     C_R   0.000045 0.000001 0.907519 0.893135
C115  C     C_R   0.000015 0.413716 0.999084 0.898023
C116  C     C_R   0.000015 0.586287 0.999182 0.898240
C117  C     C_R   0.500015 0.913716 0.999084 0.898023
C118  C     C_R   0.500015 0.086287 0.999182 0.898241
C119  C     C_R   0.913724 0.499995 0.913746 0.898408
C120  C     C_R   0.413724 0.999995 0.913746 0.898409
C121  C     C_R   0.086237 0.499998 0.086244 0.898252
C122  C     C_R   0.586237 0.999998 0.086244 0.898252
C123  C     C_1   0.500048 0.637228 0.995385 -0.224832
C124  C     C_1   0.498526 0.498269 0.157405 -0.092092
C125  C     C_1   0.500032 0.362774 0.995447 -0.226455
C126  C     C_1   0.000048 0.137228 0.995385 -0.224830
C127  C     C_1   0.000032 0.862774 0.995447 -0.226455
C128  C     C_R   0.499972 0.500051 0.586141 0.895159
C129  C     C_R   0.999972 0.000051 0.586141 0.895159
C130  C     C_1   0.500051 0.679367 0.996096 0.001704
C131  C     C_1   0.500033 0.320637 0.996225 0.001142
C132  C     C_1   0.000051 0.179367 0.996096 0.001704
C133  C     C_1   0.000033 0.820637 0.996225 0.001144
C134  C     C_1   0.500048 0.729105 0.996937 0.004011
C135  C     C_1   0.998532 0.998267 0.157411 -0.092096
C136  C     C_1   0.500032 0.270901 0.997149 0.003548
C137  C     C_1   0.000048 0.229105 0.996937 0.004011
C138  C     C_1   0.000032 0.770901 0.997149 0.003551
C139  C     C_1   0.000042 0.271244 0.997618 0.003754
C140  C     C_1   0.000030 0.728765 0.997885 0.003524
C141  C     C_1   0.500042 0.771243 0.997618 0.003754
C142  C     C_1   0.500030 0.228765 0.997885 0.003521
C143  C     C_1   0.000034 0.320983 0.998340 0.002092
C144  C     C_1   0.000026 0.679025 0.998639 0.002223
C145  C     C_1   0.500034 0.820983 0.998340 0.002091
C146  C     C_1   0.493572 0.497026 0.328728 -0.117922
C147  C     C_1   0.500026 0.179025 0.998639 0.002220
C148  C     C_1   0.000026 0.363125 0.998814 -0.217016
C149  C     C_1   0.000022 0.636882 0.999079 -0.216806
C150  C     C_1   0.500026 0.863125 0.998814 -0.217017
C151  C     C_1   0.500022 0.136882 0.999079 -0.216808
C152  C     C_3   0.542285 0.510238 0.315647 -0.139822
C153  C     C_3   0.483626 0.444565 0.254447 -0.151700
C154  C     C_3   0.042262 0.010377 0.315621 -0.139821
C155  C     C_3   0.983802 0.944527 0.254625 -0.151691
C156  C     C_3   0.487170 0.447235 0.207195 -0.438499
H1    H     H_    0.571421 0.494140 0.278882 0.172577
H2    H     H_    0.549618 0.549451 0.262590 0.156263
H3    H     H_    0.954929 0.934543 0.160047 0.162958
H4    H     H_    0.049474 0.049607 0.262440 0.156258
H5    H     H_    0.470434 0.565945 0.181161 0.164644
H6    H     H_    0.427683 0.528838 0.128447 0.159392
H7    H     H_    0.970241 0.065863 0.180965 0.164645
H8    H     H_    0.927601 0.028628 0.128365 0.159397
H9    H     H_    0.595795 0.435690 0.336076 0.108861
H10   H     H_    0.660059 0.397694 0.435203 0.125773
H11   H     H_    0.686931 0.422230 0.535215 0.127258
H12   H     H_    0.514586 0.425714 0.220832 0.164965
H13   H     H_    0.649056 0.487070 0.535121 0.133401
H14   H     H_    0.584849 0.527052 0.436449 0.124030
H15   H     H_    0.546470 0.374213 0.286355 0.104512
H16   H     H_    0.579208 0.312320 0.360275 0.125841
H17   H     H_    0.558731 0.300384 0.417417 0.125319
H18   H     H_    0.502072 0.351304 0.396386 0.130405
H19   H     H_    0.466922 0.413829 0.320456 0.138456
H20   H     H_    0.096005 0.935995 0.336285 0.108857
H21   H     H_    0.160384 0.898198 0.435530 0.125771
H22   H     H_    0.187174 0.922814 0.535463 0.127271
H23   H     H_    0.071442 0.994361 0.278899 0.172576
H24   H     H_    0.149096 0.987535 0.535164 0.133412
H25   H     H_    0.084768 0.027321 0.436369 0.124090
H26   H     H_    0.046867 0.874372 0.286756 0.104508
H27   H     H_    0.079795 0.812582 0.360868 0.125840
H28   H     H_    0.059352 0.800582 0.418044 0.125326
H29   H     H_    0.002534 0.851325 0.396851 0.130410
H30   H     H_    0.967190 0.913740 0.320726 0.138492
H31   H     H_    0.379648 0.582102 0.190644 0.145240
H32   H     H_    0.383535 0.656912 0.226795 0.131228
H33   H     H_    0.453372 0.704117 0.289991 0.124120
H34   H     H_    0.014811 0.925764 0.221059 0.164971
H35   H     H_    0.519244 0.674963 0.313399 0.128158
H36   H     H_    0.516350 0.600825 0.276587 0.113243
H37   H     H_    0.383681 0.478463 0.101539 0.124301
H38   H     H_    0.314067 0.442765 0.054491 0.130162
H39   H     H_    0.291628 0.440267 0.109877 0.126918
H40   H     H_    0.340952 0.476460 0.215119 0.136359
H41   H     H_    0.410077 0.516645 0.263340 0.144989
H42   H     H_    0.016053 0.100884 0.276283 0.113241
H43   H     H_    0.018723 0.175033 0.312868 0.128157
H44   H     H_    0.952765 0.203990 0.289373 0.124124
H45   H     H_    0.447576 0.435198 0.224447 0.152661
H46   H     H_    0.883070 0.156575 0.226323 0.131239
H47   H     H_    0.879409 0.081751 0.190402 0.145244
H48   H     H_    0.910036 0.016391 0.263300 0.144958
H49   H     H_    0.841034 0.975999 0.215204 0.136353
H50   H     H_    0.791818 0.939653 0.110074 0.126912
H51   H     H_    0.814249 0.942212 0.054679 0.130164
H52   H     H_    0.883754 0.978119 0.101615 0.124301
H53   H     H_    0.548387 0.545048 0.334117 0.126608
H54   H     H_    0.947781 0.935051 0.224657 0.152659
H55   H     H_    0.048259 0.045206 0.333984 0.126610
H56   H     H_    0.454729 0.434671 0.159842 0.162965
O1    O     O_R   0.563110 0.535630 0.563620 -0.598235
O2    O     O_R   0.500010 0.063160 0.964010 -0.593542
O3    O     O_R   1.000000 0.436830 0.034310 -0.594588
O4    O     O_R   0.000000 0.563170 0.034310 -0.594881
O5    O     O_R   0.500000 0.936830 0.034310 -0.594587
O6    O     O_R   0.500000 0.063170 0.034310 -0.594883
O7    O     O_R   0.936840 0.500000 0.901700 -0.594097
O8    O     O_R   0.436840 1.000000 0.901700 -0.594101
O9    O     O_R   0.936840 0.500000 0.972000 -0.594452
O10   O     O_R   0.436840 1.000000 0.972000 -0.594450
O11   O     O_R   0.063130 0.500000 0.028000 -0.594183
O12   O     O_R   0.563110 0.464370 0.563620 -0.596907
O13   O     O_R   0.563130 0.000000 0.028000 -0.594180
O14   O     O_R   0.063120 0.500000 0.098300 -0.594560
O15   O     O_R   0.563120 0.000000 0.098300 -0.594562
O16   O     O_R   0.499970 0.535640 0.438200 -0.613076
O17   O     O_R   0.499970 0.464360 0.438200 -0.617426
O18   O     O_R   0.999970 0.035640 0.438200 -0.613080
O19   O     O_R   0.999970 0.964360 0.438200 -0.617470
O20   O     O_R   0.436830 0.535630 0.437320 -0.596075
O21   O     O_R   0.436830 0.464370 0.437320 -0.599488
O22   O     O_R   0.936830 0.035630 0.437320 -0.596066
O23   O     O_R   0.063110 0.035630 0.563620 -0.598248
O24   O     O_R   0.936830 0.964370 0.437320 -0.599491
O25   O     O_R   0.499970 0.535630 0.562740 -0.591668
O26   O     O_R   0.499970 0.464370 0.562740 -0.591942
O27   O     O_R   0.999970 0.035630 0.562740 -0.591667
O28   O     O_R   0.999970 0.964370 0.562740 -0.591942
O29   O     O_R   0.535670 0.563060 0.029670 -0.597609
O30   O     O_R   0.535670 0.436940 0.029670 -0.597136
O31   O     O_R   0.035670 0.063060 0.029670 -0.597610
O32   O     O_R   0.035670 0.936940 0.029670 -0.597135
O33   O     O_R   0.464380 0.563080 0.958370 -0.597750
O34   O     O_R   0.063110 0.964370 0.563620 -0.596900
O35   O     O_R   0.464380 0.436920 0.958370 -0.596948
O36   O     O_R   0.964380 0.063080 0.958370 -0.597750
O37   O     O_R   0.964380 0.936920 0.958370 -0.596948
O38   O     O_R   0.535670 0.500000 0.091080 -0.613431
O39   O     O_R   0.035670 0.000000 0.091080 -0.613436
O40   O     O_R   0.464370 0.500000 0.019780 -0.613544
O41   O     O_R   0.964370 0.000000 0.019780 -0.613543
O42   O     O_R   0.535670 0.500000 0.966540 -0.593356
O43   O     O_R   0.035670 0.000000 0.966540 -0.593355
O44   O     O_R   0.464380 0.500000 0.895240 -0.593489
O45   O     O_R   0.964380 0.000000 0.895240 -0.593490
O46   O     O_R   0.000010 0.436840 0.964010 -0.594097
O47   O     O_R   0.000010 0.563160 0.964010 -0.593542
O48   O     O_R   0.500010 0.936840 0.964010 -0.594098
Zn1   Zn    Zn3+2 0.499970 0.547590 0.500630 0.961653
Zn2   Zn    Zn3+2 0.499990 0.000000 0.953050 0.964789
Zn3   Zn    Zn3+2 0.999980 0.500000 0.046950 0.961951
Zn4   Zn    Zn3+2 0.499980 0.000000 0.046950 0.961947
Zn5   Zn    Zn3+2 0.499970 0.452410 0.500630 0.952377
Zn6   Zn    Zn3+2 0.999970 0.047590 0.500630 0.961652
Zn7   Zn    Zn3+2 0.999970 0.952410 0.500630 0.952356
Zn8   Zn    Zn3+2 0.547630 0.500000 0.040770 0.961289
Zn9   Zn    Zn3+2 0.047630 1.000000 0.040770 0.961285
Zn10  Zn    Zn3+2 0.452420 0.500000 0.945550 0.961136
Zn11  Zn    Zn3+2 0.952420 1.000000 0.945550 0.961138
Zn12  Zn    Zn3+2 0.999990 0.500000 0.953050 0.964791

loop_
_geom_bond_atom_site_label_1
_geom_bond_atom_site_label_2
_ccdc_geom_bond_type
C111  O41   A    
C66   C68   T    
C55   C56   A    
C9    C155  S    
O19   Zn7   S    
C156  H56   S    
O6    Zn4   S    
C41   C42   A    
O37   Zn11  S    
C99   C101  S    
C19   C20   A    
C78   C81   T    
C6    C124  T    
C57   C66   S    
C74   O18   A    
O40   Zn10  S    
O39   Zn9   S    
C154  H55   S    
C73   O17   A    
C92   C98   S    
C40   H31   S    
C52   C113  S    
C110  O38   A    
C114  O43   A    
C64   H52   S    
C109  O37   A    
C59   C64   A    
C29   C30   A    
C116  O4    A    
C90   C93   T    
C1    O12   A    
C53   H42   S    
O13   Zn2   S    
C107  O35   A    
C36   C37   A    
C8    C152  S    
C37   C38   A    
C84   C86   S    
C5    C11   S    
C10   C124  S    
O43   Zn9   S    
C30   C31   A    
C17   H13   S    
C112  O44   A    
C4    H3    S    
C56   H46   S    
C156  H12   S    
C16   H11   S    
C111  O39   A    
C5    C154  S    
C119  O9    A    
O7    Zn12  S    
C25   H19   S    
C5    H23   S    
C46   C69   S    
C136  C142  T    
C51   H41   S    
C30   H24   S    
C89   C114  S    
C139  C143  S    
C109  C127  S    
C37   H29   S    
C47   C48   A    
C56   C58   A    
C16   C17   A    
C65   C67   S    
C106  C123  S    
C118  O6    A    
O24   Zn7   S    
C120  O10   A    
C107  O30   A    
C117  O5    A    
C117  C150  S    
O45   Zn11  S    
C32   C38   A    
O46   Zn12  S    
C28   H21   S    
C90   C97   S    
C34   C36   A    
C145  C150  T    
O26   Zn5   S    
C72   C76   T    
C82   C84   T    
O23   Zn6   S    
C85   C87   S    
C43   H35   S    
C133  C138  S    
C93   C95   S    
O5    Zn4   S    
C63   H51   S    
C21   C22   A    
C129  O27   A    
C119  O7    A    
C6    C110  S    
O28   Zn7   S    
C91   H7    S    
C130  C134  S    
C50   H40   S    
C13   C146  T    
C116  C149  S    
C81   C83   S    
C15   H10   S    
C47   H37   S    
O15   Zn4   S    
C50   C51   A    
C153  H45   S    
C45   C47   A    
C121  O11   A    
C143  C148  T    
C118  C151  S    
C8    C146  S    
C33   C34   A    
O29   Zn8   S    
O20   Zn1   S    
C63   C64   A    
O25   Zn1   S    
O32   Zn9   S    
O3    Zn3   S    
C75   C119  S    
C107  C125  S    
C46   C65   T    
O48   Zn2   S    
C131  C136  S    
C10   C156  S    
C39   C40   A    
C23   H18   S    
C117  O48   A    
O17   Zn5   S    
C97   O21   A    
C74   O19   A    
C104  C121  S    
C49   H39   S    
C109  O32   A    
C110  O40   A    
C132  C137  S    
C38   H30   S    
C122  O13   A    
O44   Zn10  S    
C115  C148  S    
C100  C103  S    
C121  O14   A    
C91   C113  S    
O27   Zn6   S    
O1    Zn1   S    
C60   C61   A    
C153  C156  S    
C152  H53   S    
C88   C112  S    
C147  C151  T    
C43   C44   A    
O31   Zn9   S    
C59   C60   A    
C7    C135  T    
C144  C149  T    
C4    H34   S    
C3    H2    S    
C32   C155  S    
C137  C139  T    
C125  C131  T    
C112  O42   A    
C55   H44   S    
C98   O22   A    
C126  C132  T    
C120  O8    A    
C5    H4    S    
O42   Zn8   S    
C20   H15   S    
C62   C63   A    
C92   C94   T    
C17   C18   A    
C3    C152  S    
C77   C79   T    
C115  O3    A    
C34   H27   S    
C118  O2    A    
C76   C120  S    
C4    C11   S    
C94   C96   S    
C8    C153  S    
C116  O47   A    
C80   H6    S    
C77   C128  S    
C52   C58   A    
C78   C129  S    
C36   H28   S    
C40   C41   A    
C83   C85   T    
C13   C73   S    
C9    C154  S    
C101  C104  T    
O30   Zn8   S    
C29   H22   S    
C87   C89   T    
C123  C130  T    
C26   C27   A    
C19   C153  S    
C103  C105  T    
C91   H8    S    
C26   C154  S    
C42   C43   A    
C106  O29   A    
C12   C18   A    
O34   Zn7   S    
O12   Zn5   S    
C22   H17   S    
C52   C53   A    
C1    C35   S    
C39   C102  S    
O18   Zn6   S    
O35   Zn10  S    
C54   C55   A    
C28   C29   A    
C10   C80   S    
C73   O16   A    
C48   H38   S    
C22   C23   A    
C142  C147  S    
O2    Zn2   S    
C155  H54   S    
O8    Zn2   S    
C11   C135  S    
C127  C133  T    
O4    Zn3   S    
C12   C14   A    
C59   C113  S    
O9    Zn3   S    
C115  O46   A    
C27   H20   S    
C58   H47   S    
C79   C82   S    
O10   Zn4   S    
C53   C54   A    
C39   C44   A    
C138  C140  T    
C141  C145  S    
C21   H16   S    
C108  O36   A    
O16   Zn1   S    
C35   C57   T    
C67   C70   T    
C9    C113  S    
C32   C33   A    
C140  C144  S    
O33   Zn10  S    
C128  O25   A    
O38   Zn8   S    
O11   Zn12  S    
C129  O28   A    
C3    C10   S    
C44   H36   S    
C134  C141  T    
C1    O1    A    
C42   H33   S    
C24   C74   S    
O36   Zn11  S    
O41   Zn11  S    
C68   C71   S    
C48   C49   A    
C122  O15   A    
C96   C100  T    
C108  O31   A    
C14   H9    S    
C7    C111  S    
C105  C122  S    
C95   C99   T    
C86   C88   T    
C23   C25   A    
C106  O33   A    
C69   O23   A    
C61   C62   A    
C19   C25   A    
C114  O45   A    
C80   H5    S    
C60   H48   S    
C45   C102  S    
C54   H43   S    
O21   Zn5   S    
C12   C152  S    
C97   O20   A    
C11   C91   S    
C69   O34   A    
C26   C31   A    
C4    C155  S    
C98   O24   A    
C20   C21   A    
C41   H32   S    
C49   C50   A    
C18   H14   S    
C80   C102  S    
C33   H26   S    
C3    H1    S    
C45   C51   A    
C14   C15   A    
C70   C72   S    
C2    C24   T    
O22   Zn6   S    
C108  C126  S    
C2    C9    S    
C8    C102  S    
O14   Zn3   S    
C62   H50   S    
C128  O26   A    
C31   H25   S    
O47   Zn12  S    
C15   C16   A    
C61   H49   S    
C27   C28   A    
C71   C75   T    
