data_mof_unit_55905.cif
_audit_creation_date              2012-12-10T18:28:07-0500
_audit_creation_method            fapswitch 2.2
_symmetry_space_group_name_H-M    P1
_symmetry_Int_Tables_number       1
_space_group_crystal_system       triclinic
_cell_length_a                    22.963433
_cell_length_b                    19.689299
_cell_length_c                    14.979166
_cell_angle_alpha                 89.57123
_cell_angle_beta                  98.623413
_cell_angle_gamma                 90.527044
_cell_volume                      6695.61499596

loop_
_atom_site_label
_atom_site_type_symbol
_atom_type_description
_atom_site_fract_x
_atom_site_fract_y
_atom_site_fract_z
_atom_type_partial_charge
C1    C     C_R   0.577355 0.086907 0.554434 0.894451
C2    C     C_R   0.423992 0.911527 0.446610 0.882240
C3    C     C_R   0.424016 0.088113 0.445815 0.907662
C4    C     C_R   0.573650 0.909241 0.552567 0.844664
C5    C     C_R   0.077355 0.586907 0.554434 0.894452
C6    C     C_R   0.923992 0.411527 0.446611 0.882240
C7    C     C_R   0.924016 0.588113 0.445815 0.907662
C8    C     C_R   0.073650 0.409241 0.552567 0.844664
C9    C     C_R   0.192768 0.158191 0.621774 -0.284262
C10   C     C_R   0.716177 0.728859 0.303516 -0.287557
C11   C     C_R   0.798280 0.165594 0.361192 -0.287998
C12   C     C_R   0.298800 0.704598 0.694511 -0.279621
C13   C     C_R   0.692768 0.658191 0.621774 -0.284262
C14   C     C_R   0.216177 0.228859 0.303516 -0.287556
C15   C     C_R   0.298280 0.665594 0.361191 -0.288002
C16   C     C_R   0.798800 0.204599 0.694512 -0.279621
C17   C     C_R   0.629822 0.998864 0.202376 -0.284010
C18   C     C_R   0.370524 0.006485 0.797830 -0.290276
C19   C     C_R   0.129822 0.498864 0.202376 -0.284010
C20   C     C_R   0.870524 0.506485 0.797830 -0.290276
C21   C     C_R   0.607998 0.999511 0.283544 0.056426
C22   C     C_R   0.392096 0.003769 0.716591 0.052031
C23   C     C_R   0.107998 0.499511 0.283544 0.056426
C24   C     C_R   0.892096 0.503769 0.716591 0.052031
C25   C     C_R   0.509483 0.001447 0.208421 -0.039675
C26   C     C_R   0.490660 0.998744 0.791465 0.020593
C27   C     C_R   0.009483 0.501447 0.208421 -0.039675
C28   C     C_R   0.990660 0.498744 0.791465 0.020594
C29   C     C_R   0.528544 0.001914 0.123646 -0.008932
C30   C     C_R   0.471850 0.001687 0.876313 -0.012100
C31   C     C_R   0.028544 0.501914 0.123646 -0.008932
C32   C     C_R   0.971850 0.501687 0.876313 -0.012100
C33   C     C_R   0.590170 0.999603 0.121952 0.160036
C34   C     C_R   0.410291 0.005698 0.878121 0.166527
C35   C     C_R   0.090170 0.499603 0.121952 0.160036
C36   C     C_R   0.910291 0.505698 0.878121 0.166527
C37   C     C_R   0.488872 0.004004 0.041576 0.078487
C38   C     C_R   0.511656 0.001166 0.958343 0.068075
C39   C     C_R   0.988872 0.504004 0.041577 0.078486
C40   C     C_R   0.011656 0.501166 0.958343 0.068075
C41   C     C_R   0.573361 0.998209 0.959856 -0.229375
C42   C     C_R   0.427316 0.009259 0.040085 -0.235045
C43   C     C_R   0.073361 0.498209 0.959856 -0.229376
C44   C     C_R   0.927316 0.509259 0.040085 -0.235045
C45   C     C_R   0.611732 0.997973 0.040301 -0.171308
C46   C     C_R   0.388905 0.009692 0.959735 -0.178706
C47   C     C_R   0.111732 0.497973 0.040301 -0.171307
C48   C     C_R   0.888905 0.509692 0.959735 -0.178705
C49   C     C_R   0.605942 0.845483 0.577239 -0.178040
C50   C     C_R   0.373811 0.130969 0.407882 -0.168891
C51   C     C_R   0.386430 0.851786 0.419651 -0.166645
C52   C     C_R   0.631386 0.124679 0.592675 -0.176881
C53   C     C_R   0.105942 0.345483 0.577239 -0.178040
C54   C     C_R   0.873811 0.630969 0.407882 -0.168892
C55   C     C_R   0.886430 0.351786 0.419651 -0.166645
C56   C     C_R   0.131386 0.624679 0.592675 -0.176882
C57   C     C_R   0.636114 0.748547 0.674896 -0.239305
C58   C     C_R   0.312809 0.189031 0.284156 -0.208563
C59   C     C_R   0.344247 0.767234 0.310746 -0.233003
C60   C     C_R   0.700473 0.170041 0.717979 -0.211174
C61   C     C_R   0.136114 0.248547 0.674896 -0.239306
C62   C     C_R   0.812809 0.689031 0.284156 -0.208563
C63   C     C_R   0.844247 0.267234 0.310747 -0.233003
C64   C     C_R   0.200473 0.670040 0.717979 -0.211173
C65   C     C_R   0.606515 0.810456 0.660917 -0.001058
C66   C     C_R   0.366623 0.159198 0.319264 -0.006111
C67   C     C_R   0.370595 0.831174 0.328638 -0.005029
C68   C     C_R   0.643518 0.146963 0.683769 -0.019445
C69   C     C_R   0.106515 0.310456 0.660917 -0.001058
C70   C     C_R   0.866623 0.659198 0.319264 -0.006112
C71   C     C_R   0.870595 0.331174 0.328638 -0.005028
C72   C     C_R   0.143519 0.646962 0.683769 -0.019444
C73   C     C_R   0.633327 0.815835 0.510062 -0.211223
C74   C     C_R   0.328182 0.136439 0.459355 -0.205647
C75   C     C_R   0.371223 0.810611 0.489156 -0.243431
C76   C     C_R   0.675793 0.129607 0.538250 -0.201002
C77   C     C_R   0.133327 0.315835 0.510062 -0.211224
C78   C     C_R   0.828182 0.636439 0.459355 -0.205647
C79   C     C_R   0.871223 0.310611 0.489157 -0.243431
C80   C     C_R   0.175793 0.629607 0.538250 -0.201000
C81   C     C_R   0.658602 0.751543 0.521102 0.093292
C82   C     C_R   0.274098 0.164857 0.424128 0.094988
C83   C     C_R   0.342901 0.747925 0.471653 0.086156
C84   C     C_R   0.732394 0.152956 0.571839 0.097078
C85   C     C_R   0.158602 0.251543 0.521102 0.093292
C86   C     C_R   0.774098 0.664857 0.424128 0.094988
C87   C     C_R   0.842901 0.247925 0.471654 0.086156
C88   C     C_R   0.232394 0.652956 0.571839 0.097080
C89   C     C_R   0.662245 0.719155 0.606150 0.070030
C90   C     C_R   0.267412 0.193614 0.336505 0.062430
C91   C     C_R   0.329422 0.726311 0.380927 0.072773
C92   C     C_R   0.744182 0.174980 0.662278 0.059177
C93   C     C_R   0.162245 0.219155 0.606150 0.070030
C94   C     C_R   0.767412 0.693614 0.336505 0.062429
C95   C     C_R   0.829422 0.226310 0.380928 0.072772
C96   C     C_R   0.244183 0.674979 0.662278 0.059175
C97   C     C_R   0.686245 0.722382 0.452532 -0.137520
C98   C     C_R   0.228938 0.172093 0.477974 -0.116019
C99   C     C_R   0.320457 0.710757 0.540588 -0.142261
C100  C     C_R   0.774996 0.163405 0.513954 -0.115959
C101  C     C_R   0.186245 0.222382 0.452532 -0.137520
C102  C     C_R   0.728938 0.672093 0.477974 -0.116019
C103  C     C_R   0.820457 0.210757 0.540588 -0.142259
C104  C     C_R   0.274996 0.663405 0.513953 -0.115957
C105  C     C_R   0.225831 0.133760 0.558203 0.464746
C106  C     C_R   0.675183 0.743248 0.360397 0.452715
C107  C     C_R   0.771870 0.132826 0.427802 0.461840
C108  C     C_R   0.337758 0.721877 0.634683 0.471240
C109  C     C_R   0.725831 0.633760 0.558203 0.464746
C110  C     C_R   0.175183 0.243248 0.360397 0.452716
C111  C     C_R   0.271869 0.632826 0.427802 0.461840
C112  C     C_R   0.837758 0.221877 0.634684 0.471240
H1    H     H_    0.192871 0.130627 0.684725 0.167674
H2    H     H_    0.708799 0.747597 0.234537 0.173138
H3    H     H_    0.791898 0.145290 0.293325 0.168329
H4    H     H_    0.310243 0.717304 0.765296 0.171017
H5    H     H_    0.692871 0.630627 0.684725 0.167674
H6    H     H_    0.208799 0.247597 0.234537 0.173138
H7    H     H_    0.291898 0.645291 0.293324 0.168329
H8    H     H_    0.810242 0.217305 0.765296 0.171017
H9    H     H_    0.593988 0.996408 0.900053 0.175105
H10   H     H_    0.406906 0.013721 0.099837 0.188626
H11   H     H_    0.093988 0.496407 0.900053 0.175106
H12   H     H_    0.906906 0.513720 0.099837 0.188626
H13   H     H_    0.336254 0.120501 0.529037 0.218553
H14   H     H_    0.636691 0.844669 0.449547 0.215494
H15   H     H_    0.664946 0.117687 0.467548 0.217973
H16   H     H_    0.379219 0.829953 0.556976 0.228453
H17   H     H_    0.836254 0.620501 0.529037 0.218553
H18   H     H_    0.136691 0.344669 0.449547 0.215494
H19   H     H_    0.164946 0.617687 0.467548 0.217973
H20   H     H_    0.879218 0.329953 0.556977 0.228453
H21   H     H_    0.638314 0.722814 0.739625 0.159753
H22   H     H_    0.307277 0.211740 0.217229 0.169019
H23   H     H_    0.331687 0.751118 0.241397 0.173598
H24   H     H_    0.709861 0.187896 0.787026 0.171643
H25   H     H_    0.138314 0.222814 0.739625 0.159753
H26   H     H_    0.807277 0.711740 0.217229 0.169019
H27   H     H_    0.831687 0.251117 0.241397 0.173598
H28   H     H_    0.209862 0.687895 0.787026 0.171643
H29   H     H_    0.658727 0.996071 0.038515 0.157848
H30   H     H_    0.342015 0.013504 0.961565 0.157770
H31   H     H_    0.158727 0.496071 0.038515 0.157848
H32   H     H_    0.842015 0.513503 0.961565 0.157770
H33   H     H_    0.536047 0.996009 0.782060 0.131555
H34   H     H_    0.464034 0.001849 0.217593 0.169011
H35   H     H_    0.036047 0.496009 0.782060 0.131555
H36   H     H_    0.964034 0.501849 0.217593 0.169011
H37   H     H_    0.362276 0.005474 0.653654 0.151935
H38   H     H_    0.637636 0.999693 0.346585 0.154878
H39   H     H_    0.862276 0.505474 0.653654 0.151935
H40   H     H_    0.137636 0.499693 0.346585 0.154878
H41   H     H_    0.677016 0.997831 0.202443 0.153410
H42   H     H_    0.323435 0.009792 0.797892 0.156634
H43   H     H_    0.177016 0.497830 0.202443 0.153410
H44   H     H_    0.823435 0.509792 0.797892 0.156634
N1    N     N_R   0.549130 0.000000 0.284090 -0.105170
N2    N     N_R   0.450870 0.000000 0.715910 -0.092274
N3    N     N_R   0.049130 0.500000 0.284090 -0.105170
N4    N     N_R   0.950870 0.500000 0.715910 -0.092274
O1    O     O_R   0.541320 0.066090 0.608930 -0.582593
O2    O     O_R   0.458680 0.933910 0.391070 -0.594164
O3    O     O_R   0.458680 0.066090 0.391070 -0.569212
O4    O     O_R   0.541320 0.933910 0.608930 -0.579868
O5    O     O_R   0.041320 0.566090 0.608930 -0.582593
O6    O     O_R   0.958680 0.433910 0.391070 -0.594164
O7    O     O_R   0.958680 0.566090 0.391070 -0.569212
O8    O     O_R   0.041320 0.433910 0.608930 -0.579868
O9    O     O_R   0.572880 0.066110 0.470280 -0.605517
O10   O     O_R   0.427120 0.933890 0.529720 -0.616396
O11   O     O_R   0.427120 0.066110 0.529720 -0.616364
O12   O     O_R   0.572880 0.933890 0.470280 -0.627176
O13   O     O_R   0.072880 0.566110 0.470280 -0.605517
O14   O     O_R   0.927120 0.433890 0.529720 -0.616396
O15   O     O_R   0.927120 0.566110 0.529720 -0.616364
O16   O     O_R   0.072880 0.433890 0.470280 -0.627176
Zn1   Zn    Zn3+2 0.478910 0.000000 0.592580 0.998818
Zn2   Zn    Zn3+2 0.521090 0.000000 0.407420 0.985714
Zn3   Zn    Zn3+2 0.978910 0.500000 0.592580 0.998818
Zn4   Zn    Zn3+2 0.021090 0.500000 0.407420 0.985714
C113  C     C_2   0.414432 0.162550 0.262914 0.923340
O17   O     O_2   0.464472 0.178589 0.296526 -0.613265
O18   O     O_R   0.401508 0.150490 0.170159 -0.816795
H45   H     H_    0.437540 0.154567 0.138705 0.345526
C114  C     C_2   0.577749 0.835527 0.736068 0.895027
O19   O     O_2   0.524169 0.840702 0.726955 -0.617120
O20   O     O_R   0.611889 0.849052 0.819422 -0.810215
H46   H     H_    0.587254 0.863965 0.866437 0.337363
C115  C     C_2   0.598090 0.150944 0.744140 0.912804
O21   O     O_2   0.548929 0.172228 0.715390 -0.607147
O22   O     O_R   0.612589 0.133694 0.835431 -0.826193
H47   H     H_    0.578264 0.139281 0.870093 0.346428
C116  C     C_2   0.376005 0.876579 0.250764 0.898807
O23   O     O_2   0.367432 0.937539 0.255949 -0.648176
O24   O     O_R   0.387800 0.849086 0.169644 -0.831906
H48   H     H_    0.389342 0.884779 0.120972 0.343192
C117  C     C_2   0.914432 0.662549 0.262914 0.923340
O25   O     O_2   0.964472 0.678588 0.296526 -0.613265
O26   O     O_R   0.901508 0.650490 0.170159 -0.816795
H49   H     H_    0.937540 0.654567 0.138705 0.345527
C118  C     C_2   0.077749 0.335527 0.736068 0.895027
O27   O     O_2   0.024169 0.340703 0.726955 -0.617121
O28   O     O_R   0.111889 0.349052 0.819423 -0.810214
H50   H     H_    0.087254 0.363965 0.866437 0.337362
C119  C     C_2   0.098090 0.650944 0.744141 0.912805
O29   O     O_2   0.048929 0.672227 0.715390 -0.607148
O30   O     O_R   0.112590 0.633693 0.835431 -0.826192
H51   H     H_    0.078264 0.639280 0.870094 0.346427
C120  C     C_2   0.876006 0.376578 0.250764 0.898808
O31   O     O_2   0.867432 0.437538 0.255949 -0.648176
O32   O     O_R   0.887800 0.349085 0.169644 -0.831907
H52   H     H_    0.889342 0.384778 0.120973 0.343192
O33   O     O_3   0.254231 0.072340 0.576016 -0.672293
C121  C     C_3   0.223862 0.021888 0.520178 0.059463
H53   H     H_    0.221738 0.035305 0.447351 0.152015
H54   H     H_    0.178267 0.015317 0.536192 0.147163
C122  C     C_3   0.256435 0.954539 0.537175 -0.336817
H55   H     H_    0.301440 0.960154 0.519069 0.228817
H56   H     H_    0.260368 0.940916 0.609980 0.226598
C123  C     C_3   0.224311 0.897286 0.481291 -0.910908
H57   H     H_    0.178845 0.891060 0.497202 0.264353
H58   H     H_    0.248127 0.848884 0.497299 0.274097
H59   H     H_    0.222449 0.908293 0.408080 0.269961
O34   O     O_3   0.623677 0.775158 0.323222 -0.653695
C124  C     C_3   0.577426 0.726707 0.314065 0.056347
H60   H     H_    0.566869 0.711389 0.381592 0.146008
H61   H     H_    0.589471 0.680693 0.277919 0.141807
C125  C     C_3   0.522471 0.757640 0.259384 -0.275231
H62   H     H_    0.508168 0.802030 0.295885 0.234477
H63   H     H_    0.532892 0.775433 0.192918 0.236842
C126  C     C_3   0.472433 0.705483 0.243933 -0.944414
H64   H     H_    0.486510 0.659712 0.210159 0.257825
H65   H     H_    0.434179 0.727599 0.199736 0.303211
H66   H     H_    0.458679 0.690342 0.309313 0.260726
O35   O     O_3   0.743893 0.071020 0.407770 -0.670392
C127  C     C_3   0.779390 0.019034 0.452437 0.064784
H67   H     H_    0.787363 0.027077 0.526888 0.147160
H68   H     H_    0.822488 0.017510 0.426749 0.147077
C128  C     C_3   0.748240 0.950457 0.434496 -0.346445
H69   H     H_    0.706393 0.950565 0.463352 0.221162
H70   H     H_    0.737920 0.942065 0.360492 0.227103
C129  C     C_3   0.786338 0.892213 0.477204 -0.916936
H71   H     H_    0.828419 0.890538 0.449168 0.265516
H72   H     H_    0.762674 0.843279 0.462352 0.271469
H73   H     H_    0.795881 0.898457 0.551614 0.267589
O36   O     O_3   0.392155 0.748888 0.670247 -0.639095
C130  C     C_3   0.438063 0.705142 0.653629 0.120745
H74   H     H_    0.471423 0.736052 0.624558 0.181462
H75   H     H_    0.424085 0.663650 0.604347 0.107822
C131  C     C_3   0.466965 0.673596 0.742728 -0.316151
H76   H     H_    0.486716 0.714393 0.788808 0.253913
H77   H     H_    0.432970 0.646518 0.775371 0.219410
C132  C     C_3   0.514759 0.623389 0.727752 -0.978178
H78   H     H_    0.495060 0.579735 0.686999 0.266856
H79   H     H_    0.536890 0.603993 0.793894 0.273848
H80   H     H_    0.548154 0.648468 0.692027 0.264460
O37   O     O_3   0.754231 0.572340 0.576016 -0.672293
C133  C     C_3   0.723862 0.521888 0.520178 0.059462
H81   H     H_    0.721738 0.535305 0.447351 0.152015
H82   H     H_    0.678267 0.515317 0.536192 0.147163
C134  C     C_3   0.756435 0.454539 0.537175 -0.336817
H83   H     H_    0.801440 0.460154 0.519069 0.228817
H84   H     H_    0.760368 0.440916 0.609980 0.226599
C135  C     C_3   0.724311 0.397286 0.481292 -0.910909
H85   H     H_    0.678845 0.391060 0.497202 0.264353
H86   H     H_    0.748127 0.348884 0.497299 0.274097
H87   H     H_    0.722449 0.408292 0.408081 0.269961
O38   O     O_3   0.123677 0.275158 0.323222 -0.653695
C136  C     C_3   0.077426 0.226707 0.314065 0.056346
H88   H     H_    0.066869 0.211389 0.381592 0.146008
H89   H     H_    0.089471 0.180693 0.277919 0.141807
C137  C     C_3   0.022471 0.257640 0.259383 -0.275230
H90   H     H_    0.008168 0.302030 0.295885 0.234477
H91   H     H_    0.032892 0.275432 0.192918 0.236842
C138  C     C_3   0.972433 0.205483 0.243933 -0.944414
H92   H     H_    0.986511 0.159711 0.210159 0.257825
H93   H     H_    0.934179 0.227598 0.199736 0.303211
H94   H     H_    0.958679 0.190341 0.309313 0.260726
O39   O     O_3   0.243892 0.571020 0.407769 -0.670392
C139  C     C_3   0.279391 0.519034 0.452433 0.064787
H95   H     H_    0.287367 0.527077 0.526883 0.147157
H96   H     H_    0.322487 0.517510 0.426739 0.147077
C140  C     C_3   0.248240 0.450457 0.434496 -0.346443
H97   H     H_    0.206394 0.450566 0.463357 0.221162
H98   H     H_    0.237916 0.442065 0.360492 0.227101
C141  C     C_3   0.286339 0.392213 0.477199 -0.916931
H99   H     H_    0.328418 0.390537 0.449157 0.265516
H100  H     H_    0.262673 0.343280 0.462352 0.271469
H101  H     H_    0.295886 0.398458 0.551610 0.267588
O40   O     O_3   0.892155 0.248889 0.670248 -0.639096
C142  C     C_3   0.938063 0.205143 0.653630 0.120745
H102  H     H_    0.971423 0.236052 0.624560 0.181463
H103  H     H_    0.924085 0.163650 0.604348 0.107822
C143  C     C_3   0.966965 0.173597 0.742730 -0.316152
H104  H     H_    0.986716 0.214395 0.788810 0.253913
H105  H     H_    0.932969 0.146519 0.775373 0.219409
C144  C     C_3   0.014758 0.123390 0.727755 -0.978178
H106  H     H_    0.995060 0.079736 0.687002 0.266856
H107  H     H_    0.036889 0.103994 0.793898 0.273847
H108  H     H_    0.048154 0.148469 0.692030 0.264460

loop_
_geom_bond_atom_site_label_1
_geom_bond_atom_site_label_2
_ccdc_geom_bond_type
C141  H100  S    
O28   H50   S    
C88   C96   A    
C69   C118  S    
C47   H31   S    
C140  H98   S    
C112  O40   S    
C118  O27   D    
O9    Zn2   S    
C5    C56   S    
C19   C23   A    
C142  H102  S    
C139  C140  S    
N3    Zn4   S    
C23   H40   S    
C64   C72   A    
C53   C69   A    
O34   C124  S    
C76   C84   A    
C110  O38   S    
C123  H57   S    
C46   H30   S    
O33   C121  S    
C58   H22   S    
C122  C123  S    
C99   C108  A    
C62   C70   A    
C98   C105  A    
C57   C89   A    
C32   C36   A    
C138  H93   S    
C78   H17   S    
C51   C75   A    
C75   H16   S    
O14   Zn3   S    
C50   C74   A    
C42   C46   A    
C132  H78   S    
C121  H54   S    
C114  O20   S    
C74   H13   S    
C10   C94   A    
C27   N3    A    
C73   H14   S    
C64   H28   S    
C63   C95   A    
C28   N4    A    
C124  C125  S    
C33   C45   A    
C127  H67   S    
C48   H32   S    
C117  O26   S    
O40   C142  S    
C144  H106  S    
C7    O7    A    
C41   H9    S    
C37   C42   A    
C115  O22   S    
C14   C90   A    
C50   C66   A    
C86   C94   A    
C59   C67   A    
C85   C93   A    
C58   C66   A    
C40   C43   A    
C106  O34   S    
C8    O16   A    
C128  H69   S    
C29   C33   A    
C15   H7    S    
C135  H85   S    
C71   C120  S    
C61   C93   A    
C7    O15   A    
C129  H72   S    
O35   C127  S    
C4    O4    A    
C36   C48   A    
C25   H34   S    
C34   C46   A    
C5    O5    A    
C57   H21   S    
C28   H35   S    
C8    O8    A    
C18   H42   S    
C60   H24   S    
C97   C102  A    
C52   C68   A    
C3    O3    A    
C143  H104  S    
N1    Zn2   S    
C81   C89   A    
C78   C86   A    
C131  C132  S    
C130  H75   S    
O7    Zn4   S    
C22   H37   S    
C17   H41   S    
O26   H49   S    
C80   H19   S    
C83   C99   A    
C136  H88   S    
C140  C141  S    
C45   H29   S    
C118  O28   S    
C2    O2    A    
C123  H58   S    
C117  O25   D    
C17   C33   A    
C74   C82   A    
C6    C55   S    
C19   H43   S    
O2    Zn2   S    
C73   C81   A    
C125  H62   S    
C88   C104  A    
C3    C50   S    
C3    O11   A    
C120  O31   D    
C60   C92   A    
C25   C29   A    
C124  H61   S    
C65   C114  S    
C129  H73   S    
C105  O33   S    
C30   C34   A    
O10   Zn1   S    
C27   C31   A    
O30   H51   S    
C84   C100  A    
C75   C83   A    
C20   C24   A    
C6    O14   A    
C28   C32   A    
C138  H94   S    
C139  H95   S    
C64   C96   A    
C143  C144  S    
C128  H70   S    
C113  O18   S    
C57   C65   A    
C39   C40   A    
C134  H84   S    
C121  H53   S    
C27   H36   S    
C20   H44   S    
O15   Zn3   S    
C22   N2    A    
O13   Zn4   S    
C56   C72   A    
C122  H55   S    
C119  O29   D    
C9    C93   A    
C15   C91   A    
C44   H12   S    
C100  C103  A    
C17   C21   A    
O22   H47   S    
C87   C95   A    
C103  C112  A    
C142  H103  S    
C104  C111  A    
C111  O39   S    
C113  O17   D    
C26   H33   S    
C53   C77   A    
O18   H45   S    
N4    Zn3   S    
C37   C38   A    
C24   H39   S    
C15   C111  A    
C11   H3    S    
C134  C135  S    
C55   C79   A    
C132  H79   S    
O32   H52   S    
C54   C70   A    
C16   C112  A    
C56   C80   A    
O39   C139  S    
C142  C143  S    
O3    Zn2   S    
C116  O24   S    
C124  H60   S    
C7    C54   S    
C126  H65   S    
C144  H107  S    
C51   C67   A    
C21   H38   S    
C62   H26   S    
C18   C34   A    
C60   C68   A    
C79   C87   A    
C49   C65   A    
C38   C41   A    
C87   C103  A    
C97   C106  A    
C123  H59   S    
N2    Zn1   S    
C126  H64   S    
C138  H92   S    
C2    O10   A    
C16   C92   A    
C70   C117  S    
C62   C94   A    
C11   C107  A    
C125  H63   S    
O5    Zn3   S    
C144  H108  S    
C49   C73   A    
C16   H8    S    
C10   C106  A    
C133  C134  S    
O6    Zn4   S    
C5    O13   A    
C137  H90   S    
C39   C44   A    
O1    Zn1   S    
C86   C102  A    
C135  H86   S    
C43   H11   S    
C133  H82   S    
O37   C133  S    
C85   C101  A    
C141  H99   S    
C42   H10   S    
C12   C108  A    
C59   C91   A    
C130  C131  S    
O12   Zn2   S    
C14   C110  A    
C107  O35   S    
O36   C130  S    
C100  C107  A    
C99   C104  A    
C4    O12   A    
C141  H101  S    
C13   C89   A    
C18   C22   A    
C21   N1    A    
C66   C113  S    
O11   Zn1   S    
C14   H6    S    
C139  H96   S    
C43   C47   A    
C52   C76   A    
C121  C122  S    
C10   H2    S    
C8    C53   S    
C132  H80   S    
C13   H5    S    
C130  H74   S    
C24   N4    A    
C26   C30   A    
C72   C119  S    
C63   H27   S    
C13   C109  A    
C122  H56   S    
C98   C101  A    
C83   C91   A    
C82   C90   A    
O8    Zn3   S    
C4    C49   S    
C58   C90   A    
C61   C69   A    
C136  H89   S    
C133  H81   S    
C101  C110  A    
C9    H1    S    
O20   H46   S    
C80   C88   A    
C131  H77   S    
C143  H105  S    
C61   H25   S    
C114  O19   D    
C134  H83   S    
C81   C97   A    
C68   C115  S    
C77   C85   A    
C137  C138  S    
C79   H20   S    
C129  H71   S    
C108  O36   S    
C1    O9    A    
C120  O32   S    
C54   C78   A    
C127  H68   S    
C26   N2    A    
C126  H66   S    
C31   C35   A    
C77   H18   S    
C32   C40   A    
C109  O37   S    
C115  O21   D    
C1    C52   S    
C55   C71   A    
C82   C98   A    
C131  H76   S    
C2    C51   S    
C25   N1    A    
C1    O1    A    
O24   H48   S    
C20   C36   A    
C128  C129  S    
O16   Zn4   S    
C11   C95   A    
O38   C136  S    
C127  C128  S    
C135  H87   S    
C137  H91   S    
C116  O23   D    
C136  C137  S    
C29   C37   A    
C140  H97   S    
C31   C39   A    
C76   H15   S    
C41   C45   A    
C12   C96   A    
C102  C109  A    
C19   C35   A    
C84   C92   A    
C30   C38   A    
C6    O6    A    
C35   C47   A    
C67   C116  S    
C119  O30   S    
C9    C105  A    
C63   C71   A    
C125  C126  S    
C59   H23   S    
O4    Zn1   S    
C44   C48   A    
C23   N3    A    
C12   H4    S    
