data_mof_unit_33649.cif
_audit_creation_date              2012-12-11T15:57:34-0500
_audit_creation_method            fapswitch 2.2
_symmetry_space_group_name_H-M    P1
_symmetry_Int_Tables_number       1
_space_group_crystal_system       triclinic
_cell_length_a                    10.714922
_cell_length_b                    10.782432
_cell_length_c                    17.026808
_cell_angle_alpha                 99.724022
_cell_angle_beta                  99.645259
_cell_angle_gamma                 61.35741
_cell_volume                      1693.07970616

loop_
_atom_site_label
_atom_site_type_symbol
_atom_type_description
_atom_site_fract_x
_atom_site_fract_y
_atom_site_fract_z
_atom_type_partial_charge
C1    C     C_R   0.355344 0.773972 0.400973 0.562090
C2    C     C_2   0.829245 0.330991 0.159329 -0.100209
C3    C     C_2   0.853615 0.218562 0.195092 -0.156041
C4    C     C_2   0.825356 0.234660 0.277656 -0.164440
C5    C     C_2   0.332607 0.844752 0.330635 -0.111005
C6    C     C_2   0.343037 0.826359 0.158521 -0.111362
C7    C     C_2   0.428662 0.860200 0.214796 -0.163691
C8    C     C_2   0.444673 0.830084 0.297380 -0.159925
C9    C     C_2   0.320694 0.323021 0.649241 -0.152013
C10   C     C_2   0.332561 0.333259 0.823742 -0.093607
C11   C     C_2   0.440419 0.238355 0.780246 0.214576
C12   C     C_R   0.369576 0.346456 0.357187 0.549804
C13   C     C_2   0.420153 0.221263 0.693129 -0.134842
C14   C     C_1   0.817419 0.342448 0.708735 -0.013566
C15   C     C_1   0.844707 0.313694 0.776303 0.035703
C16   C     C_1   0.358591 0.763988 0.713539 -0.021247
C17   C     C_1   0.325858 0.811315 0.780405 -0.018002
C18   C     C_R   0.894116 0.308014 0.086708 0.563308
C19   C     C_R   0.319026 0.299642 0.119748 0.547417
C20   C     C_R   0.293855 0.891997 0.084150 0.544377
C21   C     C_R   0.886198 0.296765 0.858503 0.594788
C22   C     C_R   0.309329 0.293548 0.894841 0.562307
C23   C     C_R   0.775889 0.377147 0.404600 0.554215
C24   C     C_R   0.280459 0.881057 0.857147 0.543778
C25   C     C_R   0.381389 0.714183 0.631390 0.557379
C26   C     C_R   0.365888 0.345549 0.580062 0.551619
C27   C     C_R   0.772790 0.381391 0.629739 0.539712
C28   C     C_1   0.343082 0.336226 0.273860 -0.035797
C29   C     C_1   0.331569 0.326500 0.203013 -0.034462
C30   C     C_2   0.846340 0.330311 0.331902 -0.113880
Cr1   Cr    Cr6+3 0.608020 0.610770 0.522990 1.037152
Cr2   Cr    Cr6+3 0.289390 0.599570 0.488050 1.032825
Cr3   Cr    Cr6+3 0.602610 0.289690 0.489020 1.032165
Cr4   Cr    Cr6+3 0.053780 0.052210 0.965970 1.110134
Cr5   Cr    Cr6+3 0.060060 0.372530 0.992430 1.045562
Cr6   Cr    Cr6+3 0.372600 0.061970 0.991430 1.095255
H1    H     H_    0.898776 0.111644 0.164566 0.164714
H2    H     H_    0.508466 0.131740 0.664754 0.183887
H3    H     H_    0.237563 0.417637 0.796976 0.064376
H4    H     H_    0.227003 0.411437 0.673083 0.103383
H5    H     H_    0.780492 0.171009 0.292417 0.165250
H6    H     H_    0.779972 0.438081 0.189470 0.110265
H7    H     H_    0.895827 0.389885 0.317203 0.109992
H8    H     H_    0.483853 0.915129 0.201322 0.163518
H9    H     H_    0.551041 0.789302 0.329269 0.160339
H10   H     H_    0.290989 0.768579 0.172403 0.113309
H11   H     H_    0.225971 0.890003 0.298965 0.111855
O1    O     O_R   0.749250 0.499990 0.439200 -0.514697
O2    O     O_R   0.299400 0.468710 0.556310 -0.509522
O3    O     O_R   0.489240 0.256450 0.560730 -0.506705
O4    O     O_R   0.723350 0.306730 0.584410 -0.487569
O5    O     O_3   0.500010 0.500010 0.500020 -0.276515
O6    O     O_R   0.170650 0.915100 0.051290 -0.515193
O7    O     O_R   0.941960 0.184500 0.049060 -0.481901
O8    O     O_R   0.922640 0.402670 0.071640 -0.510749
O9    O     O_R   0.196880 0.368740 0.083740 -0.499906
O10   O     O_R   0.411120 0.181190 0.091480 -0.507113
O11   O     O_R   0.364220 0.944920 0.062310 -0.501101
O12   O     O_R   0.477870 0.725740 0.440280 -0.492890
O13   O     O_R   0.158740 0.906940 0.874970 -0.495046
O14   O     O_R   0.930920 0.176940 0.885610 -0.423812
O15   O     O_R   0.910730 0.394510 0.895320 -0.523244
O16   O     O_R   0.185840 0.361180 0.920280 -0.513293
O17   O     O_R   0.399210 0.173040 0.915160 -0.421229
O18   O     O_R   0.353170 0.937370 0.898860 -0.478764
O19   O     O_3   0.162150 0.162240 0.983280 -0.287402
O20   O     O_R   0.260770 0.742210 0.412610 -0.506900
O21   O     O_R   0.297990 0.466320 0.394220 -0.497587
O22   O     O_R   0.487720 0.253870 0.385870 -0.513994
O23   O     O_R   0.721940 0.304340 0.422320 -0.497295
O24   O     O_R   0.750770 0.502570 0.614050 -0.510856
O25   O     O_R   0.479280 0.728140 0.602370 -0.482565
O26   O     O_R   0.262290 0.744790 0.587460 -0.502932
S1    S     S_3+6 0.614632 0.123962 0.823358 0.028102
O27   O     O_2   0.647319 0.190265 0.903847 -0.249126
O28   O     O_2   0.622933 0.984004 0.833079 -0.276616
O29   O     O_3   0.737372 0.094472 0.762905 -0.533230
H12   H     H_    0.757087 0.002398 0.730967 0.348692

loop_
_geom_bond_atom_site_label_1
_geom_bond_atom_site_label_2
_ccdc_geom_bond_type
C19   O9    A    
C12   O22   A    
C2    C18   S    
Cr1   O5    S    
Cr4   O19   S    
C7    C8    S    
O29   H12   S    
C10   C22   S    
Cr3   O5    S    
C5    H11   S    
S1    O28   D    
C12   C28   S    
C1    C5    S    
C28   C29   T    
Cr6   O11   S    
C26   O3    A    
Cr6   O19   S    
C4    H5    S    
Cr1   O12   S    
C9    C13   D    
C8    H9    S    
Cr2   O5    S    
C22   O16   A    
C16   C17   T    
S1    O29   S    
C14   C27   S    
C21   O14   A    
Cr3   O22   S    
Cr2   O21   S    
Cr1   O24   S    
Cr4   O13   S    
C23   O23   A    
C27   O4    A    
C9    C26   S    
C17   C24   S    
S1    O27   D    
Cr5   O8    S    
C23   C30   S    
Cr6   O10   S    
C26   O2    A    
Cr2   O26   S    
Cr6   O18   S    
Cr5   O19   S    
Cr3   O3    S    
Cr4   O14   S    
C19   O10   A    
C10   H3    S    
C12   O21   A    
C24   O13   A    
C13   H2    S    
C25   O25   A    
C7    H8    S    
C21   O15   A    
C24   O18   A    
Cr2   O20   S    
C18   O8    A    
Cr1   O25   S    
Cr4   O7    S    
Cr1   O1    S    
Cr3   O23   S    
C30   H7    S    
C20   O11   A    
C3    C4    S    
C19   C29   S    
C27   O24   A    
C16   C25   S    
C23   O1    A    
C6    H10   S    
Cr5   O9    S    
C20   O6    A    
C11   S1    S    
C5    C8    D    
C6    C7    D    
Cr3   O4    S    
C6    C20   S    
C1    O12   A    
C2    C3    D    
C11   C13   S    
C2    H6    S    
C1    O20   A    
Cr5   O15   S    
C25   O26   A    
C9    H4    S    
Cr2   O2    S    
C10   C11   D    
C18   O7    A    
C22   O17   A    
C15   C21   S    
C3    H1    S    
Cr4   O6    S    
C14   C15   T    
Cr5   O16   S    
Cr6   O17   S    
C4    C30   D    
