data_mof_unit_47688.cif
_audit_creation_date              2012-12-10T17:01:11-0500
_audit_creation_method            fapswitch 2.2
_symmetry_space_group_name_H-M    P1
_symmetry_Int_Tables_number       1
_space_group_crystal_system       triclinic
_cell_length_a                    15.675223
_cell_length_b                    15.219857
_cell_length_c                    9.834503
_cell_angle_alpha                 90.000061
_cell_angle_beta                  59.78131
_cell_angle_gamma                 90.0
_cell_volume                      2027.43100987

loop_
_atom_site_label
_atom_site_type_symbol
_atom_type_description
_atom_site_fract_x
_atom_site_fract_y
_atom_site_fract_z
_atom_type_partial_charge
C1    C     C_R   0.373713 0.121086 0.561207 0.813758
C2    C     C_R   0.626286 0.878914 0.438793 0.813755
C3    C     C_R   0.627139 0.120332 0.438210 0.843392
C4    C     C_R   0.372861 0.879668 0.561789 0.843393
C5    C     C_R   0.872861 0.620332 0.561790 0.843391
C6    C     C_R   0.127139 0.379668 0.438210 0.843392
C7    C     C_R   0.126287 0.621085 0.438793 0.813762
C8    C     C_R   0.873712 0.378915 0.561207 0.813770
C9    C     C_2   0.511603 0.999989 0.915381 -0.080107
C10   C     C_2   0.488397 0.000010 0.084619 -0.080105
C11   C     C_2   0.011603 0.500010 0.915381 -0.080101
C12   C     C_2   0.988397 0.499989 0.084619 -0.080101
C13   C     C_2   0.299419 0.810364 0.596933 0.005414
C14   C     C_2   0.700581 0.189636 0.403067 0.005417
C15   C     C_2   0.693381 0.804235 0.405892 0.004960
C16   C     C_2   0.306618 0.195764 0.594109 0.004961
C17   C     C_2   0.806614 0.304240 0.594110 0.004965
C18   C     C_2   0.193384 0.695762 0.405891 0.004963
C19   C     C_2   0.200581 0.310364 0.403067 0.005409
C20   C     C_2   0.799419 0.689636 0.596933 0.005408
C21   C     C_2   0.252647 0.811687 0.513814 -0.215670
C22   C     C_2   0.747352 0.188313 0.486187 -0.215678
C23   C     C_2   0.683783 0.757579 0.529202 -0.228042
C24   C     C_2   0.316217 0.242421 0.470798 -0.228045
C25   C     C_2   0.816215 0.257579 0.470801 -0.228058
C26   C     C_2   0.183783 0.742421 0.529200 -0.228051
C27   C     C_2   0.247353 0.311687 0.486185 -0.215664
C28   C     C_2   0.752647 0.688313 0.513815 -0.215661
Cu1   Cu    Cu3+1 0.522650 0.000000 0.349410 0.917973
Cu2   Cu    Cu3+1 0.477350 0.000000 0.650590 0.917973
Cu3   Cu    Cu3+1 0.022650 0.500000 0.349410 0.917972
Cu4   Cu    Cu3+1 0.977350 0.500000 0.650590 0.917972
H1    H     H_    0.628922 0.999994 0.032176 0.186687
H2    H     H_    0.371078 0.000005 0.967824 0.186687
H3    H     H_    0.128922 0.500005 0.032176 0.186686
H4    H     H_    0.871078 0.499995 0.967824 0.186685
H5    H     H_    0.732440 0.136289 0.570999 0.146932
H6    H     H_    0.267560 0.863711 0.429001 0.146933
H7    H     H_    0.372029 0.224492 0.351600 0.164198
H8    H     H_    0.627972 0.775509 0.648400 0.164198
H9    H     H_    0.127969 0.724494 0.648399 0.164199
H10   H     H_    0.872031 0.275505 0.351603 0.164200
H11   H     H_    0.767559 0.636288 0.429004 0.146933
H12   H     H_    0.232440 0.363712 0.570997 0.146933
H13   H     H_    0.411613 0.000021 0.177687 0.154505
H14   H     H_    0.588387 0.999979 0.822313 0.154505
H15   H     H_    0.911613 0.499979 0.177687 0.154504
H16   H     H_    0.088387 0.500021 0.822313 0.154504
N1    N     N_2   0.443290 0.000000 0.876860 -0.282639
N2    N     N_2   0.556710 0.000000 0.123140 -0.282638
N3    N     N_2   0.943290 0.500000 0.876860 -0.282638
N4    N     N_2   0.056710 0.500000 0.123140 -0.282638
O1    O     O_R   0.422430 0.089640 0.419570 -0.590748
O2    O     O_R   0.577570 0.910360 0.580430 -0.590747
O3    O     O_R   0.577570 0.089640 0.580430 -0.586789
O4    O     O_R   0.422430 0.910360 0.419570 -0.586789
O5    O     O_R   0.922430 0.589640 0.419570 -0.586787
O6    O     O_R   0.077570 0.410360 0.580430 -0.586788
O7    O     O_R   0.077570 0.589640 0.580430 -0.590749
O8    O     O_R   0.922430 0.410360 0.419570 -0.590750
O9    O     O_R   0.384170 0.089650 0.673910 -0.566824
O10   O     O_R   0.615830 0.910350 0.326090 -0.566824
O11   O     O_R   0.615830 0.089650 0.326090 -0.565179
O12   O     O_R   0.384170 0.910350 0.673910 -0.565179
O13   O     O_R   0.884170 0.589650 0.673910 -0.565182
O14   O     O_R   0.115830 0.410350 0.326090 -0.565180
O15   O     O_R   0.115830 0.589650 0.326090 -0.566823
O16   O     O_R   0.884170 0.410350 0.673910 -0.566821
C29   C     C_3   0.720693 0.262709 0.283539 -0.404024
C30   C     C_3   0.648911 0.267799 0.221142 -0.828372
H17   H     H_    0.661979 0.213066 0.138294 0.266713
H18   H     H_    0.571200 0.266846 0.319627 0.245302
H19   H     H_    0.661286 0.330187 0.155158 0.233419
H20   H     H_    0.716344 0.327076 0.340249 0.215638
H21   H     H_    0.796919 0.255295 0.182181 0.204471
C31   C     C_3   0.279306 0.737292 0.716462 -0.404029
C32   C     C_3   0.351096 0.732195 0.778843 -0.828383
H22   H     H_    0.428805 0.733146 0.680350 0.245301
H23   H     H_    0.338038 0.786928 0.861688 0.266717
H24   H     H_    0.338721 0.669808 0.844827 0.233418
H25   H     H_    0.203085 0.744711 0.817827 0.204472
H26   H     H_    0.283646 0.672925 0.659760 0.215641
C33   C     C_3   0.229167 0.215692 0.764051 -0.375071
C34   C     C_3   0.146312 0.147824 0.826917 -0.833182
H27   H     H_    0.109939 0.148188 0.754833 0.256223
H28   H     H_    0.175666 0.081046 0.824407 0.248768
H29   H     H_    0.090356 0.164065 0.950424 0.237785
H30   H     H_    0.264310 0.215184 0.837948 0.205577
H31   H     H_    0.195994 0.281768 0.778981 0.204939
C35   C     C_3   0.770830 0.784306 0.235949 -0.375073
C36   C     C_3   0.853689 0.852169 0.173083 -0.833193
H32   H     H_    0.824339 0.918948 0.175600 0.248769
H33   H     H_    0.890066 0.851799 0.245161 0.256228
H34   H     H_    0.909642 0.835930 0.049574 0.237786
H35   H     H_    0.803999 0.718228 0.221018 0.204937
H36   H     H_    0.735687 0.784818 0.162052 0.205579
C37   C     C_3   0.270838 0.715687 0.235948 -0.375071
C38   C     C_3   0.353682 0.647809 0.173079 -0.833187
H37   H     H_    0.390055 0.648160 0.245164 0.256219
H38   H     H_    0.324318 0.581036 0.175584 0.248772
H39   H     H_    0.409641 0.664049 0.049573 0.237784
H40   H     H_    0.235693 0.715190 0.162053 0.205575
H41   H     H_    0.304023 0.781758 0.221019 0.204945
C39   C     C_3   0.729158 0.284317 0.764053 -0.375074
C40   C     C_3   0.646326 0.352208 0.826931 -0.833203
H42   H     H_    0.675702 0.418973 0.824437 0.248781
H43   H     H_    0.609954 0.351874 0.754844 0.256216
H44   H     H_    0.590363 0.335966 0.950433 0.237786
H45   H     H_    0.695959 0.218253 0.778980 0.204955
H46   H     H_    0.764305 0.284800 0.837944 0.205572
C41   C     C_3   0.779308 0.762710 0.716460 -0.404030
C42   C     C_3   0.851090 0.767800 0.778857 -0.828372
H47   H     H_    0.838022 0.713067 0.861705 0.266714
H48   H     H_    0.928802 0.766845 0.680372 0.245302
H49   H     H_    0.838716 0.830187 0.844840 0.233416
H50   H     H_    0.783658 0.827076 0.659749 0.215638
H51   H     H_    0.703083 0.755297 0.817819 0.204471
C43   C     C_3   0.220692 0.237290 0.283540 -0.404029
C44   C     C_3   0.148910 0.232200 0.221143 -0.828373
H52   H     H_    0.071198 0.233155 0.319627 0.245302
H53   H     H_    0.161979 0.286934 0.138294 0.266714
H54   H     H_    0.161284 0.169813 0.155160 0.233417
H55   H     H_    0.296918 0.244702 0.182182 0.204471
H56   H     H_    0.216342 0.172924 0.340252 0.215637

loop_
_geom_bond_atom_site_label_1
_geom_bond_atom_site_label_2
_ccdc_geom_bond_type
Cu3   O14   S    
C21   C26   S    
Cu1   O11   S    
Cu2   O12   S    
C6    O6    A    
C41   C42   S    
C18   C26   D    
C34   H29   S    
Cu4   O6    S    
Cu3   N4    S    
H4    N3    S    
C42   H48   S    
C37   C38   S    
C35   H35   S    
C5    C20   S    
C32   H22   S    
Cu3   O15   S    
C6    C19   S    
Cu2   O2    S    
C17   C39   S    
C34   H28   S    
C39   H45   S    
C32   H24   S    
C23   H8    S    
C24   H7    S    
C4    C13   S    
C1    O1    A    
C43   C44   S    
C42   H47   S    
C3    O3    A    
C27   H12   S    
C21   H6    S    
C33   C34   S    
C19   C43   S    
C22   C25   S    
C24   C27   S    
C41   H50   S    
C18   C37   S    
C19   C27   D    
C9    C10   S    
C37   H40   S    
Cu4   O16   S    
C15   C23   D    
C33   H30   S    
C9    H14   S    
C16   C24   D    
C4    O4    A    
C11   H16   S    
C30   H19   S    
C12   H15   S    
C7    O7    A    
C39   C40   S    
C12   N4    D    
Cu1   N2    S    
C32   H23   S    
C33   H31   S    
C40   H44   S    
C9    N1    D    
C31   C32   S    
C5    O13   A    
C2    O2    A    
C31   H26   S    
C36   H32   S    
C20   C28   D    
H1    N2    S    
C22   H5    S    
C16   C33   S    
Cu3   O8    S    
C31   H25   S    
Cu4   N3    S    
Cu1   Cu2   S    
C36   H33   S    
C20   C41   S    
C40   H43   S    
Cu3   Cu4   S    
C13   C31   S    
C11   C12   S    
C7    C18   S    
C10   H13   S    
C13   C21   D    
C29   H20   S    
C1    C16   S    
C43   H56   S    
C23   C28   S    
C34   H27   S    
C2    C15   S    
C3    C14   S    
C37   H41   S    
C44   H53   S    
Cu2   N1    S    
C8    O16   A    
C38   H38   S    
C14   C29   S    
C10   N2    D    
C30   H17   S    
Cu2   O3    S    
C44   H54   S    
Cu1   O10   S    
H2    N1    S    
C1    O9    A    
C25   H10   S    
C44   H52   S    
C35   H36   S    
Cu1   O4    S    
C3    O11   A    
C38   H39   S    
C40   H42   S    
C4    O12   A    
C28   H11   S    
C8    C17   S    
C5    O5    A    
C41   H51   S    
C17   C25   D    
C14   C22   D    
C8    O8    A    
C36   H34   S    
C39   H46   S    
Cu3   O5    S    
C35   C36   S    
Cu1   O1    S    
C29   H21   S    
C43   H55   S    
C29   C30   S    
C11   N3    D    
C7    O15   A    
C6    O14   A    
C38   H37   S    
Cu2   O9    S    
H3    N4    S    
C30   H18   S    
Cu4   O7    S    
C42   H49   S    
C2    O10   A    
C26   H9    S    
Cu4   O13   S    
C15   C35   S    
