data_mof_unit_9139.cif
_audit_creation_date              2012-12-10T17:07:48-0500
_audit_creation_method            fapswitch 2.2
_symmetry_space_group_name_H-M    P1
_symmetry_Int_Tables_number       1
_space_group_crystal_system       triclinic
_cell_length_a                    10.618737
_cell_length_b                    10.586831
_cell_length_c                    10.036509
_cell_angle_alpha                 89.878863
_cell_angle_beta                  90.618202
_cell_angle_gamma                 90.259339
_cell_volume                      1128.21239809

loop_
_atom_site_label
_atom_site_type_symbol
_atom_type_description
_atom_site_fract_x
_atom_site_fract_y
_atom_site_fract_z
_atom_type_partial_charge
C1    C     C_R   0.485393 0.262940 0.500002 0.893916
C2    C     C_3   0.878377 0.486393 0.499606 0.143865
C3    C     C_3   0.926900 0.623891 0.481631 -0.448590
C4    C     C_3   0.927910 0.404768 0.380386 -0.128693
C5    C     C_2   0.452512 0.931914 0.388946 -0.198625
C6    C     C_2   0.499041 0.872189 0.495959 -0.312187
C7    C     C_2   0.454045 0.068027 0.386262 -0.219949
C8    C     C_2   0.438078 0.135005 0.498298 -0.154779
C9    C     C_2   0.554778 0.586733 0.927649 -0.003775
C10   C     C_2   0.536509 0.595125 0.075590 -0.194197
C11   C     C_R   0.257922 0.494710 0.499585 0.831946
C12   C     C_R   0.500496 0.738209 0.499415 0.937763
C13   C     C_R   0.741791 0.491673 0.500324 0.852915
C14   C     C_3   0.073462 0.433431 0.632629 -0.402682
C15   C     C_3   0.929933 0.435384 0.634316 -0.409149
C16   C     C_3   0.071182 0.625537 0.481154 -0.410288
C17   C     C_3   0.073119 0.404537 0.383448 -0.434701
C18   C     C_3   0.121544 0.489593 0.499052 0.172182
H1    H     H_    0.109218 0.489592 0.718942 0.187581
H2    H     H_    0.901128 0.456836 0.287651 0.137538
H3    H     H_    0.104707 0.666602 0.385579 0.172243
H4    H     H_    0.890611 0.664915 0.386490 0.168211
H5    H     H_    0.421832 0.881789 0.299878 0.169098
H6    H     H_    0.535835 0.922335 0.582024 0.163388
H7    H     H_    0.488524 0.110871 0.295322 0.171544
H8    H     H_    0.436752 0.442541 0.896448 0.151597
H9    H     H_    0.563043 0.682323 0.125446 0.167975
H10   H     H_    0.107944 0.335056 0.645999 0.168972
H11   H     H_    0.487939 0.415817 0.101340 0.156151
H12   H     H_    0.890657 0.340924 0.658334 0.163631
H13   H     H_    0.901099 0.498341 0.716054 0.189251
H14   H     H_    0.106770 0.687163 0.563266 0.169807
H15   H     H_    0.892597 0.685206 0.563399 0.184061
H16   H     H_    0.107720 0.440478 0.286021 0.175242
H17   H     H_    0.112110 0.307736 0.395371 0.159343
N1    N     N_2   0.501360 0.501330 0.852150 -0.216134
N2    N     N_2   0.501390 0.501360 0.147810 -0.200584
O1    O     O_R   0.499980 0.319060 0.613040 -0.626769
O2    O     O_R   0.500020 0.319100 0.386900 -0.618812
O3    O     O_R   0.314770 0.499960 0.613070 -0.626278
O4    O     O_R   0.314820 0.500000 0.386930 -0.621351
O5    O     O_R   0.499980 0.680900 0.613100 -0.599902
O6    O     O_R   0.500020 0.680940 0.386960 -0.615614
O7    O     O_R   0.685180 0.500000 0.613070 -0.612478
O8    O     O_R   0.685230 0.500040 0.386930 -0.625337
Zn1   Zn    Zn3+2 0.499970 0.499970 0.650990 0.933610
Zn2   Zn    Zn3+2 0.500030 0.500030 0.349010 0.918583
C19   C     C_R   0.357195 0.088243 0.609888 0.143532
C20   C     C_R   0.396749 0.097505 0.743850 -0.160921
C21   C     C_R   0.320899 0.050558 0.845866 -0.169063
C22   C     C_R   0.205133 0.993767 0.815473 -0.105498
C23   C     C_R   0.164644 0.984520 0.683037 -0.174028
C24   C     C_R   0.239499 0.032259 0.580892 -0.140240
H18   H     H_    0.487091 0.138561 0.769786 0.134312
H19   H     H_    0.352517 0.057178 0.948523 0.121353
H20   H     H_    0.146942 0.956667 0.894465 0.122435
H21   H     H_    0.075508 0.939856 0.659138 0.115718
H22   H     H_    0.205885 0.024946 0.478908 0.136288
C25   C     C_R   0.641892 0.681296 0.872511 0.230808
C26   C     C_R   0.771215 0.655566 0.872500 -0.151111
C27   C     C_R   0.857753 0.749518 0.837252 -0.186697
C28   C     C_R   0.815648 0.870905 0.805901 -0.125212
C29   C     C_R   0.687417 0.898685 0.811258 -0.175712
C30   C     C_R   0.600619 0.804666 0.845832 -0.154844
H23   H     H_    0.804845 0.563699 0.903884 0.108356
H24   H     H_    0.957476 0.728770 0.836295 0.129920
H25   H     H_    0.882311 0.944262 0.780202 0.120356
H26   H     H_    0.655813 0.993527 0.790012 0.125362
H27   H     H_    0.501716 0.827994 0.852839 0.139476
C31   C     C_R   0.872428 0.271384 0.367890 0.123270
C32   C     C_R   0.906412 0.172520 0.455642 -0.173498
C33   C     C_R   0.858173 0.050572 0.437375 -0.160137
C34   C     C_R   0.777820 0.024574 0.329964 -0.092189
C35   C     C_R   0.745007 0.120627 0.240892 -0.148493
C36   C     C_R   0.790917 0.243256 0.260099 -0.120110
H28   H     H_    0.973204 0.187469 0.535850 0.132820
H29   H     H_    0.884818 0.975552 0.505319 0.124035
H30   H     H_    0.741669 0.929796 0.315220 0.131880
H31   H     H_    0.683639 0.100119 0.156791 0.117071
H32   H     H_    0.763721 0.315953 0.189507 0.121217

loop_
_geom_bond_atom_site_label_1
_geom_bond_atom_site_label_2
_ccdc_geom_bond_type
C10   H9    S    
C11   C18   S    
C16   H3    S    
C1    C8    S    
C34   C35   A    
C14   C18   S    
C4    C31   S    
C7    C8    D    
O3    Zn1   S    
C25   C30   A    
C28   C29   A    
C28   H25   S    
C10   N2    D    
C12   O6    A    
C6    C12   S    
C5    C6    D    
C3    H15   S    
C20   H18   S    
C22   H20   S    
O5    Zn1   S    
C2    C13   S    
C12   O5    A    
C27   H24   S    
C9    N1    D    
C34   H30   S    
N1    Zn1   S    
C31   C32   A    
N2    Zn2   S    
C36   H32   S    
C25   C26   A    
C11   O3    A    
O7    Zn1   S    
C17   C18   S    
O8    Zn2   S    
C19   C24   A    
C35   C36   A    
C22   C23   A    
C5    C7    S    
C26   C27   A    
C9    C25   S    
C2    C4    S    
C8    C19   S    
C33   H29   S    
C5    H5    S    
C6    H6    S    
C21   C22   A    
O4    Zn2   S    
C30   H27   S    
C2    C15   S    
C1    O1    A    
C4    C17   S    
H8    N1    S    
C19   C20   A    
C26   H23   S    
C35   H31   S    
C17   H16   S    
C23   C24   A    
C15   H12   S    
O2    Zn2   S    
C9    C10   S    
C29   H26   S    
C14   H1    S    
C33   C34   A    
C24   H22   S    
C15   H13   S    
C16   H14   S    
C21   H19   S    
C7    H7    S    
C2    C3    S    
C32   C33   A    
C13   O8    A    
C32   H28   S    
C11   O4    A    
C27   C28   A    
O1    Zn1   S    
C23   H21   S    
C1    O2    A    
C29   C30   A    
C4    H2    S    
C16   C18   S    
C20   C21   A    
H11   N2    S    
C31   C36   A    
C14   C15   S    
C3    H4    S    
C17   H17   S    
C14   H10   S    
O6    Zn2   S    
C13   O7    A    
C3    C16   S    
