data_mof_unit_34405.cif
_audit_creation_date              2012-12-11T14:31:06-0500
_audit_creation_method            fapswitch 2.2
_symmetry_space_group_name_H-M    P1
_symmetry_Int_Tables_number       1
_space_group_crystal_system       triclinic
_cell_length_a                    6.963121
_cell_length_b                    14.161405
_cell_length_c                    16.297932
_cell_angle_alpha                 89.999917
_cell_angle_beta                  89.999966
_cell_angle_gamma                 89.610819
_cell_volume                      1607.06250324

loop_
_atom_site_label
_atom_site_type_symbol
_atom_type_description
_atom_site_fract_x
_atom_site_fract_y
_atom_site_fract_z
_atom_type_partial_charge
O1    O     O_R   0.469910 0.836130 0.163900 -0.536950
O2    O     O_R   0.530090 0.163870 0.836100 -0.539269
O3    O     O_R   0.530090 0.163870 0.663900 -0.539268
O4    O     O_R   0.469910 0.836130 0.336100 -0.536950
O5    O     O_R   0.969910 0.663870 0.336100 -0.544521
O6    O     O_R   0.030090 0.336130 0.663900 -0.542173
O7    O     O_R   0.030090 0.336130 0.836100 -0.542175
O8    O     O_R   0.969910 0.663870 0.163900 -0.544522
O9    O     O_R   0.140100 0.847470 0.335520 -0.536960
O10   O     O_R   0.859900 0.152530 0.664480 -0.543150
O11   O     O_R   0.859900 0.152530 0.835520 -0.543150
O12   O     O_R   0.140100 0.847470 0.164480 -0.536960
O13   O     O_R   0.640100 0.652530 0.164480 -0.541014
O14   O     O_R   0.359900 0.347470 0.835520 -0.541573
O15   O     O_R   0.359900 0.347470 0.664480 -0.541573
O16   O     O_R   0.640100 0.652530 0.335520 -0.541014
C1    C     C_R   0.309125 0.866422 0.366669 0.740220
C2    C     C_R   0.690509 0.126822 0.639003 0.747106
C3    C     C_R   0.690509 0.126822 0.860997 0.747107
C4    C     C_R   0.309126 0.866422 0.133332 0.740221
C5    C     C_R   0.811015 0.626286 0.138797 0.731981
C6    C     C_R   0.188936 0.374484 0.860040 0.733415
C7    C     C_R   0.188936 0.374485 0.639960 0.733414
C8    C     C_R   0.811015 0.626285 0.361202 0.731982
O17   O     O_3   0.303300 0.689750 0.250000 -0.377297
O18   O     O_3   0.696700 0.310250 0.750000 -0.376390
O19   O     O_3   0.803300 0.810250 0.250000 -0.361392
O20   O     O_3   0.196700 0.189750 0.750000 -0.368272
V1    V     V_3+5 0.028490 0.761170 0.250000 1.396088
V2    V     V_3+5 0.971510 0.238830 0.750000 1.390974
V3    V     V_3+5 0.528490 0.738830 0.250000 1.384101
V4    V     V_3+5 0.471510 0.261170 0.750000 1.390975
C9    C     C_2   0.823256 0.551302 0.426298 -0.017790
C10   C     C_2   0.173429 0.456880 0.582857 -0.019659
C11   C     C_2   0.173430 0.456879 0.917143 -0.019664
C12   C     C_2   0.823255 0.551305 0.073700 -0.017791
C13   C     C_2   0.325161 0.933978 0.062863 -0.031053
C14   C     C_2   0.675434 0.036443 0.907469 0.014550
C15   C     C_2   0.675436 0.036443 0.592531 0.014551
C16   C     C_2   0.325162 0.933976 0.437139 -0.031054
C17   C     C_2   0.992139 0.523452 0.462625 0.158545
C18   C     C_2   0.001362 0.481003 0.548715 0.172611
C19   C     C_2   0.001363 0.481007 0.951283 0.172617
C20   C     C_2   0.992138 0.523453 0.037373 0.158546
C21   C     C_2   0.487839 0.936190 0.014318 0.198331
C22   C     C_2   0.557113 0.028762 0.975078 0.172654
C23   C     C_2   0.557111 0.028761 0.524923 0.172649
C24   C     C_2   0.487842 0.936188 0.485683 0.198328
C25   C     C_3   0.842627 0.503958 0.609445 -0.743988
H1    H     H_    0.764427 0.569182 0.591357 0.203256
H2    H     H_    0.743896 0.443189 0.614341 0.216209
H3    H     H_    0.900349 0.518065 0.671831 0.194473
C26   C     C_3   0.170911 0.519982 0.410023 -0.759898
H4    H     H_    0.262028 0.459146 0.428129 0.204130
H5    H     H_    0.135031 0.506931 0.344565 0.199498
H6    H     H_    0.250901 0.587154 0.415237 0.219131
C27   C     C_3   0.170907 0.519981 0.089976 -0.759901
H7    H     H_    0.262028 0.459147 0.071869 0.204135
H8    H     H_    0.250894 0.587154 0.084766 0.219133
H9    H     H_    0.135023 0.506926 0.155434 0.199494
C28   C     C_3   0.842642 0.503972 0.890548 -0.744014
H10   H     H_    0.764431 0.569190 0.908643 0.203267
H11   H     H_    0.900382 0.518094 0.828167 0.194471
H12   H     H_    0.743920 0.443201 0.885637 0.216211
C29   C     C_3   0.511886 0.120255 0.020419 -0.823832
H13   H     H_    0.467136 0.107171 0.084677 0.220141
H14   H     H_    0.642451 0.164708 0.024743 0.189379
H15   H     H_    0.397769 0.160805 0.988130 0.214007
C30   C     C_3   0.601232 0.844425 0.003263 -0.765907
H16   H     H_    0.602835 0.822234 0.938539 0.198861
H17   H     H_    0.748264 0.851483 0.028564 0.205479
H18   H     H_    0.533670 0.782020 0.031862 0.191210
C31   C     C_3   0.601245 0.844425 0.496733 -0.765903
H19   H     H_    0.602859 0.822233 0.561458 0.198861
H20   H     H_    0.533683 0.782019 0.468136 0.191212
H21   H     H_    0.748272 0.851487 0.471429 0.205479
C32   C     C_3   0.511876 0.120254 0.479584 -0.823818
H22   H     H_    0.467139 0.107170 0.415324 0.220137
H23   H     H_    0.397745 0.160798 0.511871 0.214008
H24   H     H_    0.642434 0.164713 0.475264 0.189373
C33   C     C_3   0.303544 0.537881 0.604197 -0.819219
H25   H     H_    0.263351 0.566234 0.665431 0.202212
H26   H     H_    0.452927 0.512842 0.607729 0.221854
H27   H     H_    0.293060 0.596887 0.559652 0.218729
C34   C     C_3   0.640878 0.499335 0.443346 -0.836868
H28   H     H_    0.577199 0.477032 0.384047 0.215117
H29   H     H_    0.662375 0.433679 0.479227 0.226356
H30   H     H_    0.541993 0.548141 0.474908 0.226834
C35   C     C_3   0.640872 0.499345 0.056648 -0.836867
H31   H     H_    0.577207 0.477025 0.115945 0.215116
H32   H     H_    0.541983 0.548165 0.025102 0.226827
H33   H     H_    0.662351 0.433700 0.020749 0.226361
C36   C     C_3   0.303562 0.537875 0.895809 -0.819202
H34   H     H_    0.263416 0.566217 0.834565 0.202210
H35   H     H_    0.293048 0.596890 0.940345 0.218730
H36   H     H_    0.452946 0.512831 0.892301 0.221857
C37   C     C_3   0.779342 0.954763 0.867158 -0.830645
H37   H     H_    0.880973 0.979463 0.819671 0.209836
H38   H     H_    0.870797 0.916259 0.911632 0.225805
H39   H     H_    0.675593 0.908616 0.835045 0.210694
C38   C     C_3   0.156348 0.999606 0.047974 -0.804974
H40   H     H_    0.021960 0.958156 0.045723 0.216796
H41   H     H_    0.143908 0.051557 0.098711 0.209513
H42   H     H_    0.167068 0.036893 0.988294 0.231109
C39   C     C_3   0.156345 0.999601 0.452031 -0.804974
H43   H     H_    0.021958 0.958149 0.454280 0.216794
H44   H     H_    0.167064 0.036883 0.511712 0.231107
H45   H     H_    0.143903 0.051555 0.401296 0.209516
C40   C     C_3   0.779351 0.954763 0.632843 -0.830638
H46   H     H_    0.880991 0.979464 0.680326 0.209836
H47   H     H_    0.675605 0.908617 0.664960 0.210694
H48   H     H_    0.870801 0.916258 0.588367 0.225802

loop_
_geom_bond_atom_site_label_1
_geom_bond_atom_site_label_2
_ccdc_geom_bond_type
C12   C35   S    
O17   V3    S    
C32   H22   S    
C25   H1    S    
O18   V4    S    
C38   H40   S    
O12   V1    S    
O19   V1    S    
C31   H19   S    
C26   H5    S    
C10   C18   D    
C19   C20   S    
C33   H27   S    
C33   H25   S    
O15   V4    S    
C5    C12   S    
C26   H4    S    
O16   V3    S    
C6    C11   S    
C39   H44   S    
O11   C3    A    
C36   H34   S    
O8    V1    S    
C40   H47   S    
C34   H28   S    
C27   H8    S    
O1    V3    S    
O3    C2    A    
O2    V4    S    
C17   C18   S    
C30   H17   S    
C9    C34   S    
C37   H38   S    
O11   V2    S    
C25   H2    S    
C10   C33   S    
C35   H32   S    
C11   C19   D    
O9    V1    S    
C7    C10   S    
C32   H23   S    
C38   H41   S    
O7    V2    S    
C31   H20   S    
C30   H16   S    
C14   C37   S    
C33   H26   S    
C37   H37   S    
O5    V1    S    
C11   C36   S    
O17   V1    S    
C39   H45   S    
C34   H29   S    
C21   C30   S    
O20   V4    S    
C22   C29   S    
C40   H48   S    
C27   H9    S    
C29   H14   S    
C21   C22   S    
O19   V3    S    
C1    C16   S    
C28   H12   S    
C2    C15   S    
C3    C14   S    
O10   V2    S    
C23   C24   S    
C20   C27   S    
C29   H15   S    
O12   C4    A    
C28   H11   S    
O8    C5    A    
O13   C5    A    
O3    V4    S    
C35   H33   S    
C17   C26   S    
O4    C1    A    
O9    C1    A    
O6    V2    S    
O18   V2    S    
C36   H36   S    
C31   H21   S    
C12   C20   D    
C23   C32   S    
C13   C21   D    
C37   H39   S    
C19   C28   S    
C15   C23   D    
C34   H30   S    
C16   C24   D    
O1    C4    A    
O2    C3    A    
C24   C31   S    
O13   V3    S    
C25   H3    S    
O14   V4    S    
C38   H42   S    
O7    C6    A    
C39   H43   S    
C8    C9    S    
C9    C17   D    
O14   C6    A    
O20   V2    S    
C40   H46   S    
C13   C38   S    
C4    C13   S    
C32   H24   S    
C27   H7    S    
C36   H35   S    
O5    C8    A    
O10   C2    A    
O6    C7    A    
O15   C7    A    
C28   H10   S    
C26   H6    S    
C14   C22   D    
O4    V3    S    
C18   C25   S    
C15   C40   S    
O16   C8    A    
C29   H13   S    
C30   H18   S    
C35   H31   S    
C16   C39   S    
