data_mof_unit_6716.cif
_audit_creation_date              2012-12-10T17:49:36-0500
_audit_creation_method            fapswitch 2.2
_symmetry_space_group_name_H-M    P1
_symmetry_Int_Tables_number       1
_space_group_crystal_system       triclinic
_cell_length_a                    14.791827
_cell_length_b                    14.735664
_cell_length_c                    15.930393
_cell_angle_alpha                 75.973781
_cell_angle_beta                  103.043275
_cell_angle_gamma                 115.09374
_cell_volume                      3020.8237128

loop_
_atom_site_label
_atom_site_type_symbol
_atom_type_description
_atom_site_fract_x
_atom_site_fract_y
_atom_site_fract_z
_atom_type_partial_charge
C1    C     C_R   0.880496 0.312167 0.512189 0.776355
C2    C     C_3   0.046142 0.413873 0.079179 0.045127
C3    C     C_3   0.996777 0.488232 0.085391 0.049117
C4    C     C_3   0.054536 0.599366 0.037016 -0.005965
C5    C     C_3   0.071148 0.596568 0.944538 0.039575
C6    C     C_1   0.997617 0.493826 0.176584 -0.004574
C7    C     C_1   0.999513 0.493351 0.825271 -0.027553
C8    C     C_1   0.998615 0.496713 0.749104 -0.186661
C9    C     C_R   0.813210 0.203822 0.517809 -0.061332
C10   C     C_R   0.187874 0.796083 0.476070 -0.110020
C11   C     C_R   0.782141 0.026353 0.569803 -0.167759
C12   C     C_R   0.999695 0.499411 0.659505 0.817016
C13   C     C_R   0.849386 0.127378 0.555740 -0.174843
C14   C     C_R   0.710217 0.177173 0.487824 -0.252086
C15   C     C_R   0.639999 0.076086 0.504229 0.092194
C16   C     C_R   0.677788 0.000760 0.547667 0.106629
C17   C     C_R   0.533762 0.049135 0.483969 0.077996
C18   C     C_R   0.466569 0.947718 0.511866 -0.013144
C19   C     C_R   0.507906 0.876939 0.564618 -0.029313
C20   C     C_R   0.611787 0.902365 0.575403 -0.192709
C21   C     C_R   0.492311 0.121282 0.439232 -0.213741
C22   C     C_R   0.390191 0.099005 0.431515 -0.223889
C23   C     C_R   0.119711 0.687903 0.484958 0.825165
C24   C     C_R   0.322753 0.000017 0.456773 0.099160
C25   C     C_R   0.360568 0.922349 0.487649 0.045001
C26   C     C_R   0.217700 0.976117 0.446099 0.264226
C27   C     C_R   0.151406 0.873108 0.459068 -0.215481
C28   C     C_R   0.291634 0.821818 0.486741 -0.272804
C29   C     C_R   0.693469 0.629963 0.332212 -0.306268
C30   C     C_R   0.783855 0.617830 0.363965 0.437237
C31   C     C_R   0.723452 0.524984 0.496994 -0.003918
C32   C     C_R   0.626208 0.529368 0.466822 -0.028727
C33   C     C_R   0.613521 0.586132 0.382165 0.034296
C34   C     C_R   0.000097 0.500179 0.340428 0.829614
C35   C     C_R   0.542138 0.480041 0.516442 -0.018236
C36   C     C_R   0.451164 0.498122 0.482368 -0.009184
C37   C     C_R   0.438493 0.545679 0.394019 0.169672
C38   C     C_R   0.520441 0.594666 0.346506 -0.011670
C39   C     C_R   0.542163 0.408361 0.595668 0.222789
C40   C     C_R   0.458464 0.363058 0.641390 -0.035236
C41   C     C_R   0.373241 0.387196 0.610188 -0.017811
C42   C     C_R   0.371109 0.459868 0.534654 0.016148
C43   C     C_R   0.288419 0.337623 0.653299 -0.247352
C44   C     C_R   0.202892 0.359483 0.623634 0.200365
C45   C     C_3   0.045409 0.408691 0.979553 0.177316
C46   C     C_R   0.288090 0.491360 0.515117 0.103421
C47   C     C_3   0.890562 0.462435 0.935901 -0.271742
C48   C     C_3   0.886378 0.452848 0.035490 0.051266
C49   C     C_1   0.998888 0.497694 0.251302 -0.195707
C50   C     C_3   0.001547 0.488940 0.919163 0.001721
Cu1   Cu    Cu3+1 0.081750 0.475690 0.522550 0.938784
Cu2   Cu    Cu3+1 0.918250 0.524310 0.477450 0.957722
H1    H     H_    0.125474 0.449158 0.108120 0.149638
H2    H     H_    0.002016 0.638562 0.026869 0.122240
H3    H     H_    0.642646 0.847654 0.613604 0.185595
H4    H     H_    0.318461 0.762695 0.492040 0.171316
H5    H     H_    0.071581 0.852255 0.455207 0.163085
H6    H     H_    0.364035 0.159223 0.400648 0.158197
H7    H     H_    0.811492 0.968758 0.602309 0.143955
H8    H     H_    0.929021 0.145782 0.577319 0.185159
H9    H     H_    0.686752 0.238142 0.455682 0.150702
H10   H     H_    0.536663 0.196905 0.410000 0.135947
H11   H     H_    0.289499 0.558149 0.468166 0.160286
H12   H     H_    0.686878 0.672178 0.267057 0.191496
H13   H     H_    0.746429 0.496660 0.562856 0.193634
H14   H     H_    0.871691 0.528850 0.901790 0.144112
H15   H     H_    0.286927 0.279748 0.710318 0.177325
H16   H     H_    0.853777 0.507245 0.039386 0.136613
H17   H     H_    0.150511 0.607655 0.946855 0.202733
N1    N     N_R   0.795410 0.560790 0.443550 -0.203894
N2    N     N_R   0.204590 0.439170 0.556520 -0.234180
O1    O     O_R   0.977910 0.338120 0.529720 -0.610043
O2    O     O_R   0.839850 0.379180 0.491640 -0.580689
O3    O     O_R   0.069060 0.479460 0.639610 -0.610189
O4    O     O_R   0.931000 0.520530 0.601530 -0.577484
O5    O     O_R   0.160150 0.620820 0.508360 -0.589523
O6    O     O_R   0.022090 0.661880 0.470280 -0.554517
O7    O     O_R   0.069000 0.479470 0.398470 -0.572488
O8    O     O_R   0.930940 0.520540 0.360390 -0.560905
N3    N     N_2   0.006117 0.314199 0.134313 -0.382591
H18   H     H_    0.972992 0.311498 0.185676 0.262717
C51   C     C_3   0.071078 0.258175 0.161949 -0.631857
H19   H     H_    0.030221 0.182575 0.199504 0.236184
H20   H     H_    0.139849 0.299554 0.204496 0.193752
H21   H     H_    0.092915 0.245502 0.105025 0.245768
N4    N     N_2   0.151491 0.435001 0.970961 -0.489662
H22   H     H_    0.184743 0.392002 0.017452 0.252674
C52   C     C_3   0.186688 0.457076 0.887322 -0.679825
H23   H     H_    0.264492 0.459417 0.898389 0.237601
H24   H     H_    0.191403 0.533325 0.852177 0.244061
H25   H     H_    0.138756 0.397891 0.846560 0.222187
C53   C     C_2   0.983303 0.304065 0.951904 0.370092
H26   H     H_    0.990062 0.291938 0.889573 0.070657
O9    O     O_2   0.923240 0.233678 0.995087 -0.538054
C54   C     C_2   0.448665 0.783481 0.621474 0.341089
H27   H     H_    0.382060 0.778464 0.643276 0.083931
O10   O     O_2   0.474317 0.711561 0.645572 -0.537237
N5    N     N_2   0.181568 0.056331 0.424376 -0.440722
H28   H     H_    0.218321 0.113010 0.462065 0.246805
C55   C     C_3   0.075119 0.034128 0.397769 -0.691622
H29   H     H_    0.063839 0.106458 0.374257 0.230562
H30   H     H_    0.032815 0.991816 0.453991 0.226901
H31   H     H_    0.045696 0.989939 0.343178 0.237482
C56   C     C_2   0.505262 0.651841 0.257335 0.312138
H32   H     H_    0.443904 0.615057 0.209116 0.079004
O11   O     O_2   0.558317 0.741711 0.238707 -0.531016
C57   C     C_2   0.113539 0.293199 0.668925 0.326317
H33   H     H_    0.056984 0.317824 0.674320 0.130186
O12   O     O_2   0.102229 0.206153 0.703466 -0.585860
C58   C     C_2   0.459049 0.285823 0.721199 0.366036
H34   H     H_    0.404518 0.208028 0.722144 0.060886
O13   O     O_2   0.518148 0.309774 0.786908 -0.477360
N6    N     N_2   0.864211 0.666408 0.313165 -0.375702
H35   H     H_    0.845869 0.642831 0.253399 0.234071
C59   C     C_3   0.908321 0.776021 0.304386 -0.685991
H36   H     H_    0.858638 0.809229 0.256347 0.223453
H37   H     H_    0.982593 0.805813 0.281153 0.232709
H38   H     H_    0.919383 0.799856 0.368168 0.227873
N7    N     N_2   0.340186 0.535051 0.349681 -0.458304
H39   H     H_    0.334543 0.597873 0.307028 0.250161
C60   C     C_3   0.281590 0.439854 0.317845 -0.730830
H40   H     H_    0.202363 0.432558 0.296438 0.239262
H41   H     H_    0.281433 0.374547 0.370381 0.245364
H42   H     H_    0.312914 0.437326 0.261700 0.213979
N8    N     N_2   0.619458 0.369911 0.624197 -0.462430
H43   H     H_    0.646685 0.364770 0.689918 0.302910
C61   C     C_3   0.603009 0.282721 0.587710 -0.690821
H44   H     H_    0.669517 0.262031 0.610114 0.241855
H45   H     H_    0.593273 0.301717 0.515442 0.231921
H46   H     H_    0.535161 0.216776 0.609072 0.229440
C62   C     C_2   0.807885 0.375811 0.893172 0.466941
H47   H     H_    0.824982 0.332858 0.857070 0.061797
O14   O     O_2   0.719549 0.355807 0.896065 -0.467207
N9    N     N_2   0.819130 0.351646 0.072364 -0.364302
H48   H     H_    0.830050 0.289179 0.066759 0.325261
C63   C     C_3   0.771096 0.340292 0.146217 -0.618846
H49   H     H_    0.699046 0.272454 0.145311 0.241856
H50   H     H_    0.753917 0.407467 0.143447 0.220455
H51   H     H_    0.819902 0.328563 0.208274 0.202453
N10   N     N_2   0.051858 0.677650 0.879296 -0.426265
H52   H     H_    0.988021 0.688787 0.880789 0.252326
C64   C     C_3   0.138015 0.770363 0.858632 -0.662593
H53   H     H_    0.114294 0.819852 0.801583 0.235366
H54   H     H_    0.197016 0.753210 0.841134 0.229363
H55   H     H_    0.169449 0.811938 0.914823 0.223708
N11   N     N_2   0.145750 0.663899 0.086804 -0.407667
H56   H     H_    0.167276 0.740353 0.062125 0.264839
C65   C     C_3   0.230235 0.634514 0.122663 -0.689334
H57   H     H_    0.296062 0.700410 0.145609 0.232770
H58   H     H_    0.252809 0.609505 0.073341 0.225544
H59   H     H_    0.211526 0.574616 0.180556 0.235081

loop_
_geom_bond_atom_site_label_1
_geom_bond_atom_site_label_2
_ccdc_geom_bond_type
C10   C27   A    
Cu2   N1    S    
C39   N8    S    
C12   O3    A    
C41   C43   A    
C41   C42   A    
C36   C42   A    
C54   H27   S    
Cu1   O3    S    
C23   O5    A    
C9    C14   A    
C3    C6    S    
C56   O11   D    
C28   H4    S    
C7    C8    T    
C13   H8    S    
C25   C28   A    
C26   C27   A    
C29   C30   A    
Cu2   O6    S    
C48   N9    S    
C36   C37   A    
N10   C64   S    
N6    H35   S    
C20   H3    S    
N4    C52   S    
C15   C16   A    
C29   C33   A    
C3    C48   S    
C44   N2    A    
C31   H13   S    
C18   C19   A    
C42   C46   A    
C45   C53   S    
C9    C13   A    
C58   H34   S    
C53   H26   S    
C60   H42   S    
C38   C56   S    
C31   N1    A    
C35   C36   A    
C59   H37   S    
C47   C48   S    
C5    H17   S    
C57   H33   S    
C65   H59   S    
Cu2   O8    S    
C47   H14   S    
C8    C12   S    
Cu2   O4    S    
C29   H12   S    
C21   C22   A    
C57   O12   D    
C64   H55   S    
C18   C25   A    
Cu1   N2    S    
C63   H51   S    
C11   H7    S    
C53   O9    D    
C56   H32   S    
C30   N1    A    
C47   C50   S    
N11   C65   S    
N7    C60   S    
C2    C45   S    
C1    O1    A    
C60   H41   S    
Cu1   Cu2   S    
C32   C35   A    
C1    C9    S    
N10   H52   S    
N3    C51   S    
Cu2   O2    S    
C27   H5    S    
C39   C40   A    
N4    H22   S    
N3    H18   S    
C40   C58   S    
C62   O14   D    
C14   H9    S    
C55   H31   S    
C23   O6    A    
C47   C62   S    
C35   C39   A    
C43   C44   A    
C61   H45   S    
C37   C38   A    
C34   O8    A    
C11   C16   A    
C31   C32   A    
C37   N7    S    
C52   H25   S    
C16   C20   A    
C59   H38   S    
C4    N11   S    
C55   H30   S    
C17   C18   A    
C60   H40   S    
C24   C25   A    
C46   N2    A    
C26   N5    S    
C65   H58   S    
C63   H50   S    
C40   C41   A    
C52   H24   S    
N5    H28   S    
C51   H20   S    
N8    H43   S    
C64   H54   S    
C5    C50   S    
Cu1   O1    S    
C3    C4    S    
C19   C54   S    
C5    N10   S    
N11   H56   S    
C44   C57   S    
C10   C28   A    
C15   C17   A    
C34   C49   S    
C4    H2    S    
C14   C15   A    
C7    C50   S    
C24   C26   A    
C63   H49   S    
C48   H16   S    
C2    H1    S    
C22   H6    S    
N9    C63   S    
N7    H39   S    
C54   O10   D    
N9    H48   S    
C10   C23   S    
C51   H21   S    
N5    C55   S    
C33   C38   A    
C46   H11   S    
C1    O2    A    
C32   C33   A    
C19   C20   A    
C2    C3    S    
C61   H46   S    
C34   O7    A    
C11   C13   A    
C59   H36   S    
C45   C50   S    
C55   H29   S    
C45   N4    S    
C22   C24   A    
C65   H57   S    
C6    C49   T    
C62   H47   S    
C58   O13   D    
Cu1   O7    S    
C2    N3    S    
C4    C5    S    
C52   H23   S    
C43   H15   S    
C51   H19   S    
C12   O4    A    
Cu1   O5    S    
N8    C61   S    
C64   H53   S    
C21   H10   S    
C61   H44   S    
N6    C59   S    
C30   N6    S    
C17   C21   A    
