data_mof_unit_29395.cif
_audit_creation_date              2013-03-05T16:45:56-0500
_audit_creation_method            fapswitch 2.2
_symmetry_space_group_name_H-M    P1
_symmetry_Int_Tables_number       1
_space_group_crystal_system       triclinic
_cell_length_a                    9.949156
_cell_length_b                    10.605027
_cell_length_c                    16.809239
_cell_angle_alpha                 89.095509
_cell_angle_beta                  94.64242
_cell_angle_gamma                 90.64579
_cell_volume                      1767.43298421

loop_
_atom_site_label
_atom_site_type_symbol
_atom_site_description
_atom_site_fract_x
_atom_site_fract_y
_atom_site_fract_z
_atom_type_partial_charge
O1    O     O_R   0.614690 0.316790 0.499990 -0.564516
O2    O     O_R   0.385350 0.316760 0.500000 -0.576043
C1    C     C_R   0.499632 0.260720 0.500342 0.870268
O3    O     O_R   0.627460 0.498860 0.616130 -0.623649
O4    O     O_R   0.398120 0.498820 0.616130 -0.621269
C2    C     C_R   0.517921 0.502911 0.652961 0.854226
Zn1   Zn    Zn3+2 0.653130 0.500020 0.499990 1.058098
Zn2   Zn    Zn3+2 0.346870 0.499980 0.500010 1.012511
O5    O     O_R   0.614650 0.683240 0.500000 -0.567037
O6    O     O_R   0.385310 0.683210 0.500010 -0.616299
O7    O     O_R   0.601880 0.501180 0.383870 -0.571026
O8    O     O_R   0.372540 0.501140 0.383870 -0.622923
C3    C     C_R   0.500572 0.739443 0.499406 0.876121
C4    C     C_R   0.481750 0.500710 0.347070 0.867811
C5    C     C_R   0.530976 0.520675 0.738718 -0.076603
C6    C     C_R   0.436876 0.592753 0.776491 -0.036911
C7    C     C_R   0.452708 0.606032 0.858532 -0.175430
C8    C     C_R   0.560452 0.547758 0.903520 0.270377
C9    C     C_R   0.659190 0.484181 0.865483 -0.018823
C10   C     C_R   0.643618 0.470101 0.783196 -0.246036
C11   C     C_R   0.545436 0.600338 0.141572 -0.186155
C12   C     C_R   0.551976 0.591690 0.223524 -0.160898
C13   C     C_R   0.454357 0.524095 0.095300 0.208954
N1    N     N_2   0.565557 0.545864 0.987267 -0.172168
N2    N     N_2   0.451854 0.528317 0.011659 -0.122434
C14   C     C_R   0.468260 0.507105 0.260757 -0.128185
H1    H     H_    0.621690 0.652452 0.257991 0.224005
H2    H     H_    0.611776 0.666647 0.114010 0.188520
H3    H     H_    0.717677 0.417141 0.754004 0.167312
C15   C     C_R   0.371119 0.434085 0.215499 -0.173152
C16   C     C_R   0.363112 0.443738 0.131724 0.272632
H4    H     H_    0.379462 0.659522 0.888117 0.168099
C17   C     C_R   0.572973 0.067494 0.447376 0.221116
C18   C     C_R   0.501357 0.128810 0.502483 -0.078562
C19   C     C_R   0.444933 0.062760 0.564276 -0.097181
H5    H     H_    0.399289 0.111760 0.611137 0.180043
C20   C     C_R   0.445055 0.932328 0.563782 -0.164923
H6    H     H_    0.397601 0.879381 0.609713 0.173893
C21   C     C_R   0.503730 0.871468 0.502194 -0.122154
C22   C     C_R   0.574250 0.938518 0.447011 0.209327
C23   C     C_3   0.555546 0.935647 0.357716 -0.472435
C24   C     C_3   0.555638 0.078345 0.358567 -0.506908
H7    H     H_    0.644191 0.897880 0.330294 0.262534
H8    H     H_    0.456933 0.893721 0.335303 0.204978
H9    H     H_    0.645401 0.121951 0.333402 0.247499
H10   H     H_    0.457303 0.119892 0.336336 0.208675
C25   C     C_R   0.078690 0.456282 0.564643 0.051116
N3    N     N_R   0.142860 0.499130 0.500540 -0.102144
C26   C     C_R   0.065222 0.551334 0.438559 -0.095450
H11   H     H_    0.113806 0.592459 0.388855 0.174392
C27   C     C_R   0.922099 0.552098 0.438197 0.396178
N4    N     N_R   0.857210 0.499170 0.500530 -0.132548
C28   C     C_R   0.937519 0.458649 0.565420 -0.015152
C29   C     C_3   0.933935 0.335075 0.610240 0.044152
C30   C     C_3   0.087694 0.329595 0.606280 0.114797
H12   H     H_    0.901480 0.346691 0.671524 0.089291
N5    N     N_R   0.847657 0.611166 0.372204 0.205002
O9    O     O_R   0.783257 0.714083 0.383979 -0.416079
O10   O     O_R   0.874928 0.584505 0.299985 -0.397012
N6    N     N_R   0.859371 0.234031 0.566849 0.276485
O11   O     O_R   0.794163 0.150414 0.606588 -0.381175
O12   O     O_R   0.863013 0.221961 0.490056 -0.316041
C31   C     C_1   0.164201 0.335858 0.684898 0.161182
N7    N     N_1   0.224148 0.340346 0.746744 -0.146419
N8    N     N_R   0.130727 0.224904 0.558188 0.247014
O13   O     O_R   0.133491 0.236867 0.481111 -0.314439
O14   O     O_R   0.136435 0.111990 0.589688 -0.363097
C32   C     C_1   0.772935 0.427202 0.910616 0.221573
N9    N     N_1   0.864168 0.381549 0.946794 -0.092477
C33   C     C_1   0.286722 0.343655 0.254275 0.299738
N10   N     N_1   0.219342 0.271544 0.285360 -0.106346
N11   N     N_R   0.266105 0.369827 0.083637 0.211077
O15   O     O_R   0.141360 0.362057 0.101417 -0.346973
O16   O     O_R   0.301075 0.312391 0.020765 -0.345906
C34   C     C_1   0.324695 0.655720 0.733150 0.201023
N12   N     N_1   0.234736 0.705974 0.698569 -0.167042

loop_
_geom_bond_atom_site_label_1
_geom_bond_atom_site_label_2
_geom_bond_distance
_ccdc_geom_bond_type
C6    C34   1.446440 S    
C23   C24   1.513591 S    
C9    C10   1.389528 A    
C29   N6    1.466205 S    
C28   C29   1.502807 S    
Zn1   O7    1.976940 S    
C8    N1    1.404359 S    
C17   C24   1.491578 S    
C19   C20   1.383410 A    
Zn1   N4    2.029831 S    
C8    C9    1.399516 A    
C15   C16   1.406172 A    
O7    C4    1.300549 A    
N5    O10   1.301195 A    
C5    C6    1.411238 A    
N6    O12   1.302629 A    
C18   C19   1.395433 A    
C24   H10   1.111883 S    
O5    C3    1.287154 A    
C30   N8    1.471233 S    
C2    C5    1.451912 S    
C19   H5    1.082994 S    
C6    C7    1.384518 A    
N8    O14   1.301589 A    
C30   C31   1.472756 S    
C16   N11   1.440801 S    
C33   N10   1.157492 T    
C27   N5    1.423737 S    
C25   C28   1.406160 A    
C13   N2    1.404164 S    
C11   C12   1.375465 A    
C23   H7    1.109196 S    
O3    Zn1   1.989080 S    
C15   C33   1.449239 S    
C17   C18   1.387397 A    
C10   H3    1.084294 S    
C5    C10   1.402795 A    
C29   H12   1.113256 S    
C17   C22   1.368118 A    
C27   N4    1.382901 A    
N1    N2    1.245146 D    
N11   O16   1.301377 A    
C21   C22   1.389816 A    
C32   N9    1.157319 T    
C1    C18   1.399058 S    
C26   C27   1.423588 A    
N6    O11   1.300728 A    
O1    C1    1.284389 A    
C24   H9    1.111768 S    
C13   C16   1.407577 A    
C34   N12   1.157461 T    
Zn2   N3    2.030386 S    
C20   H6    1.083338 S    
C25   N3    1.365475 A    
Zn2   O8    1.989080 S    
C7    C8    1.404226 A    
C9    C32   1.443374 S    
C4    C14   1.446779 S    
O3    C2    1.297677 A    
N3    C26   1.360062 A    
C11   H2    1.083299 S    
O8    C4    1.293153 A    
C14   C15   1.412510 A    
C12   H1    1.081031 S    
C11   C13   1.403252 A    
C23   H8    1.112585 S    
N4    C28   1.365528 A    
C25   C30   1.505252 S    
Zn1   O5    1.984643 S    
C29   C30   1.538392 S    
C22   C23   1.498187 S    
O1    Zn1   1.976203 S    
O2    Zn2   1.984644 S    
N11   O15   1.301315 A    
O6    C3    1.287273 A    
O4    Zn2   1.976940 S    
O2    C1    1.288449 A    
C20   C21   1.398737 A    
N5    O9    1.297714 A    
O4    C2    1.298485 A    
N8    O13   1.302273 A    
C3    C21   1.401566 S    
C31   N7    1.157260 T    
Zn2   O6    1.976203 S    
C26   H11   1.082133 S    
C12   C14   1.392810 A    
C7    H4    1.084915 S    
