data_mof_unit_14546.cif
_audit_creation_date              2012-10-26T20:08:15-0400
_audit_creation_method            fapswitch 2.2
_symmetry_space_group_name_H-M    P1
_symmetry_Int_Tables_number       1
_space_group_crystal_system       triclinic
_cell_length_a                    11.019324
_cell_length_b                    10.77189
_cell_length_c                    9.841162
_cell_angle_alpha                 89.934794
_cell_angle_beta                  91.761131
_cell_angle_gamma                 92.967859
_cell_volume                      1166.01761752

loop_
_atom_site_label
_atom_site_type_symbol
_atom_type_description
_atom_site_fract_x
_atom_site_fract_y
_atom_site_fract_z
_atom_type_partial_charge
C1    C     C_R   0.502008 0.263190 0.500552 0.555817
C2    C     C_R   0.586767 0.064101 0.583389 -0.019065
C3    C     C_R   0.494373 0.869812 0.499637 0.045418
C4    C     C_R   0.502217 0.128365 0.502547 0.050461
C5    C     C_R   0.450881 0.401341 0.071271 0.393448
C6    C     C_R   0.551545 0.597380 0.928141 0.352015
C7    C     C_R   0.449562 0.401192 0.924877 0.151565
C8    C     C_R   0.550496 0.598768 0.074600 0.070065
C9    C     C_R   0.263156 0.502012 0.497410 0.566460
C10   C     C_R   0.737336 0.502560 0.502254 0.567871
C11   C     C_R   0.130281 0.384372 0.035917 0.196292
C12   C     C_R   0.497241 0.736161 0.499765 0.546238
C13   C     C_R   0.837668 0.440950 0.942394 0.228949
C14   C     C_R   0.121000 0.446537 0.160186 0.019294
C15   C     C_R   0.883420 0.444944 0.810928 0.016486
C16   C     C_R   0.103925 0.375191 0.279721 0.047969
C17   C     C_R   0.906852 0.562482 0.748182 0.050137
C18   C     C_R   0.103513 0.244279 0.274303 0.313257
C19   C     C_R   0.902712 0.671984 0.825890 0.370033
C20   C     C_R   0.106003 0.184863 0.147823 0.322490
C21   C     C_R   0.881359 0.662823 0.965508 0.225665
C22   C     C_R   0.115151 0.255098 0.029310 -0.050840
C23   C     C_R   0.872498 0.503027 0.504560 -0.049425
C24   C     C_R   0.843234 0.548588 0.021548 -0.119579
C25   C     C_R   0.928032 0.430869 0.408583 0.183035
C26   C     C_R   0.073111 0.581195 0.587620 0.248279
C27   C     C_3   0.392966 0.288263 0.851183 -0.250538
C28   C     C_3   0.603387 0.713120 0.147628 -0.279312
C29   C     C_3   0.125850 0.587475 0.165578 -0.313789
C30   C     C_3   0.917413 0.325784 0.742671 -0.329392
C31   C     C_3   0.299441 0.865953 0.350980 -0.319769
C32   C     C_3   0.682584 0.125137 0.676360 -0.346222
C33   C     C_R   0.129081 0.508530 0.491710 -0.035880
C34   C     C_R   0.946831 0.565483 0.605832 -0.000079
C35   C     C_R   0.055147 0.435475 0.399380 -0.030403
C36   C     C_R   0.412362 0.062002 0.424691 -0.053719
C37   C     C_R   0.583918 0.935498 0.576814 -0.064181
C38   C     C_R   0.405269 0.932526 0.425135 -0.017538
Cl1   Cl    Cl    0.168754 0.465047 0.888144 -0.655327
Cl2   Cl    Cl    0.623091 0.724303 0.845643 -0.586608
Cl3   Cl    Cl    0.768200 0.303417 0.006694 -0.525874
Cl4   Cl    Cl    0.089625 0.155461 0.424729 -0.533616
Cl5   Cl    Cl    0.916074 0.820298 0.748732 -0.414579
Cl6   Cl    Cl    0.103030 0.022637 0.134389 -0.438248
Cl7   Cl    Cl    0.898815 0.794124 0.071201 -0.475623
Cl8   Cl    Cl    0.838996 0.314175 0.318885 -0.464199
Cl9   Cl    Cl    0.161753 0.695169 0.682115 -0.437201
Cl10  Cl    Cl    0.388500 0.268494 0.151173 -0.616058
Cu1   Cu    Cu3+1 0.500000 0.500020 0.640660 1.079304
Cu2   Cu    Cu3+1 0.500000 0.499980 0.359340 1.049984
H1    H     H_    0.117723 0.208447 0.932143 0.169499
H2    H     H_    0.528486 0.772245 0.175026 0.163995
H3    H     H_    0.049832 0.620702 0.224712 0.154400
H4    H     H_    0.213019 0.622890 0.212739 0.157452
H5    H     H_    0.118775 0.631244 0.064162 0.234731
H6    H     H_    0.013458 0.333531 0.712238 0.191107
H7    H     H_    0.908460 0.243246 0.809451 0.201778
H8    H     H_    0.861613 0.307452 0.649663 0.143054
H9    H     H_    0.289139 0.766548 0.378930 0.142532
H10   H     H_    0.213624 0.907968 0.378314 0.235372
H11   H     H_    0.311119 0.873984 0.239651 0.183781
H12   H     H_    0.817117 0.543675 0.126591 0.185241
H13   H     H_    0.679127 0.226853 0.679831 0.168368
H14   H     H_    0.670765 0.090090 0.781574 0.204429
H15   H     H_    0.773653 0.101036 0.642489 0.194352
H16   H     H_    0.344099 0.111133 0.368248 0.205200
H17   H     H_    0.653066 0.886152 0.631832 0.209537
H18   H     H_    0.338261 0.315459 0.761254 0.202747
H19   H     H_    0.464704 0.223712 0.827843 0.164619
H20   H     H_    0.326325 0.232662 0.909323 0.160268
H21   H     H_    0.663418 0.687309 0.234122 0.182711
H22   H     H_    0.661375 0.775902 0.087103 0.219386
N1    N     N_R   0.500030 0.500030 0.852070 -0.219995
N2    N     N_R   0.499970 0.499970 0.147930 -0.230805
O1    O     O_R   0.499990 0.319660 0.618740 -0.569129
O2    O     O_R   0.500010 0.680340 0.381260 -0.563611
O3    O     O_R   0.499990 0.319630 0.381170 -0.396873
O4    O     O_R   0.500010 0.680370 0.618830 -0.410053
O5    O     O_R   0.319650 0.500020 0.618780 -0.426538
O6    O     O_R   0.680350 0.499980 0.381220 -0.463329
O7    O     O_R   0.319640 0.500000 0.381210 -0.519837
O8    O     O_R   0.680360 0.500000 0.618790 -0.497859

loop_
_geom_bond_atom_site_label_1
_geom_bond_atom_site_label_2
_ccdc_geom_bond_type
C31   H10   S    
C4    C36   A    
C1    O3    A    
C31   H11   S    
Cu1   N1    S    
C13   Cl3   S    
C7    N1    A    
C6    N1    A    
C19   C21   A    
Cu2   N2    S    
C16   C35   S    
C11   C14   A    
C36   H16   S    
C29   H4    S    
C30   H7    S    
C37   H17   S    
C7    C27   S    
Cu1   O4    S    
C2    C32   S    
C9    O5    A    
C31   H9    S    
C5    N2    A    
C27   H18   S    
C33   C35   A    
C26   C34   A    
C3    C38   A    
C12   O4    A    
Cu1   O1    S    
C3    C12   S    
C27   H19   S    
C9    C33   S    
C28   H22   S    
C20   Cl6   S    
C19   Cl5   S    
C21   Cl7   S    
C5    Cl10  S    
C1    O1    A    
C6    Cl2   S    
C32   H14   S    
C5    C7    A    
C10   O6    A    
C6    C8    A    
C29   H5    S    
C30   H6    S    
C10   O8    A    
Cu1   O5    S    
C13   C24   A    
Cu1   O8    S    
C2    C4    A    
Cu2   O2    S    
C26   C33   A    
C23   C34   A    
C8    N2    A    
C11   Cl1   S    
C27   H20   S    
C26   Cl9   S    
C25   C35   A    
C20   C22   A    
C13   C15   A    
C12   O2    A    
C8    C28   S    
C14   C16   A    
C28   H21   S    
C17   C34   S    
C14   C29   S    
Cu2   O3    S    
C15   C30   S    
C15   C17   A    
C24   H12   S    
C32   H13   S    
Cu2   O6    S    
C10   C23   S    
C11   C22   A    
C31   C38   S    
C1    C4    S    
C18   Cl4   S    
C28   H2    S    
C2    C37   A    
C29   H3    S    
C30   H8    S    
C36   C38   A    
C17   C19   A    
C18   C20   A    
C23   C25   A    
C3    C37   A    
C16   C18   A    
Cu1   Cu2   S    
C21   C24   A    
C32   H15   S    
C25   Cl8   S    
Cu2   O7    S    
C9    O7    A    
C22   H1    S    
