data_mof_unit_66383.cif
_audit_creation_date              2012-12-10T17:12:28-0500
_audit_creation_method            fapswitch 2.2
_symmetry_space_group_name_H-M    P1
_symmetry_Int_Tables_number       1
_space_group_crystal_system       triclinic
_cell_length_a                    11.709475
_cell_length_b                    12.949533
_cell_length_c                    11.679393
_cell_angle_alpha                 100.150466
_cell_angle_beta                  93.527079
_cell_angle_gamma                 90.329566
_cell_volume                      1739.70357086

loop_
_atom_site_label
_atom_site_type_symbol
_atom_type_description
_atom_site_fract_x
_atom_site_fract_y
_atom_site_fract_z
_atom_type_partial_charge
C1    C     C_R   0.502534 0.299246 0.478152 0.870275
C2    C     C_R   0.497466 0.700754 0.521848 0.870275
C3    C     C_R   0.393099 0.399514 0.021317 0.335552
C4    C     C_R   0.606901 0.600486 0.978683 0.335552
C5    C     C_R   0.404169 0.409865 0.144354 -0.001512
C6    C     C_R   0.595831 0.590135 0.855646 -0.001512
C7    C     C_R   0.545789 0.543239 0.157241 0.097615
C8    C     C_R   0.454211 0.456761 0.842759 0.097615
C9    C     C_R   0.538714 0.536429 0.034318 -0.057515
C10   C     C_R   0.461286 0.463571 0.965682 -0.057515
C11   C     C_R   0.283896 0.499981 0.500465 0.842900
C12   C     C_R   0.716104 0.500019 0.499535 0.842901
C13   C     C_1   0.162336 0.500046 0.501176 -0.118231
C14   C     C_1   0.837664 0.499954 0.498824 -0.118231
C15   C     C_1   0.059889 0.500026 0.500602 0.049403
C16   C     C_1   0.940111 0.499974 0.499398 0.049404
C17   C     C_R   0.491020 0.814253 0.535050 -0.189167
C18   C     C_R   0.508980 0.185747 0.464950 -0.189168
C19   C     C_R   0.583928 0.019743 0.373984 0.198319
C20   C     C_R   0.416072 0.980256 0.626016 0.198319
C21   C     C_R   0.581803 0.129110 0.386038 0.079535
C22   C     C_R   0.418197 0.870890 0.613962 0.079535
C23   C     C_R   0.439881 0.133705 0.531023 0.113792
C24   C     C_R   0.560119 0.866295 0.468977 0.113792
C25   C     C_R   0.463417 0.029031 0.540098 -0.041375
C26   C     C_R   0.536583 0.970968 0.459902 -0.041375
Cu1   Cu    Cu3+1 0.508350 0.507730 0.615930 0.999185
Cu2   Cu    Cu3+1 0.491650 0.492270 0.384070 0.999185
H1    H     H_    0.395304 0.401429 0.788574 0.202307
H2    H     H_    0.604696 0.598571 0.211426 0.202307
H3    H     H_    0.647477 0.638869 0.812006 0.139987
H4    H     H_    0.352523 0.361131 0.187994 0.139987
N1    N     N_R   0.520920 0.519350 0.790130 -0.216179
N2    N     N_R   0.479080 0.480650 0.209870 -0.216179
O1    O     O_R   0.505930 0.354460 0.582000 -0.571877
O2    O     O_R   0.494070 0.645540 0.418000 -0.571877
O3    O     O_R   0.491820 0.341410 0.386200 -0.564937
O4    O     O_R   0.508180 0.658590 0.613800 -0.564938
O5    O     O_R   0.344250 0.506540 0.597900 -0.561445
O6    O     O_R   0.655750 0.493460 0.402100 -0.561445
O7    O     O_R   0.330140 0.493480 0.402100 -0.581924
O8    O     O_R   0.669860 0.506520 0.597900 -0.581924
I1    I     I_    0.721220 0.795974 0.424242 -0.261424
I2    I     I_    0.278780 0.204026 0.575758 -0.261424
I3    I     I_    0.308057 0.793082 0.713206 -0.234770
I4    I     I_    0.691943 0.206918 0.286794 -0.234769
I5    I     I_    0.619919 0.932971 0.206313 -0.172903
I6    I     I_    0.380080 0.067029 0.793687 -0.172903
O9    O     O_3   0.316751 0.328121 0.954948 -0.697722
H5    H     H_    0.276486 0.289712 0.007293 0.342110
O10   O     O_3   0.683249 0.671879 0.045052 -0.697722
H6    H     H_    0.723514 0.710288 0.992707 0.342110

loop_
_geom_bond_atom_site_label_1
_geom_bond_atom_site_label_2
_ccdc_geom_bond_type
C12   O6    A    
C4    C9    A    
C18   C21   A    
C9    C10   A    
C2    O4    A    
C17   C22   A    
C6    N1    A    
C1    O3    A    
C5    H4    S    
C5    N2    A    
O9    H5    S    
C13   C15   T    
C6    H3    S    
C3    O9    S    
Cu2   N2    S    
C7    H2    S    
Cu1   N1    S    
C2    C17   S    
C11   O5    A    
C11   C13   S    
Cu1   O8    S    
C1    O1    A    
C1    C18   S    
C20   I6    S    
Cu2   O3    S    
C18   C23   A    
C3    C10   A    
C8    H1    S    
C4    C6    A    
C19   C21   A    
C12   C14   S    
C11   O7    A    
C19   I5    S    
C8    N1    A    
C23   C25   A    
C24   I1    S    
C7    N2    A    
C14   C16   T    
C17   C24   A    
C20   C25   A    
Cu2   O6    S    
Cu1   O4    S    
Cu1   O5    S    
O10   H6    S    
C3    C5    A    
Cu2   O7    S    
C22   I3    S    
Cu2   O2    S    
C8    C10   A    
C21   I4    S    
C2    O2    A    
Cu1   Cu2   S    
C7    C9    A    
C19   C26   A    
C12   O8    A    
C4    O10   S    
Cu1   O1    S    
C25   C26   A    
C23   I2    S    
C15   C16   S    
C20   C22   A    
C24   C26   A    
