data_mof_unit_39454.cif
_audit_creation_date              2012-12-11T16:29:34-0500
_audit_creation_method            fapswitch 2.2
_symmetry_space_group_name_H-M    P1
_symmetry_Int_Tables_number       1
_space_group_crystal_system       triclinic
_cell_length_a                    6.939182
_cell_length_b                    17.296597
_cell_length_c                    18.822217
_cell_angle_alpha                 106.111301
_cell_angle_beta                  90.305189
_cell_angle_gamma                 90.871806
_cell_volume                      2170.03543207

loop_
_atom_site_label
_atom_site_type_symbol
_atom_type_description
_atom_site_fract_x
_atom_site_fract_y
_atom_site_fract_z
_atom_type_partial_charge
O1    O     O_R   0.494360 0.415680 0.413760 -0.520401
O2    O     O_R   0.818810 0.432910 0.557230 -0.532530
O3    O     O_R   0.994290 0.584320 0.586240 -0.549666
C1    C     C_R   0.650059 0.415925 0.580639 0.747196
O4    O     O_R   0.823740 0.406440 0.412520 -0.539862
O5    O     O_R   0.999250 0.557660 0.440500 -0.528936
C2    C     C_R   0.651918 0.381296 0.386836 0.791006
O6    O     O_R   0.489400 0.442340 0.559500 -0.516054
O7    O     O_3   0.662500 0.549650 0.509350 -0.363237
V1    V     V_3+5 0.935340 0.490790 0.498270 1.452558
O8    O     O_R   0.329270 0.567090 0.442770 -0.515459
C3    C     C_R   0.160955 0.584028 0.419305 0.758081
O9    O     O_R   0.324340 0.593560 0.587480 -0.515113
C4    C     C_R   0.155926 0.617189 0.614854 0.782396
V2    V     V_3+5 0.435970 0.509210 0.501730 1.489165
O10   O     O_3   0.158940 0.450350 0.490650 -0.355749
C5    C     C_R   0.959552 0.599817 0.744778 -0.231255
C6    C     C_R   0.869526 0.586721 0.806620 0.147073
C7    C     C_R   0.899505 0.643123 0.874865 -0.096873
C8    C     C_R   0.017386 0.711214 0.881125 0.091322
C9    C     C_R   0.065051 0.734606 0.815908 0.040394
C10   C     C_R   0.054501 0.673826 0.747131 0.013747
C11   C     C_R   0.119153 0.814823 0.816302 -0.134325
C12   C     C_R   0.189613 0.830054 0.750035 -0.099172
C13   C     C_R   0.221736 0.764576 0.685985 -0.013630
C14   C     C_R   0.144613 0.686434 0.683199 -0.128684
C15   C     C_R   0.236080 0.909377 0.745745 0.065390
C16   C     C_R   0.384978 0.919351 0.698798 0.342533
C17   C     C_R   0.428088 0.854466 0.636625 -0.009789
C18   C     C_R   0.321314 0.781338 0.625486 0.271822
H1    H     H_    0.950230 0.550693 0.695025 0.120463
H2    H     H_    0.845617 0.631491 0.924747 0.131456
C19   C     C_1   0.112993 0.866669 0.134987 -0.193192
C20   C     C_1   0.120944 0.824014 0.178457 0.021614
C21   C     C_1   0.129985 0.773398 0.229967 0.008552
C22   C     C_1   0.137395 0.730605 0.273346 0.014985
C23   C     C_1   0.145975 0.679704 0.324652 0.019535
C24   C     C_1   0.152982 0.636553 0.367730 -0.202978
C25   C     C_1   0.641422 0.363213 0.631990 -0.221765
C26   C     C_1   0.636700 0.320331 0.675317 0.005061
C27   C     C_1   0.632849 0.270300 0.727375 0.007744
C28   C     C_1   0.630039 0.228316 0.771482 0.007364
C29   C     C_1   0.626555 0.178504 0.823721 0.033301
C30   C     C_1   0.622789 0.136072 0.867431 -0.175976
C31   C     C_R   0.698550 0.405956 0.243961 -0.213894
C32   C     C_R   0.736186 0.420980 0.176347 0.295860
C33   C     C_R   0.781580 0.355841 0.114877 0.300589
C34   C     C_R   0.803257 0.278993 0.125453 0.017532
C35   C     C_R   0.711119 0.261242 0.186910 -0.032396
C36   C     C_R   0.683382 0.326568 0.250445 -0.040119
C37   C     C_R   0.639296 0.182855 0.186103 -0.111771
C38   C     C_R   0.572775 0.168945 0.253580 -0.087233
C39   C     C_R   0.560082 0.234941 0.319145 -0.044670
C40   C     C_R   0.633226 0.312614 0.318461 -0.089375
C41   C     C_R   0.515421 0.090686 0.258129 0.049310
C42   C     C_R   0.381042 0.084604 0.311625 0.268595
C43   C     C_R   0.367285 0.148370 0.376823 0.198413
C44   C     C_R   0.469599 0.221237 0.382788 0.295447
H3    H     H_    0.671560 0.457496 0.290582 0.136275
O11   O     O_R   0.775690 0.057750 0.940570 -0.530097
O12   O     O_R   0.441200 0.093570 0.087490 -0.531455
O13   O     O_R   0.265840 0.942320 0.059480 -0.525275
C45   C     C_R   0.614037 0.118547 0.114046 0.677512
O14   O     O_R   0.446270 0.067110 0.942790 -0.527669
O15   O     O_R   0.270950 0.915660 0.913750 -0.531523
C46   C     C_R   0.614950 0.084128 0.919427 0.724507
O16   O     O_R   0.770580 0.084400 0.086300 -0.555595
O17   O     O_3   0.602640 0.950400 0.990690 -0.354411
V3    V     V_3+5 0.329740 0.009200 0.001730 1.387652
O18   O     O_R   0.940900 0.906360 0.912450 -0.535479
C47   C     C_R   0.109164 0.882574 0.885429 0.687333
O19   O     O_R   0.935830 0.932820 0.057160 -0.529113
C48   C     C_R   0.104113 0.918086 0.082448 0.714142
V4    V     V_3+5 0.829130 0.990680 0.998180 1.371430
O20   O     O_3   0.106100 0.049590 0.009310 -0.369114
C49   C     C_3   0.579969 0.862446 0.580890 -0.364845
C50   C     C_3   0.510820 0.914057 0.531962 -0.740538
H4    H     H_    0.378803 0.887061 0.500688 0.221229
H5    H     H_    0.478694 0.976089 0.565343 0.243998
H6    H     H_    0.624883 0.917564 0.491766 0.221859
H7    H     H_    0.716860 0.887309 0.609465 0.166754
H8    H     H_    0.620025 0.802525 0.544733 0.202781
O21   O     O_3   0.740012 0.500178 0.174403 -0.644471
H9    H     H_    0.825162 0.505498 0.133950 0.292700
O22   O     O_3   0.814572 0.365284 0.045471 -0.655643
H10   H     H_    0.737448 0.410833 0.039551 0.285509
C51   C     C_3   0.964408 0.227013 0.084314 -0.247926
C52   C     C_3   0.154144 0.273672 0.083896 -0.716584
H11   H     H_    0.144438 0.313932 0.047385 0.259326
H12   H     H_    0.194043 0.309638 0.140882 0.216584
H13   H     H_    0.271355 0.230629 0.062463 0.209379
H14   H     H_    0.003619 0.182274 0.113802 0.199053
H15   H     H_    0.918105 0.196859 0.026637 0.194832
C53   C     C_3   0.610994 0.013574 0.214007 -0.267033
C54   C     C_3   0.685862 0.962732 0.262966 -0.723504
H16   H     H_    0.777107 0.000259 0.308678 0.216252
H17   H     H_    0.566409 0.934618 0.286366 0.264342
H18   H     H_    0.774284 0.913249 0.229287 0.210901
H19   H     H_    0.508937 0.976981 0.172012 0.199277
H20   H     H_    0.741686 0.027584 0.186604 0.175119
O23   O     O_3   0.272885 0.014414 0.300017 -0.652343
H21   H     H_    0.149268 0.027038 0.326442 0.290967
O24   O     O_3   0.477704 0.280029 0.449657 -0.645278
H22   H     H_    0.424321 0.259687 0.489809 0.329095
C55   C     C_3   0.755525 0.508847 0.796975 -0.355021
C56   C     C_3   0.665618 0.496319 0.867054 -0.749964
H23   H     H_    0.779522 0.493262 0.907832 0.227469
H24   H     H_    0.564889 0.545559 0.891793 0.219777
H25   H     H_    0.582841 0.438524 0.852790 0.229645
H26   H     H_    0.637444 0.506822 0.756348 0.174307
H27   H     H_    0.852216 0.457603 0.773452 0.186936
C57   C     C_3   0.109749 0.747444 0.956432 -0.367676
C58   C     C_3   0.219304 0.685063 0.984237 -0.753365
H28   H     H_    0.119232 0.640758 0.997928 0.225206
H29   H     H_    0.322661 0.652952 0.941775 0.229348
H30   H     H_    0.301719 0.715791 0.035260 0.222528
H31   H     H_    0.219819 0.793570 0.955673 0.188140
H32   H     H_    0.994684 0.773371 0.996090 0.175604
C59   C     C_3   0.115815 0.982518 0.782632 -0.278021
C60   C     C_3   0.041350 0.025722 0.727290 -0.728718
H33   H     H_    0.159081 0.058402 0.707646 0.266036
H34   H     H_    0.971735 0.981936 0.679094 0.208176
H35   H     H_    0.933099 0.070674 0.754388 0.213211
H36   H     H_    0.983566 0.964439 0.806777 0.168303
H37   H     H_    0.201311 0.025433 0.826739 0.201032
O25   O     O_3   0.473122 0.994502 0.713432 -0.654770
H38   H     H_    0.593614 0.991654 0.685428 0.294950
O26   O     O_3   0.310545 0.727379 0.556147 -0.649999
H39   H     H_    0.318131 0.757123 0.518243 0.284500
O27   O     O_3   0.262528 0.140221 0.436686 -0.652494
H40   H     H_    0.258242 0.082793 0.436136 0.299545

loop_
_geom_bond_atom_site_label_1
_geom_bond_atom_site_label_2
_ccdc_geom_bond_type
C55   H26   S    
C26   C27   S    
O25   H38   S    
C27   C28   T    
C30   C46   S    
C7    C8    A    
C12   C15   A    
C1    O6    A    
O26   H39   S    
C54   H18   S    
C17   C49   S    
C50   H4    S    
C60   H33   S    
O23   H21   S    
C33   O22   S    
C16   C17   A    
C23   C24   T    
C42   O23   S    
C6    C7    A    
O5    C3    A    
C57   H31   S    
C56   H23   S    
O17   V4    S    
V2    O10   S    
C42   C43   A    
C20   C21   S    
O12   C45   A    
C8    C57   S    
O8    V2    S    
C54   H16   S    
C16   O25   S    
O17   V3    S    
C35   C37   A    
O18   V4    S    
C11   C12   A    
C52   H13   S    
O13   C48   A    
O18   C47   A    
O1    V2    S    
O7    V1    S    
C38   C41   A    
C58   H30   S    
C52   H11   S    
C55   H27   S    
O11   C46   A    
O9    C4    A    
C41   C53   S    
C7    H2    S    
C57   C58   S    
C60   H34   S    
C19   C20   T    
C18   O26   S    
C50   H5    S    
C45   O16   A    
V4    O20   S    
C37   C38   A    
C33   C34   A    
C11   C47   S    
C43   O27   S    
C37   C45   S    
C12   C13   A    
O19   V4    S    
C49   H8    S    
C25   C26   T    
O4    C2    A    
C13   C14   A    
C59   H36   S    
C4    C14   S    
O13   V3    S    
C21   C22   T    
O14   C46   A    
O2    C1    A    
C29   C30   T    
C17   C18   A    
O21   H9    S    
C1    C25   S    
C53   H20   S    
O8    C3    A    
C41   C42   A    
C54   H17   S    
C5    C6    A    
C34   C51   S    
O16   V4    S    
C36   C40   A    
O14   V3    S    
C49   C50   S    
C59   C60   S    
O22   H10   S    
O3    C4    A    
C59   H37   S    
C19   C48   S    
C34   C35   A    
C52   H12   S    
O6    V2    S    
C9    C11   A    
C5    H1    S    
C28   C29   S    
O2    V1    S    
O24   H22   S    
C51   H14   S    
C38   C39   A    
C58   H28   S    
C50   H6    S    
O12   V3    S    
C13   C18   A    
C32   C33   A    
C31   H3    S    
O1    C2    A    
O19   C48   A    
C49   H7    S    
O5    V1    S    
C39   C44   A    
C60   H35   S    
C39   C40   A    
C15   C59   S    
C55   C56   S    
C5    C10   A    
C53   H19   S    
O9    V2    S    
O27   H40   S    
O7    V2    S    
C6    C55   S    
O4    V1    S    
O3    V1    S    
O15   C47   A    
C57   H32   S    
C43   C44   A    
C56   H24   S    
C31   C36   A    
O15   V3    S    
C51   H15   S    
O11   V4    S    
V3    O20   S    
C3    C24   S    
C53   C54   S    
C32   O21   S    
C31   C32   A    
C8    C9    A    
C51   C52   S    
C22   C23   S    
C35   C36   A    
C10   C14   A    
C15   C16   A    
V1    O10   S    
C44   O24   S    
C2    C40   S    
C9    C10   A    
C58   H29   S    
C56   H25   S    
