data_mof_unit_19747.cif
_audit_creation_date              2012-12-10T18:50:49-0500
_audit_creation_method            fapswitch 2.2
_symmetry_space_group_name_H-M    P1
_symmetry_Int_Tables_number       1
_space_group_crystal_system       triclinic
_cell_length_a                    10.632171
_cell_length_b                    9.889839
_cell_length_c                    15.770607
_cell_angle_alpha                 89.397703
_cell_angle_beta                  90.666771
_cell_angle_gamma                 91.215115
_cell_volume                      1657.71400317

loop_
_atom_site_label
_atom_site_type_symbol
_atom_type_description
_atom_site_fract_x
_atom_site_fract_y
_atom_site_fract_z
_atom_type_partial_charge
C1    C     C_R   0.260112 0.499244 0.500390 0.863971
C2    C     C_3   0.645529 0.451869 0.952346 -0.064921
C3    C     C_3   0.641368 0.457103 0.052208 -0.382122
C4    C     C_1   0.508953 0.496471 0.825159 0.036365
C5    C     C_1   0.507456 0.502073 0.174798 -0.016948
C6    C     C_1   0.503998 0.501923 0.249870 -0.176281
C7    C     C_R   0.063083 0.406172 0.552285 -0.208844
C8    C     C_R   0.065642 0.598566 0.453923 -0.174682
C9    C     C_R   0.934070 0.406636 0.552113 -0.173445
C10   C     C_R   0.936803 0.601025 0.455227 -0.195478
C11   C     C_R   0.872160 0.503548 0.503146 -0.001625
C12   C     C_R   0.127615 0.499778 0.501457 -0.021171
C13   C     C_R   0.585996 0.073050 0.547228 -0.165795
C14   C     C_R   0.583797 0.929510 0.548979 -0.166858
C15   C     C_R   0.500333 0.500625 0.338456 0.900746
C16   C     C_R   0.420336 0.925753 0.447585 0.435695
C17   C     C_R   0.411028 0.068868 0.454599 0.436098
C18   C     C_R   0.739762 0.501194 0.501003 0.851053
C19   C     C_R   0.500792 0.499331 0.661527 0.891996
C20   C     C_3   0.479637 0.644945 0.047050 -0.242407
C21   C     C_3   0.405341 0.400447 0.050131 -0.263152
C22   C     C_3   0.408882 0.393601 0.951597 -0.186423
C23   C     C_3   0.487978 0.644301 0.948733 -0.269029
C24   C     C_1   0.505125 0.497669 0.750071 -0.064909
C25   C     C_3   0.510138 0.500936 0.083129 0.229521
C26   C     C_3   0.511506 0.496611 0.917073 0.047458
H1    H     H_    0.381316 0.665319 0.065299 0.086295
H2    H     H_    0.313547 0.441763 0.069823 0.086479
H3    H     H_    0.436817 0.290557 0.932605 0.226196
H4    H     H_    0.570560 0.707974 0.929224 0.196254
H5    H     H_    0.714313 0.526317 0.079112 0.255803
H6    H     H_    0.664352 0.358294 0.081991 0.174744
H7    H     H_    0.112247 0.333684 0.591714 0.156590
H8    H     H_    0.116741 0.672073 0.415340 0.170379
H9    H     H_    0.882737 0.332874 0.590365 0.158614
H10   H     H_    0.887721 0.675940 0.417491 0.156889
H11   H     H_    0.655071 0.128024 0.585047 0.182821
H12   H     H_    0.650645 0.876403 0.588613 0.178999
N1    N     N_R   0.499970 0.857200 0.499980 -0.133025
N2    N     N_R   0.499970 0.142800 0.499980 -0.140620
O1    O     O_R   0.316750 0.614620 0.499990 -0.577572
O2    O     O_R   0.316750 0.385380 0.499990 -0.620825
O3    O     O_R   0.499990 0.614720 0.377140 -0.599036
O4    O     O_R   0.499990 0.385280 0.377140 -0.583662
O5    O     O_R   0.683220 0.614710 0.500000 -0.627067
O6    O     O_R   0.683220 0.385290 0.500000 -0.627246
O7    O     O_R   0.499980 0.614620 0.622860 -0.605690
O8    O     O_R   0.499980 0.385380 0.622860 -0.599025
Zn1   Zn    Zn3+2 0.499980 0.653120 0.500000 0.997100
Zn2   Zn    Zn3+2 0.499980 0.346880 0.500000 0.990981
C27   C     C_2   0.375139 0.711817 0.908249 0.406743
H13   H     H_    0.280804 0.689388 0.930150 0.073122
O9    O     O_2   0.389618 0.795528 0.851540 -0.530972
C28   C     C_2   0.278840 0.410340 0.912884 0.387439
H14   H     H_    0.210523 0.474298 0.942183 0.071191
O10   O     O_2   0.248737 0.350418 0.848202 -0.538856
O11   O     O_3   0.341597 0.853253 0.393325 -0.643412
C29   C     C_3   0.369376 0.883752 0.307274 0.141898
H15   H     H_    0.407109 0.791533 0.278219 0.183452
H16   H     H_    0.441581 0.966101 0.297725 0.124867
C30   C     C_3   0.248542 0.921702 0.259700 -0.372101
H17   H     H_    0.170760 0.850621 0.277801 0.227723
H18   H     H_    0.222213 0.025782 0.276915 0.249305
C31   C     C_3   0.264381 0.916529 0.163908 -0.937563
H19   H     H_    0.350208 0.973829 0.144346 0.285234
H20   H     H_    0.181339 0.961175 0.131768 0.279878
H21   H     H_    0.271079 0.809976 0.143948 0.252694
O12   O     O_3   0.311472 0.131920 0.414828 -0.639246
C32   C     C_3   0.206569 0.131857 0.469948 0.108653
H22   H     H_    0.146251 0.215539 0.447910 0.187832
H23   H     H_    0.234597 0.152352 0.537088 0.146835
C33   C     C_3   0.125016 0.001811 0.466735 -0.389390
H24   H     H_    0.101903 0.976074 0.400129 0.238226
H25   H     H_    0.175649 0.916931 0.497215 0.254074
C34   C     C_3   0.001893 0.018789 0.514065 -0.944044
H26   H     H_    0.021283 0.044915 0.581365 0.275647
H27   H     H_    0.946027 0.922658 0.512209 0.274897
H28   H     H_    0.945432 0.099791 0.483880 0.268462
C35   C     C_2   0.409590 0.261063 0.091165 0.388583
H29   H     H_    0.340706 0.233045 0.138834 0.084555
O13   O     O_2   0.490543 0.180737 0.073340 -0.609728
C36   C     C_2   0.557318 0.762535 0.082774 0.425475
H30   H     H_    0.535414 0.864532 0.062260 0.115630
O14   O     O_2   0.642978 0.746476 0.133855 -0.557690
C37   C     C_2   0.750512 0.543351 0.916315 0.413459
H31   H     H_    0.763105 0.549048 0.848132 0.099060
O15   O     O_2   0.821542 0.610646 0.961259 -0.562732
C38   C     C_2   0.676681 0.308775 0.924847 0.371862
H32   H     H_    0.690110 0.228221 0.971054 0.138616
O16   O     O_2   0.687614 0.281486 0.849933 -0.572865

loop_
_geom_bond_atom_site_label_1
_geom_bond_atom_site_label_2
_ccdc_geom_bond_type
C11   C18   S    
C22   H3    S    
C20   C36   S    
C32   C33   S    
O7    Zn1   S    
C37   H31   S    
C15   O4    A    
C5    C6    T    
C4    C24   T    
C19   O7    A    
C20   C25   S    
C29   H16   S    
C2    C37   S    
C32   H23   S    
C23   C26   S    
C30   H18   S    
C13   N2    A    
C14   N1    A    
O12   C32   S    
C2    C38   S    
C13   H11   S    
C30   H17   S    
C29   C30   S    
O8    Zn2   S    
C6    C15   S    
C21   C22   S    
C7    H7    S    
C32   H22   S    
C1    C12   S    
C33   C34   S    
C18   O6    A    
O1    Zn1   S    
C37   O15   D    
C7    C12   A    
C28   O10   D    
C27   H13   S    
C31   H21   S    
C3    C25   S    
C33   H25   S    
C35   O13   D    
C19   O8    A    
O3    Zn1   S    
C29   H15   S    
C27   O9    D    
C17   N2    A    
C31   H20   S    
C30   C31   S    
C34   H26   S    
C23   H4    S    
C14   H12   S    
C9    C11   A    
C23   C27   S    
C20   C23   S    
O5    Zn1   S    
C8    C12   A    
C21   C35   S    
C2    C26   S    
C8    H8    S    
C3    H5    S    
C34   H27   S    
O2    Zn2   S    
C5    C25   S    
C1    O1    A    
N1    Zn1   S    
C21   H2    S    
C38   O16   D    
C36   O14   D    
C22   C28   S    
C18   O5    A    
O4    Zn2   S    
C7    C9    A    
C21   C25   S    
C28   H14   S    
C17   O12   S    
C33   H24   S    
C4    C26   S    
C20   H1    S    
O6    Zn2   S    
C31   H19   S    
C2    C3    S    
C15   O3    A    
O11   C29   S    
C16   C17   A    
N2    Zn2   S    
C19   C24   S    
C16   O11   S    
C3    H6    S    
C34   H28   S    
C10   C11   A    
C16   N1    A    
C35   H29   S    
C1    O2    A    
C38   H32   S    
C8    C10   A    
C36   H30   S    
C22   C26   S    
C9    H9    S    
C10   H10   S    
C13   C14   A    
