data_mof_unit_8846.cif
_audit_creation_date              2012-12-10T17:21:13-0500
_audit_creation_method            fapswitch 2.2
_symmetry_space_group_name_H-M    P1
_symmetry_Int_Tables_number       1
_space_group_crystal_system       triclinic
_cell_length_a                    10.117841
_cell_length_b                    10.683468
_cell_length_c                    10.699553
_cell_angle_alpha                 91.127625
_cell_angle_beta                  95.074665
_cell_angle_gamma                 81.173944
_cell_volume                      1138.35683364

loop_
_atom_site_label
_atom_site_type_symbol
_atom_type_description
_atom_site_fract_x
_atom_site_fract_y
_atom_site_fract_z
_atom_type_partial_charge
C1    C     C_R   0.444551 0.512234 0.266612 0.924182
C2    C     C_3   0.498418 0.878774 0.502685 -0.089348
C3    C     C_3   0.595753 0.915846 0.613951 0.151841
C4    C     C_3   0.351325 0.950049 0.508664 0.008144
C5    C     C_2   0.415597 0.537888 0.134320 -0.375217
C6    C     C_2   0.513106 0.572245 0.072058 -0.123284
C7    C     C_2   0.584856 0.512658 0.867992 0.199306
C8    C     C_2   0.495446 0.584733 0.937117 0.154018
C9    C     C_2   0.071611 0.494618 0.484882 -0.134338
C10   C     C_2   0.926546 0.512013 0.509454 -0.097777
C11   C     C_R   0.499636 0.257676 0.499380 0.976575
C12   C     C_R   0.555251 0.498979 0.733626 0.971598
C13   C     C_R   0.499610 0.742306 0.499621 0.943154
C14   C     C_3   0.564624 0.058885 0.384566 -0.451525
C15   C     C_3   0.550093 0.917918 0.378526 -0.554944
C16   C     C_3   0.583972 0.062645 0.624065 0.573624
C17   C     C_3   0.350459 0.093526 0.498575 -0.014469
C18   C     C_3   0.499681 0.121208 0.501802 -0.137958
H1    H     H_    0.673048 0.067853 0.389864 0.239116
H2    H     H_    0.611268 0.581382 0.118414 0.208394
H3    H     H_    0.317192 0.529583 0.088196 0.168108
H4    H     H_    0.890225 0.580195 0.579847 0.178590
H5    H     H_    0.106543 0.432156 0.409710 0.182346
H6    H     H_    0.880233 0.384526 0.382306 0.179019
H7    H     H_    0.519124 0.106799 0.296320 0.202101
H8    H     H_    0.121179 0.610452 0.622200 0.174556
H9    H     H_    0.479124 0.900021 0.296879 0.196237
H10   H     H_    0.649210 0.861518 0.362361 0.222555
H11   H     H_    0.698917 0.876974 0.589588 0.159804
H12   H     H_    0.303963 0.141559 0.580818 0.208551
H13   H     H_    0.291209 0.917393 0.425201 0.166299
N1    N     N_2   0.157300 0.551950 0.551120 -0.190345
N2    N     N_2   0.842730 0.448000 0.448950 -0.181798
O1    O     O_R   0.568940 0.489540 0.307530 -0.606669
O2    O     O_R   0.348880 0.522880 0.340350 -0.618606
O3    O     O_R   0.610030 0.298130 0.483570 -0.574372
O4    O     O_R   0.389960 0.331470 0.516390 -0.598655
O5    O     O_R   0.651120 0.477120 0.659650 -0.551540
O6    O     O_R   0.431060 0.510460 0.692470 -0.626930
O7    O     O_R   0.610040 0.668530 0.483610 -0.639273
O8    O     O_R   0.389970 0.701870 0.516430 -0.589911
Zn1   Zn    Zn3+2 0.646940 0.477740 0.478080 1.015060
Zn2   Zn    Zn3+2 0.353060 0.522260 0.521920 0.977857
N3    N     N_2   0.292191 0.919245 0.621954 -0.264283
H14   H     H_    0.328499 0.958155 0.704245 0.295800
C19   C     C_3   0.147960 0.922917 0.612193 -0.706204
H15   H     H_    0.118676 0.876601 0.695147 0.242345
H16   H     H_    0.114192 0.870642 0.527477 0.233566
H17   H     H_    0.096639 0.022456 0.609332 0.260862
Cl1   Cl    Cl    0.508512 0.127363 0.762585 -0.551242
Cl2   Cl    Cl    0.586164 0.837960 0.759498 -0.594753
N4    N     N_2   0.378046 0.662809 0.881046 -0.273948
H18   H     H_    0.298822 0.613742 0.858918 0.237274
C20   C     C_3   0.336792 0.782004 0.944089 -0.654131
H19   H     H_    0.260096 0.842394 0.882528 0.238984
H20   H     H_    0.423574 0.833318 0.966119 0.289037
H21   H     H_    0.291585 0.765956 0.032120 0.210718
Cl3   Cl    Cl    0.734888 0.423908 0.936766 -0.545354
Cl4   Cl    Cl    0.752237 0.101025 0.642354 -0.557737
N5    N     N_2   0.270454 0.143739 0.384693 -0.292407
H22   H     H_    0.300115 0.102720 0.301725 0.241684
C21   C     C_3   0.126003 0.162456 0.387806 -0.773137
H23   H     H_    0.078857 0.220645 0.306263 0.243090
H24   H     H_    0.095739 0.212770 0.474968 0.252678
H25   H     H_    0.088398 0.070091 0.381237 0.243083

loop_
_geom_bond_atom_site_label_1
_geom_bond_atom_site_label_2
_ccdc_geom_bond_type
O4    Zn2   S    
C2    C4    S    
C11   C18   S    
H8    N1    S    
C21   H23   S    
C17   H12   S    
C6    H2    S    
C9    C10   S    
C8    N4    S    
C7    Cl3   S    
O3    Zn1   S    
H6    N2    S    
O1    Zn1   S    
O2    Zn2   S    
N4    C20   S    
C12   O6    A    
O7    Zn1   S    
C17   C18   S    
C7    C8    D    
C16   C18   S    
N4    H18   S    
C2    C15   S    
O8    Zn2   S    
C19   H17   S    
C3    H11   S    
C15   H10   S    
C5    C6    D    
C6    C8    S    
C4    C17   S    
C14   H1    S    
C13   O8    A    
C11   O3    A    
C21   H25   S    
N1    Zn2   S    
C16   Cl1   S    
C1    O1    A    
C2    C3    S    
C10   N2    D    
C19   H16   S    
C14   H7    S    
C12   O5    A    
C7    C12   S    
C20   H20   S    
C4    H13   S    
N2    Zn1   S    
C17   N5    S    
C20   H19   S    
O5    Zn1   S    
C1    C5    S    
C5    H3    S    
N3    H14   S    
C1    O2    A    
N5    C21   S    
O6    Zn2   S    
C11   O4    A    
C2    C13   S    
C3    Cl2   S    
C14   C15   S    
C9    H5    S    
C13   O7    A    
C21   H24   S    
C4    N3    S    
C9    N1    D    
C19   H15   S    
C15   H9    S    
C14   C18   S    
C16   Cl4   S    
C10   H4    S    
C3    C16   S    
N3    C19   S    
N5    H22   S    
C20   H21   S    
