data_mof_unit_12131.cif
_audit_creation_date              2012-12-11T17:12:43-0500
_audit_creation_method            fapswitch 2.2
_symmetry_space_group_name_H-M    P1
_symmetry_Int_Tables_number       1
_space_group_crystal_system       triclinic
_cell_length_a                    17.179044
_cell_length_b                    6.881104
_cell_length_c                    14.416294
_cell_angle_alpha                 90.000042
_cell_angle_beta                  110.004715
_cell_angle_gamma                 89.999916
_cell_volume                      1601.33999665

loop_
_atom_site_label
_atom_site_type_symbol
_atom_type_description
_atom_site_fract_x
_atom_site_fract_y
_atom_site_fract_z
_atom_type_partial_charge
O1    O     O_R   0.314130 0.635770 0.168990 -0.542841
O2    O     O_R   0.685870 0.364230 0.831010 -0.542841
O3    O     O_R   0.185870 0.135770 0.331010 -0.542841
O4    O     O_R   0.814130 0.864230 0.668990 -0.542841
O5    O     O_R   0.146800 0.302460 0.139760 -0.535992
O6    O     O_R   0.853200 0.697540 0.860240 -0.535992
O7    O     O_R   0.353200 0.802460 0.360240 -0.535992
O8    O     O_R   0.646800 0.197540 0.639760 -0.535992
C1    C     C_R   0.113993 0.475865 0.112782 0.730291
C2    C     C_R   0.886007 0.524135 0.887218 0.730291
C3    C     C_R   0.386007 0.975865 0.387218 0.730291
C4    C     C_R   0.613993 0.024135 0.612782 0.730291
O9    O     O_R   0.311100 0.305780 0.157130 -0.539288
O10   O     O_R   0.688900 0.694220 0.842870 -0.539288
O11   O     O_R   0.188900 0.805780 0.342870 -0.539289
O12   O     O_R   0.811100 0.194220 0.657130 -0.539288
O13   O     O_R   0.351340 0.139640 0.348510 -0.537685
O14   O     O_R   0.648660 0.860360 0.651490 -0.537684
O15   O     O_R   0.148660 0.639640 0.151490 -0.537684
O16   O     O_R   0.851340 0.360360 0.848510 -0.537684
C5    C     C_R   0.332947 0.476242 0.135768 0.718261
C6    C     C_R   0.667053 0.523758 0.864232 0.718261
C7    C     C_R   0.167053 0.976243 0.364233 0.718262
C8    C     C_R   0.832947 0.023757 0.635767 0.718262
C9    C     C_1   0.533572 0.008874 0.533049 -0.159542
C10   C     C_1   0.466428 0.991126 0.466951 -0.159542
C11   C     C_1   0.966428 0.508873 0.966951 -0.159542
C12   C     C_1   0.033572 0.491126 0.033049 -0.159542
O17   O     O_3   0.263010 0.470920 0.312770 -0.368624
O18   O     O_3   0.736990 0.529080 0.687230 -0.368624
O19   O     O_3   0.236990 0.970920 0.187230 -0.368624
O20   O     O_3   0.763010 0.029080 0.812770 -0.368624
V1    V     V_3+5 0.247590 0.194450 0.238360 1.468082
V2    V     V_3+5 0.752410 0.805550 0.761640 1.468082
V3    V     V_3+5 0.252410 0.694450 0.261640 1.468082
V4    V     V_3+5 0.747590 0.305550 0.738360 1.468082
C13   C     C_R   0.116724 0.997370 0.428899 -0.103711
C14   C     C_R   0.883276 0.002630 0.571101 -0.103711
C15   C     C_R   0.383276 0.497369 0.071101 -0.103711
C16   C     C_R   0.616724 0.502631 0.928899 -0.103711
C17   C     C_R   0.923846 0.797361 0.457216 0.185792
C18   C     C_R   0.076154 0.202639 0.542784 0.185792
C19   C     C_R   0.576155 0.297363 0.042785 0.185790
C20   C     C_R   0.423845 0.702637 0.957215 0.185790
C21   C     C_R   0.870307 0.840446 0.508592 -0.149608
C22   C     C_R   0.129693 0.159554 0.491408 -0.149608
C23   C     C_R   0.629695 0.340449 0.991409 -0.149609
C24   C     C_R   0.370305 0.659551 0.008591 -0.149609
C25   C     C_R   0.950480 0.125462 0.580680 -0.166579
C26   C     C_R   0.049520 0.874538 0.419320 -0.166579
C27   C     C_R   0.549519 0.625462 0.919319 -0.166579
C28   C     C_R   0.450481 0.374538 0.080681 -0.166580
C29   C     C_R   0.006593 0.083388 0.531110 0.092687
C30   C     C_R   0.993407 0.916612 0.468890 0.092687
C31   C     C_R   0.493406 0.583388 0.968890 0.092686
C32   C     C_R   0.506593 0.416612 0.031110 0.092686
H1    H     H_    0.039756 0.751866 0.369794 0.157149
H2    H     H_    0.960244 0.248134 0.630206 0.157150
H3    H     H_    0.460246 0.251868 0.130208 0.157149
H4    H     H_    0.539754 0.748132 0.869792 0.157149
H5    H     H_    0.181380 0.256025 0.499088 0.152438
H6    H     H_    0.818620 0.743975 0.500912 0.152438
H7    H     H_    0.318618 0.756021 0.000910 0.152437
H8    H     H_    0.681382 0.243979 0.999090 0.152437
I1    I     I_    0.895090 0.545667 0.365900 -0.400829
I2    I     I_    0.104910 0.454333 0.634100 -0.400829
I3    I     I_    0.604913 0.045672 0.134104 -0.400827
I4    I     I_    0.395086 0.954328 0.865896 -0.400827

loop_
_geom_bond_atom_site_label_1
_geom_bond_atom_site_label_2
_ccdc_geom_bond_type
C2    C11   S    
O10   V2    S    
C16   C23   A    
C8    C14   S    
C31   C32   A    
O19   V1    S    
O2    C6    A    
C28   H3    S    
C16   C27   A    
C17   C21   A    
O17   V3    S    
O3    C7    A    
C19   C32   A    
C5    C15   S    
O18   V4    S    
C4    C9    S    
O8    C4    A    
C6    C16   S    
O10   C6    A    
O11   C7    A    
C15   C28   A    
C9    C10   T    
O9    C5    A    
O12   C8    A    
C14   C25   A    
O15   V3    S    
C29   C30   A    
O12   V4    S    
O1    C5    A    
C13   C26   A    
O14   V2    S    
C20   C31   A    
O7    V3    S    
O5    C1    A    
C26   C30   A    
O13   V1    S    
C25   C29   A    
O20   V4    S    
O19   V3    S    
O11   V3    S    
O7    C3    A    
C27   C31   A    
O5    V1    S    
C18   C29   A    
C18   C22   A    
O4    C8    A    
O4    V2    S    
C17   C30   A    
C20   I4    S    
O6    V2    S    
O6    C2    A    
O18   V2    S    
C22   H5    S    
O2    V4    S    
O16   V4    S    
O17   V1    S    
C21   H6    S    
C11   C12   T    
C20   C24   A    
O1    V3    S    
C19   I3    S    
O9    V1    S    
O8    V4    S    
C4    O14   A    
C23   H8    S    
C18   I2    S    
O3    V1    S    
C3    O13   A    
C14   C21   A    
C17   I1    S    
C27   H4    S    
C3    C10   S    
C13   C22   A    
C7    C13   S    
C26   H1    S    
C19   C23   A    
C1    O15   A    
C25   H2    S    
C28   C32   A    
C1    C12   S    
C2    O16   A    
C15   C24   A    
C24   H7    S    
O20   V2    S    
