data_mof_unit_27192.cif
_audit_creation_date              2012-10-26T21:12:36-0400
_audit_creation_method            fapswitch 2.2
_symmetry_space_group_name_H-M    P1
_symmetry_Int_Tables_number       1
_space_group_crystal_system       triclinic
_cell_length_a                    23.512663
_cell_length_b                    10.760394
_cell_length_c                    9.63799
_cell_angle_alpha                 89.40396
_cell_angle_beta                  89.97677
_cell_angle_gamma                 93.676166
_cell_volume                      2433.314131

loop_
_atom_site_label
_atom_site_type_symbol
_atom_type_description
_atom_site_fract_x
_atom_site_fract_y
_atom_site_fract_z
_atom_type_partial_charge
C1    C     C_R   0.499182 0.262813 0.500660 0.576212
C2    C     C_R   0.122651 0.600808 0.520007 0.445082
C3    C     C_R   0.241743 0.558836 0.390579 -0.050106
C4    C     C_R   0.391066 0.496660 0.499982 0.548583
C5    C     C_R   0.300975 0.558241 0.393613 -0.165726
C6    C     C_R   0.328383 0.493092 0.498681 0.023042
C7    C     C_R   0.295119 0.424224 0.598467 0.226470
C8    C     C_R   0.235800 0.425239 0.594448 0.007517
C9    C     C_R   0.208988 0.492874 0.491403 0.185207
C10   C     C_R   0.760713 0.490182 0.373611 -0.008929
C11   C     C_R   0.701523 0.492464 0.373842 -0.062140
C12   C     C_R   0.964440 0.271606 0.430388 0.433793
C13   C     C_R   0.671337 0.492081 0.499816 0.036201
C14   C     C_R   0.701429 0.485434 0.625408 -0.066294
C15   C     C_R   0.760688 0.483721 0.624982 -0.006670
C16   C     C_R   0.498316 0.736825 0.499546 0.563513
C17   C     C_R   0.790463 0.486827 0.499109 0.211298
C18   C     C_R   0.402721 0.118808 0.383837 -0.051917
C19   C     C_R   0.357175 0.048846 0.324674 0.434184
C20   C     C_R   0.357401 0.919628 0.321416 -0.057629
C21   C     C_R   0.403053 0.859781 0.377708 -0.148889
C22   C     C_R   0.449785 0.928822 0.437486 0.001546
C23   C     C_R   0.023744 0.273705 0.428526 -0.033321
C24   C     C_R   0.449853 0.060017 0.440021 -0.064218
C25   C     C_R   0.496430 0.128488 0.501900 0.020691
C26   C     C_R   0.541069 0.067888 0.564414 0.227462
C27   C     C_R   0.540197 0.939416 0.563235 -0.060398
C28   C     C_R   0.608863 0.497502 0.500009 0.602978
C29   C     C_R   0.495755 0.870312 0.498733 0.002759
C30   C     C_R   0.594809 0.632158 0.131601 0.210991
C31   C     C_R   0.642729 0.663544 0.048995 0.423440
C32   C     C_R   0.635952 0.678169 0.908335 0.192058
C33   C     C_R   0.584321 0.641913 0.849023 -0.141625
C34   C     C_R   0.056780 0.383198 0.458951 -0.014663
C35   C     C_R   0.542230 0.569348 0.922862 0.070494
C36   C     C_R   0.544221 0.567917 0.072381 0.093335
C37   C     C_R   0.459437 0.434639 0.074697 0.020847
C38   C     C_R   0.459933 0.433455 0.927336 0.042806
C39   C     C_R   0.882535 0.595792 0.528817 0.451614
C40   C     C_R   0.876922 0.381093 0.466054 0.442208
C41   C     C_R   0.936686 0.379940 0.463054 0.045928
C42   C     C_R   0.969577 0.490827 0.493800 -0.153653
C43   C     C_R   0.942454 0.600027 0.526957 -0.027101
C44   C     C_R   0.029755 0.492385 0.491490 -0.116604
C45   C     C_R   0.062823 0.602842 0.521928 -0.015015
C46   C     C_R   0.035242 0.711361 0.554199 0.441742
C47   C     C_R   0.975871 0.709959 0.556769 0.453375
C48   C     C_R   0.116474 0.386022 0.457996 0.426561
Cl1   Cl    Cl    0.600257 0.150281 0.640385 -0.501606
Cl2   Cl    Cl    0.599159 0.734965 0.272147 -0.462547
Cl3   Cl    Cl    0.690032 0.755168 0.807556 -0.415799
Cl4   Cl    Cl    0.325192 0.328248 0.723892 -0.566540
Cu1   Cu    Cu3+1 0.500000 0.499990 0.640660 1.024369
Cu2   Cu    Cu3+1 0.500000 0.500010 0.359340 1.017834
F1    F     F_    0.934706 0.162902 0.400242 -0.498263
F2    F     F_    0.312359 0.106715 0.271496 -0.571528
F3    F     F_    0.692762 0.706951 0.107294 -0.519467
F4    F     F_    0.065340 0.819812 0.583721 -0.497083
F5    F     F_    0.951524 0.817172 0.588650 -0.471773
H1    H     H_    0.679536 0.494636 0.275422 0.167849
H2    H     H_    0.579594 0.671032 0.744329 0.209196
H3    H     H_    0.427374 0.377588 0.873580 0.185748
H4    H     H_    0.221234 0.610258 0.309656 0.163206
H5    H     H_    0.325383 0.609611 0.314155 0.127569
H6    H     H_    0.210263 0.372585 0.671019 0.183380
H7    H     H_    0.783567 0.491898 0.275971 0.168229
H8    H     H_    0.679296 0.482056 0.723990 0.164086
H9    H     H_    0.783526 0.480170 0.722335 0.164929
H10   H     H_    0.400126 0.218728 0.386795 0.149793
H11   H     H_    0.321840 0.865349 0.276330 0.154407
H12   H     H_    0.401031 0.759355 0.375460 0.132777
H13   H     H_    0.575080 0.893001 0.610360 0.185415
H14   H     H_    0.426207 0.380417 0.130066 0.142210
H15   H     H_    0.043684 0.188777 0.403278 0.221702
N1    N     N_R   0.851426 0.487734 0.498529 -0.435302
N2    N     N_R   0.147995 0.493470 0.488833 -0.410764
N3    N     N_R   0.500540 0.501210 0.147910 -0.235874
N4    N     N_R   0.500560 0.501290 0.852040 -0.234623
O1    O     O_R   0.500000 0.319640 0.618810 -0.454620
O2    O     O_R   0.582120 0.500020 0.618760 -0.515040
O3    O     O_R   0.582120 0.500050 0.381190 -0.472310
O4    O     O_2   0.855315 0.698654 0.559670 -0.310442
O5    O     O_2   0.844319 0.276769 0.437395 -0.334998
O6    O     O_2   0.142915 0.282350 0.426007 -0.417433
O7    O     O_2   0.155396 0.704467 0.550513 -0.370006
O8    O     O_R   0.500000 0.319660 0.381240 -0.512023
O9    O     O_R   0.417880 0.499950 0.618810 -0.462241
O10   O     O_R   0.417880 0.499980 0.381240 -0.533782
O11   O     O_R   0.500000 0.680340 0.618760 -0.532635
O12   O     O_R   0.500000 0.680360 0.381190 -0.443034

loop_
_geom_bond_atom_site_label_1
_geom_bond_atom_site_label_2
_ccdc_geom_bond_type
C19   F2    S    
C16   O12   A    
C22   C29   A    
C27   C29   A    
C41   C42   A    
C48   N2    A    
C19   C20   A    
C7    C8    A    
C4    O9    A    
C45   C46   A    
C12   C23   A    
C26   C27   A    
C37   C38   A    
C21   H12   S    
C18   C24   A    
Cu1   O1    S    
C7    Cl4   S    
Cu2   O12   S    
C36   N3    A    
C5    C6    A    
C10   C17   A    
C2    O7    S    
C18   C19   A    
C35   C36   A    
C8    C9    A    
C14   H8    S    
C13   C28   S    
C9    N2    S    
C39   N1    A    
Cu2   N3    S    
C18   H10   S    
C30   Cl2   S    
C16   O11   A    
C13   C14   A    
C46   F4    S    
C1    C25   S    
C40   O5    S    
C20   H11   S    
C42   C44   A    
C10   H7    S    
C2    C45   A    
Cu1   O2    S    
C34   C44   A    
C24   C25   A    
C4    C6    S    
C26   Cl1   S    
Cu2   O8    S    
C39   C43   A    
C38   N4    A    
C16   C29   S    
Cu1   Cu2   S    
C37   N3    A    
C48   O6    S    
C5    H5    S    
C32   Cl3   S    
C12   C41   A    
C3    C9    A    
C31   C32   A    
C23   C34   A    
Cu1   O9    S    
C40   C41   A    
Cu1   O11   S    
C1    O1    A    
C22   C24   A    
C34   C48   A    
C42   C43   A    
C23   H15   S    
C11   H1    S    
C2    N2    A    
C44   C45   A    
C1    O8    A    
C15   C17   A    
C37   H14   S    
C46   C47   A    
C28   O3    A    
C39   O4    S    
C3    C5    A    
C6    C7    A    
C4    O10   A    
C3    H4    S    
C35   N4    A    
C40   N1    A    
C30   C36   A    
C32   C33   A    
C31   F3    S    
Cu1   N4    S    
C25   C26   A    
Cu2   O10   S    
C11   C13   A    
C30   C31   A    
C15   H9    S    
C33   C35   A    
C28   O2    A    
C12   F1    S    
C10   C11   A    
C47   F5    S    
C8    H6    S    
C20   C21   A    
C33   H2    S    
C17   N1    S    
C14   C15   A    
C21   C22   A    
C43   C47   A    
Cu2   O3    S    
C27   H13   S    
C38   H3    S    
