data_mof_unit_62389.cif
_audit_creation_date              2012-12-10T16:43:17-0500
_audit_creation_method            fapswitch 2.2
_symmetry_space_group_name_H-M    P1
_symmetry_Int_Tables_number       1
_space_group_crystal_system       triclinic
_cell_length_a                    18.459949
_cell_length_b                    18.473425
_cell_length_c                    18.449216
_cell_angle_alpha                 119.652797
_cell_angle_beta                  90.417053
_cell_angle_gamma                 119.95768
_cell_volume                      4458.64140301

loop_
_atom_site_label
_atom_site_type_symbol
_atom_type_description
_atom_site_fract_x
_atom_site_fract_y
_atom_site_fract_z
_atom_type_partial_charge
C1    C     C_R   0.361323 0.000285 0.138445 0.850017
C2    C     C_2   0.796918 0.991179 0.683738 -0.259764
C3    C     C_2   0.713498 0.936313 0.769530 -0.220205
C4    C     C_R   0.640111 0.001865 0.862950 0.792477
C5    C     C_2   0.706035 0.014137 0.818366 0.089095
C6    C     C_2   0.280667 0.446029 0.701384 0.209885
C7    C     C_2   0.195564 0.388207 0.695611 -0.347901
C8    C     C_2   0.336931 0.557552 0.766159 -0.189177
C9    C     C_2   0.303682 0.612322 0.799938 -0.342559
C10   C     C_2   0.281223 0.061061 0.337215 -0.146890
C11   C     C_2   0.192385 0.995834 0.304713 -0.300599
C12   C     C_R   0.113839 0.029388 0.808373 -0.172691
C13   C     C_2   0.337310 0.058430 0.280984 -0.155215
C14   C     C_2   0.304403 0.001439 0.192209 -0.299053
C15   C     C_2   0.780240 0.942593 0.218125 -0.163743
C16   C     C_R   0.638829 0.277056 0.138550 0.851531
C17   C     C_2   0.799597 0.994923 0.306044 -0.287768
C18   C     C_2   0.720180 0.938517 0.162228 -0.162829
C19   C     C_2   0.700370 0.006574 0.195518 -0.290428
C20   C     C_2   0.779056 0.556312 0.219092 -0.160069
C21   C     C_2   0.803300 0.612212 0.307781 -0.291718
C22   C     C_2   0.720429 0.443947 0.162809 -0.161609
C23   C     C_R   0.180220 0.015991 0.781218 0.099211
C24   C     C_2   0.696713 0.387747 0.195389 -0.291983
C25   C     C_R   0.139025 0.277207 0.637269 0.875815
C26   C     C_R   0.861132 0.722930 0.361623 0.853719
C27   C     C_R   0.860315 0.998690 0.637272 0.830170
C28   C     C_R   0.361131 0.722916 0.860745 0.875964
C29   C     C_R   0.138490 0.999721 0.361470 0.858382
C30   C     C_R   0.859621 0.999222 0.360412 0.857983
C31   C     C_R   0.140052 0.001661 0.641752 0.781211
C32   C     C_R   0.640347 0.000803 0.139648 0.856363
C33   C     C_R   0.359818 0.001542 0.861579 0.786025
C34   C     C_R   0.234728 0.015825 0.835773 0.097849
C35   C     C_R   0.220921 0.029046 0.915547 -0.172244
C36   C     C_R   0.153863 0.040015 0.939769 -0.135783
C37   C     C_R   0.100525 0.040184 0.886386 -0.138318
C38   C     C_3   0.737409 0.156635 0.813007 -0.754058
C39   C     C_R   0.303648 0.006498 0.810618 -0.073406
C40   C     C_R   0.320510 0.002870 0.735590 -0.203603
C41   C     C_R   0.267334 0.003012 0.682371 -0.200307
C42   C     C_R   0.196078 0.006793 0.702960 -0.071350
C43   C     C_2   0.777884 0.941975 0.722495 -0.157198
H1    H     H_    0.374033 0.997439 0.716901 0.156881
H2    H     H_    0.262632 0.033458 0.961131 0.147262
H3    H     H_    0.769916 0.034069 0.340333 0.150357
H4    H     H_    0.692982 0.878679 0.091681 0.180716
H5    H     H_    0.729725 0.070197 0.264614 0.150870
H6    H     H_    0.801949 0.593811 0.185461 0.176785
H7    H     H_    0.780096 0.578134 0.343747 0.152759
H8    H     H_    0.697087 0.406727 0.091773 0.176344
H9    H     H_    0.720409 0.421595 0.265349 0.152623
H10   H     H_    0.144149 0.050028 0.001004 0.138841
H11   H     H_    0.049436 0.050333 0.906207 0.137990
H12   H     H_    0.165857 0.422471 0.737828 0.133325
H13   H     H_    0.072867 0.034086 0.771196 0.146715
H14   H     H_    0.280588 0.997632 0.623392 0.157979
H15   H     H_    0.806604 0.901147 0.716501 0.175630
H16   H     H_    0.762999 0.024746 0.683141 0.187104
H17   H     H_    0.671335 0.865445 0.764075 0.161679
H18   H     H_    0.815136 0.164330 0.902461 0.221877
H19   H     H_    0.790755 0.210591 0.801838 0.235669
H20   H     H_    0.718514 0.199732 0.866452 0.256172
H21   H     H_    0.679341 0.096219 0.750577 0.238977
H22   H     H_    0.408390 0.595991 0.783466 0.198934
H23   H     H_    0.232875 0.577056 0.779471 0.159233
H24   H     H_    0.315084 0.118327 0.408154 0.190449
H25   H     H_    0.156276 0.936016 0.234876 0.150221
H26   H     H_    0.408550 0.106530 0.314720 0.180340
H27   H     H_    0.234244 0.954880 0.156133 0.150191
H28   H     H_    0.807800 0.899854 0.185409 0.179114
I1    I     I_    0.345352 0.388057 0.619415 -0.353654
N1    N     N_2   0.770406 0.113249 0.838783 -0.300361
O1    O     O_3   0.500000 0.000000 0.000000 -0.487670
O2    O     O_R   0.054120 0.939900 0.325040 -0.648690
O3    O     O_R   0.884120 0.060070 0.444330 -0.644616
O4    O     O_R   0.325020 0.939940 0.054210 -0.649134
O5    O     O_R   0.175860 0.060090 0.615830 -0.632127
O6    O     O_R   0.884120 0.939900 0.324160 -0.644937
O7    O     O_R   0.055710 0.939940 0.615850 -0.646285
O8    O     O_R   0.885720 0.939940 0.614980 -0.645611
O9    O     O_R   0.174930 0.060060 0.445830 -0.628210
O10   O     O_R   0.054120 0.229160 0.614300 -0.645685
O11   O     O_R   0.885050 0.770830 0.325070 -0.643778
O12   O     O_R   0.614240 0.229150 0.054160 -0.645141
O13   O     O_R   0.614240 0.060060 0.885070 -0.636446
O14   O     O_R   0.614900 0.229170 0.174980 -0.643437
O15   O     O_R   0.445840 0.770840 0.885740 -0.640267
O16   O     O_R   0.615830 0.060100 0.175880 -0.646002
O17   O     O_R   0.324090 0.939910 0.884220 -0.644401
O18   O     O_R   0.615830 0.939930 0.055710 -0.643653
O19   O     O_R   0.444240 0.060060 0.884190 -0.637515
O20   O     O_R   0.325020 0.770840 0.885120 -0.641115
O21   O     O_R   0.445840 0.060100 0.175010 -0.639387
O22   O     O_R   0.614900 0.939900 0.885710 -0.654983
O23   O     O_3   0.999960 0.000000 0.500040 -0.494066
O24   O     O_R   0.174930 0.229160 0.614920 -0.603871
O25   O     O_R   0.885720 0.770850 0.445880 -0.640899
O26   O     O_R   0.885050 0.060100 0.614330 -0.642185
Zn1   Zn    Zn3+2 0.542440 0.085830 0.956610 0.959774
Zn2   Zn    Zn3+2 0.543390 0.085850 0.129220 0.968858
Zn3   Zn    Zn3+2 0.543390 0.914160 0.957530 0.965873
Zn4   Zn    Zn3+2 0.370780 0.914160 0.956640 0.969333
Zn5   Zn    Zn3+2 0.957510 0.914170 0.543430 0.964180
Zn6   Zn    Zn3+2 0.956570 0.085840 0.542520 0.971448
Zn7   Zn    Zn3+2 0.956570 0.914150 0.370820 0.966116
Zn8   Zn    Zn3+2 0.129180 0.085840 0.543400 0.998272

loop_
_geom_bond_atom_site_label_1
_geom_bond_atom_site_label_2
_ccdc_geom_bond_type
C24   H9    S    
C15   C18   S    
O23   Zn6   S    
O3    Zn6   S    
C31   C42   S    
C1    O4    A    
C41   C42   A    
C35   C36   A    
C7    H12   S    
C21   C26   S    
C18   H4    S    
O20   Zn4   S    
C31   O7    A    
C10   H24   S    
C6    I1    S    
C12   C23   A    
C3    C43   S    
C33   C39   S    
C23   C42   A    
O7    Zn5   S    
C36   C37   A    
C34   C35   A    
C22   H8    S    
C32   O18   A    
C4    O13   A    
C18   C19   D    
C12   C37   A    
C9    H23   S    
C36   H10   S    
C43   H15   S    
O14   Zn2   S    
O21   Zn2   S    
C1    O21   A    
C28   O15   A    
C16   O14   A    
O11   Zn7   S    
C2    C27   S    
O13   Zn1   S    
O22   Zn3   S    
O1    Zn3   S    
C3    H17   S    
C8    H22   S    
C16   C24   S    
C13   C14   D    
C17   C30   S    
C14   H27   S    
C19   C32   S    
C21   H7    S    
C38   H21   S    
O26   Zn6   S    
C34   C39   A    
C27   O8    A    
C17   H3    S    
C33   O19   A    
C39   C40   A    
C2    H16   S    
C8    C9    D    
C6    C8    S    
H18   N1    S    
O10   Zn6   S    
O6    Zn7   S    
O5    Zn8   S    
C20   H6    S    
C4    O22   A    
C30   O3    A    
O15   Zn3   S    
C32   O16   A    
C2    C43   D    
C23   C34   A    
C27   O26   A    
O9    Zn8   S    
C12   H13   S    
C26   O25   A    
O1    Zn2   S    
C30   O6    A    
C25   O24   A    
C40   C41   A    
O23   Zn8   S    
C20   C22   S    
O23   Zn5   S    
C16   O12   A    
C22   C24   D    
O4    Zn4   S    
C37   H11   S    
O18   Zn3   S    
C35   H2    S    
C11   H25   S    
O19   Zn1   S    
C31   O5    A    
C38   H20   S    
C15   C17   D    
O23   Zn7   S    
C26   O11   A    
O16   Zn2   S    
C19   H5    S    
C4    C5    S    
C3    C5    D    
C10   C13   S    
O1    Zn1   S    
C6    C7    D    
C29   O2    A    
C15   H28   S    
C7    C25   S    
C41   H14   S    
C29   O9    A    
O12   Zn1   S    
C33   O17   A    
C13   H26   S    
O25   Zn5   S    
C5    N1    S    
O17   Zn4   S    
C10   C11   D    
O24   Zn8   S    
C40   H1    S    
C20   C21   D    
C11   C29   S    
O2    Zn7   S    
C25   O10   A    
C28   O20   A    
C1    C14   S    
C38   N1    S    
C9    C28   S    
O1    Zn4   S    
C38   H19   S    
O8    Zn5   S    
