data_mof_unit_67290.cif
_audit_creation_date              2013-03-05T16:02:14-0500
_audit_creation_method            fapswitch 2.2
_symmetry_space_group_name_H-M    P1
_symmetry_Int_Tables_number       1
_space_group_crystal_system       triclinic
_cell_length_a                    8.383662
_cell_length_b                    14.369385
_cell_length_c                    15.244442
_cell_angle_alpha                 93.780506
_cell_angle_beta                  98.82679
_cell_angle_gamma                 92.953098
_cell_volume                      1807.22845245

loop_
_atom_site_label
_atom_site_type_symbol
_atom_site_description
_atom_site_fract_x
_atom_site_fract_y
_atom_site_fract_z
_atom_type_partial_charge
P1    P     P_3+3 0.018600 0.416790 0.295970 0.471841
O1    O     O_2   0.841230 0.444160 0.280430 -0.350731
O2    O     O_3   0.112860 0.447350 0.393710 -0.388165
O3    O     O_3   0.597940 0.615700 0.327690 -0.330989
O4    O     O_2   0.709759 0.567883 0.187036 -0.421134
O5    O     O_3   0.994828 0.295127 0.274602 -0.614170
O6    O     O_3   0.592711 0.731856 0.186159 -0.645146
C1    C     C_3   0.464089 0.850796 0.096620 -0.558431
H1    H     H_    0.554290 0.906367 0.128968 0.201472
H2    H     H_    0.507683 0.821586 0.035863 0.175835
P2    P     P_3+3 0.635660 0.716530 0.560900 0.463426
P3    P     P_3+3 0.045340 0.786394 0.384265 0.476688
O7    O     O_2   0.802240 0.729740 0.532850 -0.337451
O8    O     O_3   0.017180 0.664790 0.371080 -0.372240
O9    O     O_2   0.883653 0.830148 0.395488 -0.424955
O10   O     O_3   0.702854 0.737533 0.675247 -0.562399
O11   O     O_3   0.089731 0.820442 0.281806 -0.570311
C2    C     C_3   0.977355 0.784102 0.207887 1.253497
H3    H     H_    0.893732 0.727987 0.225036 0.065105
C3    C     C_3   0.884827 0.866523 0.175675 -1.090050
H4    H     H_    0.823752 0.891934 0.230511 0.247832
H5    H     H_    0.968807 0.923254 0.160059 0.254808
C4    C     C_3   0.247233 0.777409 0.747213 1.342181
C5    C     C_3   0.206291 0.790783 0.842108 -1.167829
H6    H     H_    0.187459 0.723597 0.870455 0.223979
H7    H     H_    0.306781 0.830302 0.887403 0.246931
H8    H     H_    0.095292 0.829799 0.841982 0.275416
Ba1   Ba    Ba6+2 0.833400 0.543310 0.453520 1.588187
C6    C     C_3   0.964050 0.251408 0.349454 0.208386
H9    H     H_    0.842556 0.268923 0.361429 0.152890
H10   H     H_    0.056320 0.275812 0.407968 0.090630
C7    C     C_3   0.972101 0.144535 0.332342 0.088265
H11   H     H_    0.074000 0.121578 0.379769 0.074877
H12   H     H_    0.002572 0.125266 0.265100 0.109366
C8    C     C_3   0.738924 0.654178 0.713693 0.524354
H13   H     H_    0.834571 0.621547 0.682330 0.100958
H14   H     H_    0.630590 0.605050 0.705188 0.133074
C9    C     C_3   0.796389 0.676507 0.812972 -1.133539
H15   H     H_    0.926693 0.694481 0.824591 0.269488
H16   H     H_    0.773821 0.615474 0.850302 0.233702
H17   H     H_    0.735678 0.736100 0.840271 0.278465
P4    P     P_3+3 0.171090 0.583290 0.704030 0.452756
O12   O     O_2   0.348480 0.555870 0.719620 -0.393543
O13   O     O_3   0.076830 0.552730 0.606300 -0.349725
O14   O     O_3   0.591760 0.384380 0.672320 -0.364570
O15   O     O_3   0.145573 0.705085 0.696199 -0.564716
P5    P     P_3+3 0.163887 0.211856 0.617348 0.430959
O16   O     O_3   0.629090 0.386350 0.459240 -0.381540
O17   O     O_3   0.172520 0.335290 0.628920 -0.388483
O18   O     O_2   0.321982 0.177952 0.590137 -0.382918
O19   O     O_3   0.169850 0.169671 0.723525 -0.647320
Ba2   Ba    Ba6+2 0.356420 0.456770 0.546480 1.556801
P6    P     P_3+3 0.561042 0.615566 0.212902 0.424473
C10   C     C_3   0.443589 0.771306 0.158488 1.042117
H18   H     H_    0.356838 0.719813 0.117047 0.034109
O20   O     O_3   0.560610 0.613730 0.540770 -0.408398
C11   C     C_3   0.455001 0.279365 0.266533 1.171803
H19   H     H_    0.434406 0.350557 0.295205 -0.041484
C12   C     C_3   0.296720 0.222815 0.234424 -1.052691
H20   H     H_    0.245087 0.205944 0.293852 0.227468
H21   H     H_    0.212300 0.261706 0.189428 0.241532
H22   H     H_    0.318457 0.155989 0.198393 0.247239
P7    P     P_3+3 0.560267 0.268991 0.440143 0.418552
O21   O     O_2   0.387460 0.270290 0.467210 -0.396696
O22   O     O_3   0.542536 0.227214 0.328826 -0.642764
H23   H     H_    0.793986 0.846940 0.116222 0.221126
C13   C     C_3   0.159391 0.240160 0.791662 1.036428
H24   H     H_    0.240576 0.302551 0.786783 0.097453
C14   C     C_3   0.215728 0.197074 0.879146 -0.379866
H25   H     H_    0.129908 0.137623 0.887013 0.213891
H26   H     H_    0.333788 0.168224 0.876186 0.216788
P8    P     P_3+3 0.625677 0.392391 0.791283 0.430372
C15   C     C_3   0.660030 0.225961 0.855524 -0.013698
H27   H     H_    0.781785 0.260013 0.867102 0.168885
O23   O     O_2   0.519665 0.468843 0.819882 -0.394623
O24   O     O_3   0.543892 0.293141 0.837620 -0.570106
H28   H     H_    0.643660 0.172915 0.798132 0.108380
C16   C     C_3   0.651427 0.175801 0.941164 0.849226
H29   H     H_    0.577314 0.217818 0.981560 0.034720
C17   C     C_R   0.837462 0.438584 0.834341 0.217410
C18   C     C_R   0.907241 0.446309 0.925990 0.030593
C19   C     C_R   0.050422 0.460433 0.110797 -0.016740
C20   C     C_R   0.897206 0.415857 0.081158 -0.122830
C21   C     C_R   0.826409 0.410700 0.991685 -0.245089
C22   C     C_R   0.116599 0.471554 0.203771 0.219571
H30   H     H_    0.828241 0.385601 0.127091 0.184402
H31   H     H_    0.705405 0.379432 0.974849 0.154652
C23   C     C_R   0.269274 0.518821 0.227536 -0.417749
C24   C     C_R   0.074456 0.523855 0.794468 0.200632
C25   C     C_R   0.145383 0.528996 0.886878 -0.090196
C26   C     C_R   0.064063 0.489612 0.952422 0.035475
C27   C     C_R   0.299349 0.569572 0.914970 -0.147806
C28   C     C_R   0.381073 0.568241 0.001412 0.217596
C29   C     C_R   0.297352 0.539084 0.070967 -0.077591
C30   C     C_R   0.137651 0.496458 0.045055 -0.011921
C31   C     C_R   0.361801 0.551652 0.164345 0.141209
C32   C     C_R   0.925300 0.473663 0.770542 -0.401260
H32   H     H_    0.362564 0.600935 0.868264 0.178054
H33   H     H_    0.319562 0.527971 0.297472 0.176317
H34   H     H_    0.872195 0.466307 0.701032 0.144258
C33   C     C_R   0.712854 0.936817 0.547673 -0.156994
C34   C     C_R   0.501414 0.805448 0.519666 0.179112
C35   C     C_R   0.339989 0.774217 0.490857 -0.403753
C36   C     C_R   0.225056 0.835563 0.460657 0.352460
C37   C     C_R   0.270116 0.930993 0.462761 -0.302554
C38   C     C_R   0.432716 0.964124 0.490605 0.037941
C39   C     C_R   0.550303 0.901744 0.521528 -0.027416
H35   H     H_    0.305052 0.700249 0.486797 0.173145
C40   C     C_R   0.642279 0.092298 0.506112 0.058417
C41   C     C_R   0.760461 0.030414 0.537994 0.090930
C42   C     C_R   0.690645 0.187319 0.500285 0.296349
C43   C     C_R   0.853710 0.217180 0.521905 -0.521064
C44   C     C_R   0.972483 0.156967 0.551839 0.250256
C45   C     C_R   0.925225 0.062844 0.559300 -0.250716
C46   C     C_R   0.480592 0.057065 0.480109 -0.164337
H36   H     H_    0.182138 0.977596 0.434196 0.150101
H37   H     H_    0.014762 0.016659 0.586847 0.153269
H38   H     H_    0.888293 0.290484 0.519166 0.148286
H39   H     H_    0.804898 0.892255 0.574499 0.190342
H40   H     H_    0.390014 0.100612 0.449665 0.163309
O25   O     O_3   0.372608 0.802102 0.232421 -0.603670
C47   C     C_3   0.482446 0.857511 0.296538 -0.035274
H41   H     H_    0.417983 0.916536 0.320726 0.131812
H42   H     H_    0.588248 0.888814 0.272114 0.094955
H43   H     H_    0.527456 0.814180 0.351100 0.161618
O26   O     O_3   0.829923 0.095203 0.347367 -0.591179
C48   C     C_3   0.718993 0.081353 0.267768 -0.118233
H44   H     H_    0.700703 0.147137 0.235424 0.193766
H45   H     H_    0.601004 0.053886 0.282711 0.157822
H46   H     H_    0.761643 0.031716 0.219916 0.096770
C49   C     C_3   0.306123 0.897136 0.068539 -0.809411
H47   H     H_    0.326623 0.951934 0.022667 0.256781
H48   H     H_    0.211712 0.844978 0.033468 0.283538
H49   H     H_    0.263087 0.930814 0.127551 0.278796
O27   O     O_3   0.542107 0.281484 0.194315 -0.652164
C50   C     C_3   0.500079 0.355748 0.142417 -0.417906
H50   H     H_    0.367757 0.361846 0.127492 0.151486
H51   H     H_    0.543840 0.344526 0.078206 0.178672
H52   H     H_    0.561545 0.419925 0.176885 0.224785
O28   O     O_3   0.001033 0.268095 0.796943 -0.698749
C51   C     C_3   0.892943 0.247544 0.717930 -0.242485
H53   H     H_    0.880584 0.171438 0.699903 0.152395
H54   H     H_    0.917457 0.298563 0.670678 0.165170
H55   H     H_    0.770535 0.261949 0.722133 0.150478
C52   C     C_3   0.228264 0.266641 0.960056 -0.915934
H56   H     H_    0.106843 0.289208 0.968831 0.306327
H57   H     H_    0.278371 0.231877 0.020201 0.272275
H58   H     H_    0.308719 0.328586 0.952804 0.262365
O29   O     O_3   0.811547 0.172517 0.987838 -0.658253
C53   C     C_3   0.808700 0.157689 0.077631 -0.274052
H59   H     H_    0.722684 0.098233 0.084712 0.154973
H60   H     H_    0.777765 0.222174 0.113460 0.195267
H61   H     H_    0.931326 0.140573 0.108178 0.182540
O30   O     O_3   0.572987 0.084709 0.921366 -0.673804
C54   C     C_3   0.678935 0.017276 0.896985 -0.180894
H62   H     H_    0.758047 0.996072 0.956674 0.176020
H63   H     H_    0.753967 0.041625 0.847841 0.133356
H64   H     H_    0.606041 0.953747 0.866382 0.131605
C55   C     C_3   0.560570 0.588465 0.009805 -0.925367
H65   H     H_    0.602119 0.593072 0.944918 0.239732
H66   H     H_    0.599924 0.656836 0.044852 0.249144
H67   H     H_    0.621604 0.529145 0.038583 0.274507
O31   O     O_3   0.065738 0.750370 0.141757 -0.627078
C56   C     C_3   0.966718 0.695770 0.071868 -0.403565
H68   H     H_    0.872287 0.735852 0.035118 0.167328
H69   H     H_    0.912422 0.632512 0.096211 0.205144
H70   H     H_    0.043477 0.673547 0.022373 0.197086
C57   C     C_3   0.422702 0.757020 0.748956 -0.966757
H71   H     H_    0.460212 0.705412 0.796778 0.217547
H72   H     H_    0.430032 0.728869 0.681146 0.257188
H73   H     H_    0.507484 0.818930 0.768552 0.214835
O32   O     O_3   0.209748 0.858532 0.700282 -0.617910
C58   C     C_3   0.302625 0.941985 0.733456 -0.275419
H74   H     H_    0.419025 0.945384 0.707230 0.158979
H75   H     H_    0.321493 0.953472 0.806941 0.169043
H76   H     H_    0.235822 0.001154 0.707415 0.221881

loop_
_geom_bond_atom_site_label_1
_geom_bond_atom_site_label_2
_geom_bond_distance
_ccdc_geom_bond_type
C33   C39   1.416352 A    
C43   H38   1.083207 S    
C23   C31   1.415556 A    
C28   C29   1.431493 A    
C17   C18   1.424279 A    
C17   C32   1.410133 A    
C54   H63   1.111698 S    
C34   C35   1.398140 A    
C14   C52   1.522646 S    
C15   H27   1.092868 S    
C37   H36   1.082996 S    
O31   C56   1.411052 S    
C5    H8    1.110702 S    
P8    O24   1.784307 S    
C49   H49   1.110784 S    
C18   C21   1.401492 A    
P7    O22   1.743897 S    
C52   H56   1.108765 S    
Ba1   O20   3.002964 S    
C27   H32   1.060393 S    
O27   C50   1.397629 S    
P5    O17   1.767440 S    
C58   H74   1.109925 S    
C13   C14   1.526665 S    
O26   C48   1.407018 S    
C20   C21   1.397091 A    
O4    P6    1.543593 D    
C56   H68   1.107139 S    
C8    H14   1.107150 S    
C5    H7    1.108821 S    
P3    C36   1.835420 S    
C6    C7    1.547342 S    
C40   C42   1.416551 A    
O10   C8    1.394652 S    
C9    H15   1.094071 S    
O3    P6    1.729493 S    
O12   Ba2   2.926913 S    
C11   C12   1.515874 S    
C38   C39   1.414798 A    
P8    C17   1.867454 S    
C14   H26   1.098671 S    
C2    H3    1.111673 S    
P4    O15   1.783605 S    
C7    O26   1.412048 S    
C28   C55   1.502104 S    
C43   C44   1.396339 A    
O3    Ba1   2.823277 S    
O29   C53   1.402740 S    
C57   H73   1.104759 S    
Ba1   O16   2.775274 S    
C4    O32   1.431144 S    
C42   C43   1.394374 A    
C1    H1    1.106384 S    
C53   H61   1.108359 S    
P3    O11   1.754397 S    
P1    Ba1   3.513386 S    
C15   C16   1.541681 S    
C55   H66   1.096723 S    
O7    Ba1   2.906720 S    
C35   H35   1.083068 S    
C41   C45   1.416592 A    
O13   Ba2   3.008392 S    
C57   H72   1.096768 S    
C12   H20   1.097895 S    
C4    O15   1.417728 S    
C54   H64   1.106024 S    
C29   C30   1.430062 A    
P4    O13   1.597996 S    
P8    O23   1.530763 D    
C36   C37   1.400433 A    
C52   H57   1.109272 S    
P5    O18   1.541026 D    
C11   H19   1.117917 S    
C58   H75   1.107128 S    
P1    C22   1.924416 S    
C45   H37   1.082399 S    
C12   H21   1.107272 S    
P1    O5    1.752485 S    
C33   H39   1.077649 S    
C8    C9    1.523765 S    
C5    H6    1.097234 S    
C9    H17   1.108351 S    
C50   H51   1.101933 S    
Ba2   O21   2.906826 S    
C51   H55   1.067896 S    
C1    C10   1.547683 S    
C16   H29   1.112140 S    
C16   O30   1.426589 S    
O16   P7    1.744996 S    
P5    O19   1.759985 S    
O14   Ba2   2.822749 S    
C33   C41   1.406703 A    
P7    O21   1.566758 D    
Ba1   O13   2.842360 S    
C13   H24   1.110843 S    
C24   C32   1.396173 A    
P1    O2    1.598125 S    
C8    H13   1.103766 S    
C7    H12   1.114872 S    
C52   H58   1.110627 S    
C48   H45   1.107671 S    
C6    H9    1.100706 S    
P2    O10   1.748932 S    
C25   C27   1.381802 A    
C55   H65   1.102800 S    
P3    O9    1.551393 D    
C4    C5    1.539480 S    
O17   Ba2   2.758651 S    
C20   H30   1.073364 S    
C1    C49   1.528066 S    
O11   C2    1.405691 S    
O25   C47   1.408131 S    
C55   H67   1.098270 S    
C34   C39   1.419966 A    
O19   C13   1.418067 S    
O28   C51   1.396340 S    
C29   C31   1.439064 A    
C13   O28   1.419028 S    
O30   C54   1.417227 S    
C57   H71   1.097839 S    
C10   O25   1.409758 S    
C3    H5    1.111212 S    
C46   H40   1.078280 S    
C15   O24   1.415773 S    
C53   H60   1.107104 S    
P4    O12   1.545211 D    
O6    P6    1.762475 S    
C47   H42   1.100038 S    
C49   H47   1.110916 S    
C35   C36   1.386484 A    
C32   H34   1.080652 S    
O32   C58   1.415278 S    
C44   C45   1.406434 A    
C22   C23   1.402340 A    
C3    H23   1.101399 S    
P5    C44   1.862327 S    
C10   H18   1.103385 S    
O2    Ba1   3.007406 S    
C12   H22   1.111835 S    
C19   C30   1.435794 A    
C56   H70   1.106254 S    
C11   O22   1.392324 S    
C50   H50   1.106921 S    
C49   H48   1.109147 S    
O2    Ba2   2.842896 S    
Ba1   Ba2   4.583062 S    
C21   H31   1.074616 S    
C19   C22   1.435917 A    
C37   C38   1.412089 A    
P6    C31   1.885308 S    
C38   C46   1.401048 A    
P4    C24   1.926980 S    
C7    H11   1.110081 S    
C47   H43   1.103671 S    
C51   H54   1.094602 S    
P3    O8    1.745304 S    
C48   H46   1.098383 S    
C6    H10   1.111789 S    
C51   H53   1.105508 S    
C50   H52   1.093669 S    
C9    H16   1.100258 S    
P2    O7    1.528362 D    
C2    O31   1.414953 S    
C25   C26   1.423835 A    
P2    Ba1   3.513400 S    
P1    O1    1.544808 D    
C56   H69   1.106730 S    
C27   C28   1.390637 A    
C58   H76   1.104296 S    
P2    C34   1.825177 S    
C2    C3    1.516579 S    
P7    C42   1.838231 S    
C14   H25   1.112865 S    
C23   H33   1.081458 S    
C40   C46   1.410258 A    
C26   C30   1.446539 A    
C4    C57   1.511302 S    
C18   C26   1.413561 A    
Ba2   O20   2.774663 S    
O16   Ba2   3.002031 S    
O5    C6    1.389782 S    
C3    H4    1.097568 S    
C1    H2    1.111777 S    
C19   C20   1.401191 A    
C54   H62   1.110346 S    
C47   H41   1.102058 S    
C15   H28   1.108930 S    
C53   H59   1.110926 S    
C11   O27   1.412482 S    
O1    Ba1   2.926387 S    
O6    C10   1.415960 S    
O8    Ba1   2.758052 S    
C24   C25   1.438138 A    
C40   C41   1.417268 A    
P2    O20   1.567576 S    
C48   H44   1.101519 S    
C16   O29   1.424192 S    
P4    Ba2   3.514009 S    
O14   P8    1.787131 S    
