data_mof_unit_39719.cif
_audit_creation_date              2012-12-10T18:59:14-0500
_audit_creation_method            fapswitch 2.2
_symmetry_space_group_name_H-M    P1
_symmetry_Int_Tables_number       1
_space_group_crystal_system       triclinic
_cell_length_a                    10.848474
_cell_length_b                    10.805939
_cell_length_c                    9.515913
_cell_angle_alpha                 90.449627
_cell_angle_beta                  90.54959
_cell_angle_gamma                 90.381829
_cell_volume                      1115.41995512

loop_
_atom_site_label
_atom_site_type_symbol
_atom_type_description
_atom_site_fract_x
_atom_site_fract_y
_atom_site_fract_z
_atom_type_partial_charge
C1    C     C_R   0.500604 0.262426 0.499115 0.843378
C2    C     C_R   0.062574 0.531728 0.628415 0.056167
C3    C     C_R   0.127548 0.513375 0.501484 -0.189594
C4    C     C_R   0.064131 0.476758 0.379275 -0.171066
C5    C     C_R   0.938211 0.455749 0.380357 0.392798
C6    C     C_R   0.872551 0.471774 0.506869 -0.223907
C7    C     C_R   0.418287 0.064471 0.582587 0.054760
C8    C     C_R   0.496879 0.129191 0.493974 -0.180368
C9    C     C_R   0.562305 0.063658 0.389859 0.417413
C10   C     C_R   0.563474 0.933945 0.394550 -0.310140
C11   C     C_R   0.496858 0.870787 0.497766 -0.142341
C12   C     C_R   0.262256 0.508629 0.500039 0.817287
C13   C     C_R   0.418119 0.937325 0.584593 0.112397
C14   C     C_3   0.397990 0.934418 0.739621 -0.460047
C15   C     C_3   0.397063 0.075068 0.736755 -0.446166
C16   C     C_R   0.599112 0.545225 0.075217 0.281622
C17   C     C_R   0.408366 0.443233 0.073024 -0.068401
C18   C     C_R   0.408361 0.443208 0.923952 -0.087626
C19   C     C_R   0.599369 0.544747 0.927708 0.236557
C20   C     C_3   0.651150 0.672684 0.923486 -0.501756
C21   C     C_3   0.650468 0.673301 0.082920 -0.495152
C22   C     C_R   0.499742 0.737623 0.500300 0.832567
C23   C     C_R   0.737556 0.487264 0.501423 0.816895
C24   C     C_R   0.117093 0.586201 0.750182 -0.257502
C25   C     C_R   0.060848 0.575685 0.881904 0.446051
C26   C     C_R   0.949454 0.512066 0.891085 -0.160184
C27   C     C_R   0.889000 0.470340 0.769663 -0.246391
C28   C     C_R   0.939277 0.491363 0.634989 0.061252
Cu1   Cu    Cu3+1 0.499990 0.499980 0.640670 0.929229
Cu2   Cu    Cu3+1 0.500010 0.500020 0.359330 0.961079
H1    H     H_    0.113086 0.459372 0.282399 0.197612
H2    H     H_    0.478125 0.897961 0.798582 0.193575
H3    H     H_    0.305413 0.115020 0.760746 0.195627
H4    H     H_    0.476094 0.118187 0.794314 0.201746
H5    H     H_    0.333233 0.399145 0.127722 0.148090
H6    H     H_    0.333193 0.399046 0.866956 0.153886
H7    H     H_    0.745245 0.675933 0.878870 0.213440
H8    H     H_    0.585841 0.739300 0.877109 0.208015
H9    H     H_    0.744406 0.675941 0.130603 0.220295
H10   H     H_    0.584355 0.740848 0.127335 0.204217
H11   H     H_    0.202327 0.638188 0.744095 0.149618
H12   H     H_    0.907779 0.497288 0.992492 0.203593
H13   H     H_    0.805656 0.417051 0.784137 0.182733
H14   H     H_    0.622320 0.883219 0.323513 0.160146
H15   H     H_    0.307289 0.893082 0.766879 0.192102
N1    N     N_R   0.500790 0.500930 0.147930 -0.193315
N2    N     N_R   0.500790 0.500890 0.852020 -0.191736
O1    O     O_R   0.500000 0.319640 0.618810 -0.593348
O2    O     O_R   0.500010 0.319680 0.381230 -0.561361
O3    O     O_R   0.319640 0.499980 0.618820 -0.592747
O4    O     O_R   0.319650 0.500020 0.381230 -0.587245
O5    O     O_R   0.499990 0.680320 0.618770 -0.584487
O6    O     O_R   0.500000 0.680360 0.381190 -0.582098
O7    O     O_R   0.680350 0.499980 0.618770 -0.589480
O8    O     O_R   0.680360 0.500020 0.381180 -0.559644
O9    O     O_3   0.114279 0.622732 0.003304 -0.736857
H16   H     H_    0.193892 0.662672 0.979529 0.315204
O10   O     O_3   0.883854 0.413895 0.257257 -0.743614
H17   H     H_    0.818283 0.353935 0.282221 0.348448
O11   O     O_3   0.639876 0.126248 0.299533 -0.578007
C29   C     C_3   0.598102 0.109035 0.159601 0.086665
H18   H     H_    0.499513 0.136044 0.147878 0.141829
H19   H     H_    0.609304 0.011186 0.124991 0.135343
C30   C     C_3   0.674466 0.190332 0.063336 -0.770434
H20   H     H_    0.773401 0.165450 0.071935 0.255468
H21   H     H_    0.643603 0.177415 0.952677 0.188091
H22   H     H_    0.663470 0.289024 0.093135 0.249815

loop_
_geom_bond_atom_site_label_1
_geom_bond_atom_site_label_2
_ccdc_geom_bond_type
C29   C30   S    
C12   O3    A    
Cu2   O4    S    
C1    O1    A    
C23   O8    A    
Cu1   Cu2   S    
C20   H7    S    
C6    C28   A    
C22   O6    A    
C1    C8    S    
C20   H8    S    
C9    C10   A    
C11   C22   S    
C19   C20   S    
C21   H9    S    
C25   O9    S    
C9    O11   S    
C30   H20   S    
C20   C21   S    
C7    C15   S    
C17   C18   A    
C25   C26   A    
C17   N1    A    
C7    C8    A    
C13   C14   S    
C24   C25   A    
C16   C21   S    
C24   H11   S    
C11   C13   A    
C26   C27   A    
C5    C6    A    
C21   H10   S    
C1    O2    A    
C5    O10   S    
Cu1   N2    S    
C16   C19   A    
C6    C23   S    
Cu2   O2    S    
Cu2   N1    S    
C2    C3    A    
C14   H15   S    
Cu1   O3    S    
C2    C24   A    
C29   H18   S    
Cu2   O6    S    
C19   N2    A    
C4    H1    S    
C10   C11   A    
Cu1   O1    S    
C10   H14   S    
C3    C4    A    
C30   H22   S    
C27   H13   S    
C7    C13   A    
C12   O4    A    
O9    H16   S    
C26   H12   S    
C23   O7    A    
C22   O5    A    
Cu1   O7    S    
C16   N1    A    
C27   C28   A    
C29   H19   S    
C14   C15   S    
C8    C9    A    
C2    C28   A    
C3    C12   S    
C17   H5    S    
O10   H17   S    
C4    C5    A    
C18   H6    S    
Cu2   O8    S    
C15   H3    S    
C15   H4    S    
C14   H2    S    
O11   C29   S    
C18   N2    A    
Cu1   O5    S    
C30   H21   S    
