data_mof_unit_59300.cif
_audit_creation_date              2012-12-10T19:00:13-0500
_audit_creation_method            fapswitch 2.2
_symmetry_space_group_name_H-M    P1
_symmetry_Int_Tables_number       1
_space_group_crystal_system       triclinic
_cell_length_a                    9.54906
_cell_length_b                    10.82892
_cell_length_c                    13.498144
_cell_angle_alpha                 90.314966
_cell_angle_beta                  73.220733
_cell_angle_gamma                 89.806615
_cell_volume                      1336.32394316

loop_
_atom_site_label
_atom_site_type_symbol
_atom_type_description
_atom_site_fract_x
_atom_site_fract_y
_atom_site_fract_z
_atom_type_partial_charge
C1    C     C_R   0.501113 0.737676 0.496983 0.793117
C2    C     C_R   0.443581 0.557317 0.976194 0.080940
C3    C     C_R   0.489472 0.557651 0.866421 0.089946
C4    C     C_R   0.550535 0.539075 0.029775 0.073782
C5    C     C_R   0.700057 0.526800 0.972823 0.174100
C6    C     C_R   0.744009 0.550303 0.867565 -0.255564
C7    C     C_R   0.640312 0.572185 0.816508 -0.196549
C8    C     C_R   0.513944 0.528634 0.137625 -0.250860
C9    C     C_R   0.766306 0.485306 0.129079 -0.197097
C10   C     C_R   0.382921 0.545626 0.811180 -0.108027
C11   C     C_R   0.390332 0.937134 0.468344 0.138891
C12   C     C_R   0.423537 0.514280 0.699058 0.791311
C13   C     C_R   0.507203 0.870659 0.485040 -0.124082
C14   C     C_R   0.634582 0.935041 0.486230 -0.210230
C15   C     C_R   0.634578 0.063772 0.487360 -0.217244
C16   C     C_R   0.506738 0.129215 0.488377 -0.100321
C17   C     C_R   0.389245 0.064225 0.472474 0.075358
C18   C     C_3   0.229321 0.070899 0.527386 -0.458497
C19   C     C_3   0.229019 0.930317 0.519528 -0.046256
C20   C     C_R   0.943157 0.402114 0.459542 0.261545
C21   C     C_R   0.905859 0.590948 0.548149 -0.084798
C22   C     C_R   0.053722 0.589503 0.550059 -0.098899
C23   C     C_R   0.500934 0.262324 0.498584 0.817722
C24   C     C_R   0.090801 0.402571 0.458890 0.262133
C25   C     C_3   0.140682 0.357224 0.349782 -0.501830
C26   C     C_3   0.981455 0.355925 0.350770 -0.513998
C27   C     C_R   0.577586 0.499732 0.300416 0.801906
C28   C     C_R   0.805095 0.495319 0.022132 -0.204165
C29   C     C_R   0.620924 0.504290 0.187408 -0.044822
C30   C     C_R   0.234743 0.562515 0.865149 -0.199659
C31   C     C_R   0.192225 0.583779 0.971389 -0.156113
C32   C     C_R   0.293389 0.575820 0.027199 -0.177932
Cu1   Cu    Cu3+1 0.359330 0.500020 0.500010 0.935644
Cu2   Cu    Cu3+1 0.640670 0.499980 0.499990 0.939079
H1    H     H_    0.849846 0.463058 0.165745 0.144713
H2    H     H_    0.731625 0.111169 0.493215 0.162426
H3    H     H_    0.207028 0.105209 0.608291 0.178553
H4    H     H_    0.166557 0.119001 0.481332 0.198002
H5    H     H_    0.200803 0.883088 0.595678 0.157852
H6    H     H_    0.836051 0.667327 0.583771 0.125609
H7    H     H_    0.092975 0.662868 0.589532 0.141919
H8    H     H_    0.205963 0.426587 0.295765 0.211844
H9    H     H_    0.190692 0.263669 0.342914 0.192005
H10   H     H_    0.956825 0.424377 0.297224 0.211800
H11   H     H_    0.859068 0.553859 0.824745 0.139644
H12   H     H_    0.938832 0.261472 0.345479 0.193342
H13   H     H_    0.916866 0.477522 0.977279 0.134455
H14   H     H_    0.402864 0.539599 0.184740 0.143186
H15   H     H_    0.151533 0.561147 0.825037 0.146054
H16   H     H_    0.250596 0.587916 0.109711 0.122371
H17   H     H_    0.079480 0.604236 0.011950 0.142039
H18   H     H_    0.681700 0.605299 0.738941 0.174004
H19   H     H_    0.731371 0.886749 0.492086 0.161325
N1    N     N_R   0.852320 0.499070 0.499340 -0.182383
N2    N     N_R   0.148230 0.499110 0.499340 -0.185274
O1    O     O_R   0.381190 0.680360 0.500000 -0.589825
O2    O     O_R   0.618780 0.680320 0.499990 -0.592792
O3    O     O_R   0.323230 0.500000 0.650990 -0.580498
O4    O     O_R   0.560820 0.499960 0.650980 -0.585768
O5    O     O_R   0.381220 0.319680 0.500010 -0.575510
O6    O     O_R   0.618810 0.319640 0.500000 -0.582669
O7    O     O_R   0.439180 0.500040 0.349020 -0.588392
O8    O     O_R   0.676770 0.500000 0.349010 -0.583924
C33   C     C_3   0.145751 0.882237 0.445737 -0.836580
H20   H     H_    0.170187 0.937853 0.373814 0.237878
H21   H     H_    0.177588 0.785234 0.423332 0.254113
H22   H     H_    0.026327 0.886359 0.484767 0.221946

loop_
_geom_bond_atom_site_label_1
_geom_bond_atom_site_label_2
_ccdc_geom_bond_type
C25   H8    S    
Cu1   N2    S    
Cu2   O2    S    
C2    C4    A    
C8    H14   S    
C28   H13   S    
Cu1   O3    S    
C27   O7    A    
C1    O2    A    
C27   C29   S    
C5    C28   A    
C10   C30   A    
C31   C32   A    
C17   C18   S    
C9    C29   A    
C19   C33   S    
C4    C8    A    
C12   O3    A    
C33   H20   S    
C25   H9    S    
Cu1   O1    S    
C2    C3    A    
C18   H4    S    
C26   H10   S    
C3    C10   A    
C13   C14   A    
C24   C25   S    
C24   N2    A    
C23   O5    A    
C11   C13   A    
C30   C31   A    
C32   H16   S    
C22   N2    A    
C21   H6    S    
C27   O8    A    
C5    C6    A    
C19   H5    S    
C2    C32   A    
Cu2   O8    S    
C6    H11   S    
C18   H3    S    
Cu1   Cu2   S    
C7    H18   S    
Cu2   N1    S    
Cu1   O5    S    
C3    C7    A    
C21   N1    A    
C10   C12   S    
C16   C17   A    
C1    O1    A    
Cu2   O4    S    
C22   H7    S    
C1    C13   S    
C8    C29   A    
C15   C16   A    
C33   H22   S    
C15   H2    S    
C23   O6    A    
C14   H19   S    
C16   C23   S    
C20   N1    A    
C18   C19   S    
C9    H1    S    
C26   H12   S    
C14   C15   A    
C11   C19   S    
C25   C26   S    
C21   C22   A    
C12   O4    A    
Cu1   O7    S    
C30   H15   S    
Cu2   O6    S    
C11   C17   A    
C6    C7    A    
C20   C24   A    
C9    C28   A    
C31   H17   S    
C4    C5    A    
C20   C26   S    
C33   H21   S    
