data_mof_unit_26392.cif
_audit_creation_date              2012-12-10T19:40:39-0500
_audit_creation_method            fapswitch 2.2
_symmetry_space_group_name_H-M    P1
_symmetry_Int_Tables_number       1
_space_group_crystal_system       triclinic
_cell_length_a                    18.418042
_cell_length_b                    18.484043
_cell_length_c                    18.510586
_cell_angle_alpha                 120.354528
_cell_angle_beta                  119.803814
_cell_angle_gamma                 89.774003
_cell_volume                      4453.98822582

loop_
_atom_site_label
_atom_site_type_symbol
_atom_type_description
_atom_site_fract_x
_atom_site_fract_y
_atom_site_fract_z
_atom_type_partial_charge
C1    C     C_R   0.360378 0.140198 0.502667 0.540957
C2    C     C_3   0.776219 0.833681 0.432127 0.240669
C3    C     C_R   0.215368 0.749875 0.413899 -0.051674
C4    C     C_R   0.638364 0.858338 0.498355 0.519403
C5    C     C_R   0.305833 0.795795 0.493239 -0.033889
C6    C     C_R   0.345730 0.773456 0.564601 0.254073
C7    C     C_R   0.292912 0.714134 0.560309 0.262360
C8    C     C_R   0.199126 0.685899 0.493838 -0.023074
C9    C     C_R   0.164457 0.702046 0.419765 -0.068054
C10   C     C_3   0.082357 0.718693 0.364661 0.243305
C11   C     C_3   0.135742 0.765640 0.347266 0.537315
C12   C     C_2   0.308651 0.817418 0.112193 0.315857
C13   C     C_R   0.221535 0.167164 0.418894 -0.084346
C14   C     C_R   0.306142 0.197651 0.505710 -0.026658
C15   C     C_R   0.339611 0.285953 0.592717 0.264225
C16   C     C_R   0.640521 0.139792 0.500179 0.526400
C17   C     C_R   0.285846 0.340637 0.591724 0.260455
C18   C     C_R   0.198470 0.306560 0.503215 -0.022025
C19   C     C_R   0.169602 0.221290 0.416394 -0.067869
C20   C     C_3   0.084579 0.144853 0.347591 0.609927
C21   C     C_3   0.143621 0.086835 0.358908 0.229430
C22   C     C_R   0.716875 0.286172 0.949054 -0.075898
C23   C     C_R   0.724255 0.775924 0.437305 -0.053980
C24   C     C_R   0.686353 0.193759 0.889836 -0.036635
C25   C     C_R   0.707046 0.154778 0.944325 0.241567
C26   C     C_R   0.765014 0.208227 0.053144 0.239564
C27   C     C_R   0.799918 0.302203 0.109896 -0.042048
C28   C     C_R   0.359948 0.859289 0.499341 0.535446
C29   C     C_R   0.771973 0.336852 0.053246 -0.103004
C30   C     C_3   0.776026 0.423170 0.064208 0.425784
C31   C     C_3   0.705858 0.365604 0.945913 0.409388
C32   C     C_R   0.713875 0.285214 0.549589 -0.083738
C33   C     C_R   0.695920 0.193770 0.497914 -0.040647
C34   C     C_R   0.685567 0.793918 0.490203 0.028347
C35   C     C_R   0.733693 0.155394 0.441979 0.244487
C36   C     C_R   0.779716 0.208196 0.432976 0.235435
C37   C     C_R   0.801376 0.301796 0.493437 -0.040277
C38   C     C_R   0.764992 0.336143 0.548069 -0.083127
C39   C     C_3   0.757491 0.421922 0.614204 0.565963
C40   C     C_R   0.635987 0.138878 0.777622 0.516860
C41   C     C_3   0.701007 0.364509 0.620453 0.563953
C42   C     C_R   0.140634 0.638628 0.499322 0.533821
C43   C     C_R   0.858987 0.359695 0.498270 0.529731
C44   C     C_R   0.858666 0.638474 0.498926 0.516879
C45   C     C_R   0.690068 0.744999 0.530846 0.079288
C46   C     C_R   0.140315 0.360262 0.501326 0.542054
C47   C     C_R   0.859896 0.360534 0.222252 0.503259
C48   C     C_R   0.138395 0.635861 0.777125 0.517394
C49   C     C_R   0.361884 0.863926 0.223258 0.527736
C50   C     C_2   0.280255 0.705619 0.947779 0.135857
C51   C     C_2   0.190370 0.673396 0.886352 0.113972
C52   C     C_2   0.326112 0.746235 0.057991 0.350998
C53   C     C_3   0.488532 0.771108 0.630993 -0.068282
C54   C     C_3   0.348108 0.610838 0.580971 -0.113010
C55   C     C_3   0.167740 0.743760 0.231047 -0.077557
C56   C     C_R   0.745245 0.691233 0.531995 0.064175
C57   C     C_3   0.062322 0.863352 0.325985 -0.107765
C58   C     C_3   0.486883 0.368968 0.701323 -0.073581
C59   C     C_3   0.362369 0.490306 0.695303 -0.073277
C60   C     C_3   0.963164 0.084711 0.333757 -0.025450
C61   C     C_3   0.065761 0.148456 0.211490 -0.152975
C62   C     C_3   0.592910 0.045779 0.883609 -0.063821
C63   C     C_3   0.846616 0.130297 0.101874 -0.058949
C64   C     C_3   0.912866 0.422865 0.078049 -0.101552
C65   C     C_3   0.735865 0.459373 0.908537 -0.030478
C66   C     C_3   0.809022 0.060595 0.454306 -0.087795
C67   C     C_R   0.794705 0.685872 0.491343 0.019507
C68   C     C_3   0.370990 0.624957 0.044640 -0.116217
C69   C     C_3   0.735734 0.136017 0.268929 -0.071952
C70   C     C_3   0.837044 0.560136 0.772146 -0.071127
C71   C     C_3   0.653522 0.408202 0.458379 -0.125750
C72   C     C_3   0.809032 0.350884 0.752706 -0.096187
C73   C     C_3   0.596901 0.435551 0.627175 -0.103182
C74   C     C_3   0.214892 0.903777 0.112484 -0.111261
C75   C     C_R   0.777401 0.723342 0.437859 -0.035869
C76   C     C_3   0.835807 0.774163 0.432132 0.274859
H1    H     H_    0.316214 0.741733 0.879763 0.261794
H2    H     H_    0.287391 0.553825 0.533687 0.134735
H3    H     H_    0.962012 0.651999 0.225971 0.250779
H4    H     H_    0.032981 0.593947 0.232952 0.241911
H5    H     H_    0.110320 0.834963 0.497253 0.242902
H6    H     H_    0.004541 0.793014 0.394749 0.236103
H7    H     H_    0.181629 0.815212 0.261650 0.179181
H8    H     H_    0.138422 0.706194 0.148162 0.121872
H9    H     H_    0.229701 0.729148 0.265904 0.127942
H10   H     H_    0.048396 0.919026 0.374756 0.149095
H11   H     H_    0.002777 0.803443 0.274150 0.106068
H12   H     H_    0.325806 0.642049 0.859943 0.242806
H13   H     H_    0.069702 0.877443 0.278068 0.138640
H14   H     H_    0.464365 0.388676 0.647882 0.063801
H15   H     H_    0.535377 0.334721 0.696011 0.193085
H16   H     H_    0.522572 0.430163 0.780325 0.127969
H17   H     H_    0.334639 0.545408 0.712516 0.169617
H18   H     H_    0.362222 0.471165 0.627562 0.054015
H19   H     H_    0.431688 0.517548 0.762693 0.112544
H20   H     H_    0.971251 0.019422 0.292915 0.103869
H21   H     H_    0.907557 0.092247 0.278072 0.158427
H22   H     H_    0.945428 0.084628 0.382842 0.142802
H23   H     H_    0.679297 0.763325 0.275908 0.223345
H24   H     H_    0.098352 0.705682 0.916383 0.258527
H25   H     H_    0.105705 0.604376 0.887221 0.231811
H26   H     H_    0.080650 0.221244 0.249394 0.104645
H27   H     H_    0.126487 0.130539 0.223811 0.146537
H28   H     H_    0.018467 0.114939 0.127996 0.114956
H29   H     H_    0.192034 0.025367 0.432451 0.278431
H30   H     H_    0.165516 0.112647 0.492615 0.247826
H31   H     H_    0.064300 0.968885 0.217591 0.228863
H32   H     H_    0.172332 0.980170 0.276518 0.242136
H33   H     H_    0.565109 0.973094 0.842229 0.180954
H34   H     H_    0.684891 0.868389 0.343153 0.279448
H35   H     H_    0.542655 0.066107 0.838581 0.116728
H36   H     H_    0.604715 0.078320 0.959846 0.130556
H37   H     H_    0.855909 0.094310 0.137056 0.162468
H38   H     H_    0.910185 0.183193 0.147363 0.142874
H39   H     H_    0.828074 0.081006 0.023112 0.140246
H40   H     H_    0.795426 0.526655 0.197453 0.292341
H41   H     H_    0.701676 0.442426 0.124171 0.193151
H42   H     H_    0.875756 0.359166 0.000817 0.135635
H43   H     H_    0.949682 0.410640 0.137596 0.118303
H44   H     H_    0.961647 0.460923 0.080849 0.116055
H45   H     H_    0.553853 0.818839 0.671587 0.173591
H46   H     H_    0.573237 0.317335 0.833665 0.270732
H47   H     H_    0.594077 0.353804 0.946907 0.206814
H48   H     H_    0.735947 0.509350 0.975921 0.145996
H49   H     H_    0.677747 0.450304 0.840271 0.118244
H50   H     H_    0.796565 0.488913 0.920798 0.143318
H51   H     H_    0.805832 0.990453 0.413907 0.183633
H52   H     H_    0.825343 0.084362 0.530785 0.104667
H53   H     H_    0.863912 0.098088 0.463972 0.143305
H54   H     H_    0.385988 0.607297 0.987752 0.153824
H55   H     H_    0.300934 0.587936 0.006135 0.109117
H56   H     H_    0.463234 0.725923 0.548736 0.093521
H57   H     H_    0.413980 0.603673 0.092942 0.141152
H58   H     H_    0.713800 0.191042 0.265315 0.116951
H59   H     H_    0.679018 0.083334 0.239247 0.144120
H60   H     H_    0.758084 0.106207 0.217740 0.150142
H61   H     H_    0.787621 0.549200 0.786421 0.109273
H62   H     H_    0.822312 0.600976 0.741787 0.158092
H63   H     H_    0.902577 0.598712 0.846970 0.115922
H64   H     H_    0.609647 0.345809 0.429978 0.138567
H65   H     H_    0.690811 0.393259 0.423258 0.121356
H66   H     H_    0.609880 0.443481 0.432561 0.119688
H67   H     H_    0.500353 0.733279 0.664637 0.121499
H68   H     H_    0.845792 0.384627 0.836203 0.148181
H69   H     H_    0.858312 0.362741 0.738713 0.124137
H70   H     H_    0.781871 0.279033 0.715841 0.139169
H71   H     H_    0.633090 0.493997 0.641407 0.136068
H72   H     H_    0.615722 0.449767 0.700899 0.110810
H73   H     H_    0.525518 0.427147 0.582211 0.103379
H74   H     H_    0.265351 0.967433 0.186234 0.140718
H75   H     H_    0.179152 0.865235 0.122640 0.128217
H76   H     H_    0.165048 0.920786 0.063147 0.140452
H77   H     H_    0.596965 0.687454 0.531583 0.203713
H78   H     H_    0.369867 0.604716 0.532258 0.062894
H79   H     H_    0.683527 0.774822 0.648795 0.221111
H80   H     H_    0.689417 0.602186 0.538447 0.235998
H81   H     H_    0.777384 0.689901 0.653223 0.220756
H82   H     H_    0.963933 0.776267 0.513323 0.277848
H83   H     H_    0.931704 0.838347 0.587980 0.200280
H84   H     H_    0.766441 0.675771 0.275575 0.224207
H85   H     H_    0.847383 0.761754 0.321740 0.244817
H86   H     H_    0.776306 0.959687 0.520485 0.230881
H87   H     H_    0.847198 0.928340 0.589357 0.212525
H88   H     H_    0.401342 0.605810 0.641125 0.110231
N1    N     N_3   0.334446 0.707160 0.913105 -0.615538
N2    N     N_3   0.639983 0.750834 0.572037 -0.614168
N3    N     N_3   0.752463 0.644085 0.576232 -0.566831
N4    N     N_3   0.928245 0.820325 0.522648 -0.572491
N5    N     N_3   0.830795 0.719761 0.337254 -0.570313
N6    N     N_3   0.822335 0.926194 0.523505 -0.599790
N7    N     N_3   0.724067 0.827676 0.336823 -0.611510
N8    N     N_3   0.009319 0.636616 0.273026 -0.505503
N9    N     N_3   0.057484 0.776067 0.433152 -0.564542
N10   N     N_3   0.142607 0.670577 0.927827 -0.655174
N11   N     N_3   0.145350 0.057701 0.420313 -0.643457
N12   N     N_3   0.127585 0.014090 0.262138 -0.630334
N13   N     N_3   0.741915 0.479771 0.121788 -0.596054
N14   N     N_3   0.615352 0.368577 0.911512 -0.604269
O1    O     O_3   0.500000 0.000000 0.500000 -0.463167
O2    O     O_R   0.055460 0.323770 0.439940 -0.492084
O3    O     O_R   0.885490 0.446080 0.270840 -0.540796
O4    O     O_R   0.323800 0.055370 0.439900 -0.569308
O5    O     O_R   0.175320 0.614550 0.729170 -0.558668
O6    O     O_R   0.885490 0.324650 0.270840 -0.508630
O7    O     O_R   0.053870 0.614540 0.729150 -0.536580
O8    O     O_R   0.883910 0.615420 0.560060 -0.500552
O9    O     O_R   0.176240 0.444580 0.560100 -0.547321
O10   O     O_R   0.055460 0.616070 0.439920 -0.494303
O11   O     O_R   0.884570 0.323750 0.439920 -0.493055
O12   O     O_R   0.616140 0.055410 0.439930 -0.502133
O13   O     O_R   0.616140 0.884540 0.439940 -0.563185
O14   O     O_R   0.615480 0.176200 0.560080 -0.514143
O15   O     O_R   0.444590 0.883880 0.560080 -0.507034
O16   O     O_R   0.614550 0.175310 0.729160 -0.529995
O17   O     O_R   0.324730 0.885400 0.270830 -0.606665
O18   O     O_R   0.614550 0.053870 0.729160 -0.496447
O19   O     O_R   0.446170 0.885420 0.270850 -0.497108
O20   O     O_3   0.433104 0.820070 0.648718 -0.531632
O21   O     O_3   0.334180 0.692484 0.629138 -0.509670
O22   O     O_3   0.106384 0.714703 0.242962 -0.616414
O23   O     O_R   0.323800 0.884510 0.439910 -0.543220
O24   O     O_3   0.142355 0.856166 0.389840 -0.566654
O25   O     O_3   0.418559 0.314044 0.683949 -0.532540
O26   O     O_3   0.313381 0.420960 0.682576 -0.522562
O27   O     O_3   0.040901 0.157517 0.396218 -0.533688
O28   O     O_3   0.025649 0.119583 0.245033 -0.583712
O29   O     O_3   0.672372 0.064069 0.892584 -0.542122
O30   O     O_3   0.780370 0.168037 0.102781 -0.557014
O31   O     O_3   0.858544 0.473458 0.097586 -0.536052
O32   O     O_3   0.734318 0.375444 0.892168 -0.534957
O33   O     O_3   0.726171 0.066566 0.395460 -0.530612
O34   O     O_R   0.444590 0.176180 0.560060 -0.517649
O35   O     O_3   0.390840 0.717602 0.108049 -0.573885
O36   O     O_3   0.807054 0.167534 0.368925 -0.546038
O37   O     O_3   0.842244 0.479554 0.706401 -0.547743
O38   O     O_3   0.712658 0.464657 0.566359 -0.572779
O39   O     O_3   0.739388 0.385096 0.720413 -0.565933
O40   O     O_3   0.609949 0.356441 0.570391 -0.554804
O41   O     O_3   0.253265 0.852822 0.063220 -0.607449
O42   O     O_R   0.615480 0.883900 0.560100 -0.507728
O43   O     O_3   0.000040 0.499960 0.500000 -0.471779
O44   O     O_R   0.176240 0.615450 0.560090 -0.522682
O45   O     O_R   0.883910 0.444550 0.560070 -0.495658
O46   O     O_R   0.884570 0.616050 0.439900 -0.541386
Zn1   Zn    Zn3+2 0.543850 0.957090 0.414170 0.958189
Zn2   Zn    Zn3+2 0.542910 0.129670 0.585830 0.961130
Zn3   Zn    Zn3+2 0.542910 0.956180 0.585840 0.955206
Zn4   Zn    Zn3+2 0.370330 0.957070 0.414150 0.891460
Zn5   Zn    Zn3+2 0.956190 0.542870 0.585830 0.969700
Zn6   Zn    Zn3+2 0.957140 0.543780 0.414160 0.942084
Zn7   Zn    Zn3+2 0.957140 0.370280 0.414170 0.974432
Zn8   Zn    Zn3+2 0.129710 0.542890 0.585850 0.921882

loop_
_geom_bond_atom_site_label_1
_geom_bond_atom_site_label_2
_ccdc_geom_bond_type
O23   Zn4   S    
O2    Zn7   S    
C55   H9    S    
C69   H58   S    
C22   C29   A    
H77   N2    S    
C27   C29   A    
O12   Zn1   S    
C19   C20   S    
C20   O28   S    
C47   O3    A    
H81   N3    S    
C30   O31   S    
C41   O40   S    
H82   N4    S    
C7    C8    A    
C39   C41   S    
O8    Zn5   S    
C49   O19   A    
H83   N4    S    
C72   O39   S    
C62   H33   S    
C26   C27   A    
C29   C30   S    
C64   H43   S    
C57   H13   S    
O17   Zn4   S    
C73   H71   S    
C24   C40   S    
C53   O20   S    
C36   C37   A    
C61   H27   S    
C8    C42   S    
C60   H22   S    
C40   O18   A    
C30   C31   S    
C60   O27   S    
H23   N7    S    
H31   N12   S    
H79   N2    S    
C10   N8    S    
C71   O38   S    
H29   N11   S    
C64   H42   S    
C66   H51   S    
O43   Zn8   S    
C15   C17   A    
C18   C19   A    
C65   H48   S    
O1    Zn4   S    
H87   N6    S    
C35   O33   S    
C11   O22   S    
C16   O14   A    
C36   O36   S    
C63   H38   S    
C59   O26   S    
C48   C51   S    
C62   H35   S    
C35   C36   A    
C45   C56   A    
C8    C9    A    
C4    O42   A    
C68   H57   S    
C74   O41   S    
C50   C52   S    
H84   N5    S    
C44   O46   A    
C59   H18   S    
C32   C38   A    
C46   O9    A    
C58   H15   S    
C12   O41   S    
C2    N7    S    
C71   H65   S    
C66   H53   S    
H85   N5    S    
H34   N7    S    
C23   C34   A    
C10   N9    S    
O14   Zn2   S    
O18   Zn3   S    
O44   Zn8   S    
C70   H63   S    
O13   Zn1   S    
C13   C14   A    
C1    O34   A    
C7    O21   S    
C4    O13   A    
C74   H76   S    
H25   N10   S    
C59   H19   S    
C20   O27   S    
H47   N14   S    
O10   Zn6   S    
C18   C46   S    
C45   N2    S    
C12   C52   D    
H41   N13   S    
C12   C49   S    
C38   C39   S    
C4    C34   S    
C22   C31   S    
C13   C19   A    
C73   H72   S    
C46   O2    A    
C61   H28   S    
C24   C25   A    
O15   Zn3   S    
C60   H21   S    
C6    O20   S    
C40   O16   A    
C31   N14   S    
H80   N3    S    
C21   N11   S    
C25   C26   A    
C25   O29   S    
C54   O21   S    
C57   H11   S    
O42   Zn3   S    
C53   H67   S    
C11   O24   S    
H5    N9    S    
H3    N8    S    
O1    Zn1   S    
C51   N10   S    
C43   O45   A    
C75   C76   S    
C37   C38   A    
C3    C9    A    
O46   Zn6   S    
C16   C33   S    
C48   O5    A    
C5    C28   S    
C41   O39   S    
C55   O22   S    
H86   N6    S    
H6    N9    S    
O3    Zn6   S    
C32   C41   S    
C21   N12   S    
O43   Zn7   S    
C50   N1    S    
C28   O15   A    
C13   C21   S    
C50   C51   D    
C53   H56   S    
C72   H68   S    
C68   H54   S    
C68   O35   S    
C58   H14   S    
C65   O32   S    
C71   H64   S    
C34   C45   A    
C57   O24   S    
C2    N6    S    
C71   H66   S    
C70   O37   S    
O9    Zn8   S    
C39   O38   S    
C27   C47   S    
C58   O25   S    
C70   H62   S    
C69   H60   S    
C63   O30   S    
C44   O8    A    
H24   N10   S    
C22   C24   A    
C37   C43   S    
C67   C75   A    
C28   O23   A    
C55   H7    S    
C60   H20   S    
C62   O29   S    
O43   Zn6   S    
C2    C76   S    
C9    C10   S    
C42   O10   A    
H46   N14   S    
C16   O12   A    
O11   Zn7   S    
O7    Zn5   S    
C26   O30   S    
C69   O36   S    
O6    Zn7   S    
C23   C75   A    
C47   O6    A    
C3    C5    A    
C54   H78   S    
H30   N11   S    
C15   O25   S    
C1    O4    A    
C6    C7    A    
C68   H55   S    
C56   C67   A    
C49   O17   A    
C61   O28   S    
C64   H44   S    
C17   C18   A    
C39   O37   S    
C64   O31   S    
C65   H50   S    
O16   Zn2   S    
O1    Zn2   S    
C61   H26   S    
C55   H8    S    
O34   Zn2   S    
C48   O7    A    
C53   H45   S    
C32   C33   A    
C57   H10   S    
O4    Zn4   S    
C5    C6    A    
C31   O32   S    
C58   H16   S    
C63   H39   S    
C72   H70   S    
H32   N12   S    
C56   N3    S    
C52   O35   S    
C33   C35   A    
C30   N13   S    
C66   H52   S    
C73   O40   S    
C76   N4    S    
O1    Zn3   S    
C76   N5    S    
C74   H75   S    
C3    C11   S    
C10   C11   S    
C63   H37   S    
O45   Zn5   S    
C62   H36   S    
C20   C21   S    
C43   O11   A    
C70   H61   S    
C69   H59   S    
H12   N1    S    
C73   H73   S    
O43   Zn5   S    
C2    C23   S    
H4    N8    S    
C14   C15   A    
C74   H74   S    
C44   C67   S    
C1    C14   S    
C59   H17   S    
C42   O44   A    
C54   H88   S    
C66   O33   S    
H40   N13   S    
H1    N1    S    
O5    Zn8   S    
C72   H69   S    
C17   O26   S    
C65   H49   S    
C54   H2    S    
O19   Zn1   S    
