data_mof_unit_53466.cif
_audit_creation_date              2012-12-10T17:22:10-0500
_audit_creation_method            fapswitch 2.2
_symmetry_space_group_name_H-M    P1
_symmetry_Int_Tables_number       1
_space_group_crystal_system       triclinic
_cell_length_a                    15.906344
_cell_length_b                    10.88679
_cell_length_c                    9.647979
_cell_angle_alpha                 91.824623
_cell_angle_beta                  90.110637
_cell_angle_gamma                 94.926971
_cell_volume                      1663.69550144

loop_
_atom_site_label
_atom_site_type_symbol
_atom_type_description
_atom_site_fract_x
_atom_site_fract_y
_atom_site_fract_z
_atom_type_partial_charge
C1    C     C_R   0.503153 0.263136 0.497876 0.810555
C2    C     C_3   0.946589 0.415210 0.623936 0.205855
C3    C     C_3   0.916881 0.499393 0.504345 -0.026511
C4    C     C_3   0.957786 0.637302 0.521092 0.649907
C5    C     C_3   0.058177 0.639648 0.515238 0.446326
C6    C     C_1   0.824263 0.499250 0.502180 0.082733
C7    C     C_1   0.175839 0.499419 0.499733 -0.027745
C8    C     C_1   0.251164 0.498793 0.499761 -0.181126
C9    C     C_R   0.597076 0.140414 0.704810 -0.285519
C10   C     C_R   0.615461 0.091254 0.832196 0.193520
C11   C     C_R   0.579725 0.974276 0.864370 0.460129
C12   C     C_R   0.340538 0.498915 0.499910 0.812113
C13   C     C_R   0.532440 0.903148 0.762380 -0.277261
C14   C     C_R   0.521918 0.946845 0.626981 0.005218
C15   C     C_R   0.543018 0.073005 0.607529 0.020434
C16   C     C_R   0.507402 0.129391 0.494139 -0.104884
C17   C     C_R   0.464853 0.056888 0.387927 0.117927
C18   C     C_R   0.458752 0.928124 0.394036 0.108295
C19   C     C_R   0.489936 0.871905 0.511074 -0.132139
C20   C     C_R   0.639181 0.625049 0.144928 0.463810
C21   C     C_R   0.717192 0.635133 0.076712 -0.091924
C22   C     C_R   0.717066 0.635820 0.931960 0.228824
C23   C     C_R   0.496181 0.737429 0.503203 0.883308
C24   C     C_R   0.638674 0.625338 0.863905 0.421583
C25   C     C_R   0.567151 0.562220 0.927859 -0.066767
C26   C     C_R   0.567296 0.562001 0.076676 -0.014772
C27   C     C_R   0.437945 0.436399 0.071654 0.213683
C28   C     C_R   0.438377 0.435614 0.922806 0.208991
C29   C     C_R   0.659457 0.499905 0.500102 0.838093
C30   C     C_3   0.046620 0.424551 0.624422 -0.084092
C31   C     C_3   0.044671 0.439507 0.358961 0.404428
C32   C     C_3   0.946484 0.447804 0.360280 0.196190
C33   C     C_1   0.748875 0.499518 0.500755 -0.145861
C34   C     C_3   0.083402 0.501470 0.499621 -0.031676
Cu1   Cu    Cu3+1 0.499990 0.499990 0.640660 0.995676
Cu2   Cu    Cu3+1 0.500010 0.500010 0.359340 1.034127
H1    H     H_    0.625095 0.231972 0.683475 0.159394
H2    H     H_    0.500799 0.817607 0.794599 0.191279
H3    H     H_    0.067090 0.330042 0.608522 0.158394
H4    H     H_    0.930590 0.513865 0.280400 0.172035
N1    N     N_R   0.500800 0.501210 0.147910 -0.161266
N2    N     N_R   0.500820 0.501290 0.852040 -0.163035
O1    O     O_R   0.499990 0.319640 0.618810 -0.580630
O2    O     O_R   0.500000 0.319660 0.381240 -0.532709
O3    O     O_R   0.379430 0.499990 0.618840 -0.550173
O4    O     O_R   0.379440 0.500020 0.381260 -0.554578
O5    O     O_R   0.500000 0.680340 0.618760 -0.555696
O6    O     O_R   0.500010 0.680360 0.381190 -0.486586
O7    O     O_R   0.620560 0.499980 0.618740 -0.550189
O8    O     O_R   0.620570 0.500010 0.381160 -0.543426
N3    N     N_3   0.915112 0.285438 0.594578 -0.535289
H5    H     H_    0.936037 0.230111 0.672091 0.209548
H6    H     H_    0.849163 0.276052 0.598218 0.241339
N4    N     N_3   0.085873 0.468570 0.757508 -0.541507
H7    H     H_    0.056959 0.542617 0.801616 0.289230
H8    H     H_    0.079343 0.397301 0.827940 0.218918
N5    N     N_3   0.913051 0.453331 0.759809 -0.614609
H9    H     H_    0.930505 0.393601 0.835508 0.215762
H10   H     H_    0.847115 0.443562 0.757937 0.245956
O9    O     O_3   0.930150 0.705308 0.409608 -0.730078
H11   H     H_    0.871637 0.726244 0.428614 0.360102
N6    N     N_3   0.426694 0.114530 0.274819 -0.568019
H12   H     H_    0.361894 0.088582 0.273481 0.203187
H13   H     H_    0.453206 0.085311 0.181696 0.234959
N7    N     N_3   0.667184 0.162643 0.932111 -0.519396
H14   H     H_    0.725770 0.185954 0.886614 0.207068
H15   H     H_    0.639200 0.244555 0.953923 0.208541
O10   O     O_3   0.592310 0.931350 0.995316 -0.706273
H16   H     H_    0.563377 0.847372 0.001556 0.308884
N8    N     N_3   0.416494 0.853696 0.284826 -0.568779
H17   H     H_    0.447341 0.871713 0.191183 0.241982
H18   H     H_    0.354114 0.876079 0.277171 0.202904
N9    N     N_3   0.371702 0.367613 0.143071 -0.519282
H19   H     H_    0.314528 0.402735 0.118846 0.192906
H20   H     H_    0.368881 0.275737 0.107781 0.198087
O11   O     O_3   0.630211 0.696173 0.263231 -0.670247
H21   H     H_    0.682665 0.748895 0.285761 0.340543
N10   N     N_3   0.793279 0.661612 0.156132 -0.589121
H22   H     H_    0.821831 0.747568 0.129027 0.260681
H23   H     H_    0.833873 0.593578 0.132201 0.230745
O12   O     O_3   0.789183 0.663282 0.855106 -0.705808
H24   H     H_    0.839961 0.660227 0.913560 0.348459
O13   O     O_3   0.629560 0.692757 0.747924 -0.685177
H25   H     H_    0.682153 0.744457 0.727417 0.360124
N11   N     N_3   0.374407 0.362602 0.845187 -0.521767
H26   H     H_    0.315369 0.390020 0.874009 0.203773
H27   H     H_    0.377258 0.269994 0.868611 0.191757
O14   O     O_3   0.076714 0.504915 0.243786 -0.713838
H28   H     H_    0.137038 0.490006 0.232398 0.335814
N12   N     N_3   0.064426 0.309758 0.338362 -0.556299
H29   H     H_    0.031744 0.250927 0.406811 0.258659
H30   H     H_    0.128916 0.301736 0.351595 0.197991
O15   O     O_3   0.901549 0.334061 0.323985 -0.699052
H31   H     H_    0.909043 0.319919 0.222710 0.344231
O16   O     O_3   0.093714 0.697949 0.637405 -0.744376
H32   H     H_    0.155850 0.710287 0.626577 0.332664
N13   N     N_3   0.090015 0.712206 0.396392 -0.496767
H33   H     H_    0.155463 0.710828 0.388277 0.196072
H34   H     H_    0.079272 0.804739 0.415392 0.263937
O17   O     O_3   0.929960 0.695055 0.644333 -0.663178
H35   H     H_    0.958531 0.664849 0.725716 0.369776

loop_
_geom_bond_atom_site_label_1
_geom_bond_atom_site_label_2
_ccdc_geom_bond_type
C18   N8    S    
O15   H31   S    
O16   H32   S    
N9    H19   S    
Cu1   Cu2   S    
C3    C6    S    
Cu1   O5    S    
N13   H33   S    
N5    H9    S    
C2    N5    S    
C7    C8    T    
C29   O7    A    
N11   H26   S    
C30   N4    S    
C24   O13   S    
N10   H23   S    
N5    H10   S    
C15   C16   A    
C29   C33   S    
C20   O11   S    
C18   C19   A    
Cu1   N2    S    
N6    H13   S    
C5    O16   S    
C1    O1    A    
C31   C32   S    
O10   H16   S    
N7    H15   S    
C21   N10   S    
Cu1   O7    S    
Cu2   O4    S    
N8    H17   S    
C23   O6    A    
C13   C14   A    
Cu1   O1    S    
C9    C10   A    
C32   O15   S    
C21   C22   A    
N9    H20   S    
Cu2   N1    S    
N13   H34   S    
O12   H24   S    
C29   O8    A    
N11   H27   S    
N4    H8    S    
C23   O5    A    
C30   C34   S    
N3    H5    S    
C22   O12   S    
O11   H21   S    
C12   O4    A    
C10   C11   A    
N10   H22   S    
C16   C17   A    
C25   C26   A    
O9    H11   S    
N3    H6    S    
C19   C23   S    
N6    H12   S    
C17   N6    S    
C27   N1    A    
C1    O2    A    
N12   H30   S    
O13   H25   S    
C8    C12   S    
C31   N12   S    
C5    C34   S    
C4    O9    S    
C9    H1    S    
C17   C18   A    
C31   C34   S    
C1    C16   S    
C24   C25   A    
C13   H2    S    
C5    N13   S    
C4    O17   S    
C7    C34   S    
C22   C24   A    
Cu2   O2    S    
C3    C4    S    
Cu1   O3    S    
C28   N11   S    
Cu2   O8    S    
C11   O10   S    
C10   N7    S    
N4    H7    S    
C31   O14   S    
C20   C21   A    
C14   C19   A    
C12   O3    A    
C25   N2    A    
C6    C33   T    
C2    C30   S    
C2    C3    S    
C9    C15   A    
C11   C13   A    
N12   H29   S    
C20   C26   A    
C28   N2    A    
O17   H35   S    
C30   H3    S    
Cu2   O6    S    
C32   H4    S    
C3    C32   S    
C2    N3    S    
C4    C5    S    
O14   H28   S    
N7    H14   S    
C27   C28   A    
C14   C15   A    
N8    H18   S    
C27   N9    S    
C26   N1    A    
