data_mof_unit_27167.cif
_audit_creation_date              2012-12-10T18:05:12-0500
_audit_creation_method            fapswitch 2.2
_symmetry_space_group_name_H-M    P1
_symmetry_Int_Tables_number       1
_space_group_crystal_system       triclinic
_cell_length_a                    9.500255
_cell_length_b                    10.809381
_cell_length_c                    17.044842
_cell_angle_alpha                 88.918438
_cell_angle_beta                  93.36163
_cell_angle_gamma                 89.036411
_cell_volume                      1746.76194466

loop_
_atom_site_label
_atom_site_type_symbol
_atom_type_description
_atom_site_fract_x
_atom_site_fract_y
_atom_site_fract_z
_atom_type_partial_charge
C1    C     C_R   0.501562 0.262270 0.501413 0.968880
C2    C     C_R   0.498381 0.737714 0.499155 0.913121
C3    C     C_R   0.419710 0.933924 0.554245 0.132302
C4    C     C_R   0.579657 0.065874 0.446671 0.147102
C5    C     C_R   0.493548 0.871916 0.496801 -0.109139
C6    C     C_R   0.505864 0.128058 0.504072 -0.099743
C7    C     C_R   0.081222 0.424228 0.550489 -0.008983
C8    C     C_R   0.918781 0.575631 0.449400 -0.016191
C9    C     C_R   0.932288 0.424161 0.550387 -0.043513
C10   C     C_R   0.067756 0.575591 0.449425 -0.023928
C11   C     C_R   0.516783 0.498879 0.650997 0.928683
C12   C     C_R   0.483420 0.496796 0.348951 0.925252
C13   C     C_R   0.522974 0.509158 0.736817 -0.113990
C14   C     C_R   0.478968 0.488501 0.262640 -0.130601
C15   C     C_R   0.422872 0.587770 0.768234 -0.244786
C16   C     C_R   0.593131 0.537585 0.224671 -0.185224
C17   C     C_R   0.422512 0.607163 0.848827 -0.050949
C18   C     C_R   0.603617 0.528195 0.143806 -0.054949
C19   C     C_R   0.522381 0.543930 0.899413 0.252264
C20   C     C_R   0.491930 0.474131 0.098738 0.259200
C21   C     C_R   0.626088 0.465563 0.868939 0.187461
C22   C     C_R   0.376033 0.424476 0.135583 0.172720
C23   C     C_R   0.627192 0.447947 0.786941 -0.066353
C24   C     C_R   0.370280 0.428381 0.218241 -0.102492
C25   C     C_R   0.429173 0.062924 0.559762 -0.087804
C26   C     C_R   0.568945 0.937126 0.440760 -0.088217
Cu1   Cu    Cu3+1 0.640660 0.500020 0.500000 0.992421
Cu2   Cu    Cu3+1 0.359340 0.499980 0.500000 1.006184
H1    H     H_    0.677643 0.580861 0.259072 0.222937
H2    H     H_    0.345590 0.636249 0.729048 0.206974
H3    H     H_    0.142844 0.363462 0.590843 0.141779
H4    H     H_    0.857126 0.636254 0.408957 0.138438
H5    H     H_    0.881505 0.363098 0.590479 0.159249
H6    H     H_    0.118678 0.636250 0.409056 0.127645
N1    N     N_2   0.517669 0.560091 0.981303 -0.279819
N2    N     N_2   0.496780 0.460812 0.016575 -0.198206
N3    N     N_R   0.852070 0.500030 0.499980 -0.165940
N4    N     N_R   0.147930 0.499970 0.500020 -0.160523
O1    O     O_R   0.618740 0.319660 0.500000 -0.568315
O2    O     O_R   0.381260 0.680340 0.500000 -0.581732
O3    O     O_R   0.381170 0.319630 0.500010 -0.565001
O4    O     O_R   0.618830 0.680370 0.499990 -0.590627
O5    O     O_R   0.631780 0.498870 0.613920 -0.577698
O6    O     O_R   0.368220 0.501130 0.386080 -0.560084
O7    O     O_R   0.394210 0.498840 0.613930 -0.580320
O8    O     O_R   0.605790 0.501160 0.386070 -0.587004
C27   C     C_2   0.735314 0.568780 0.108573 0.376939
H7    H     H_    0.758142 0.543560 0.049497 0.129295
O9    O     O_2   0.821894 0.630063 0.145858 -0.562078
C28   C     C_2   0.315874 0.692249 0.880198 0.376390
H8    H     H_    0.315291 0.708657 0.942771 0.095414
O10   O     O_2   0.227113 0.745541 0.836478 -0.553241
N5    N     N_2   0.729862 0.407366 0.921792 -0.448318
H9    H     H_    0.832313 0.426228 0.909408 0.232269
C29   C     C_3   0.708105 0.277641 0.939170 -0.625110
H10   H     H_    0.731789 0.220156 0.888170 0.224822
H11   H     H_    0.597761 0.261574 0.954396 0.259527
H12   H     H_    0.779631 0.247683 0.990076 0.220436
N6    N     N_2   0.269067 0.365281 0.088330 -0.420567
H13   H     H_    0.229203 0.286322 0.112860 0.248575
C30   C     C_3   0.160599 0.448269 0.053682 -0.641366
H14   H     H_    0.100737 0.491784 0.100324 0.229013
H15   H     H_    0.086319 0.395623 0.014831 0.222860
H16   H     H_    0.207877 0.521592 0.017653 0.244047
C31   C     C_2   0.733971 0.362664 0.755770 0.375974
H17   H     H_    0.840551 0.358115 0.782253 0.056419
O11   O     O_2   0.702557 0.292567 0.702491 -0.520013
C32   C     C_2   0.253606 0.365351 0.256253 0.368629
H18   H     H_    0.146582 0.373986 0.230592 0.078826
O12   O     O_2   0.276986 0.298008 0.314028 -0.538567
C33   C     C_2   0.363330 0.127008 0.625695 0.356209
H19   H     H_    0.271861 0.089405 0.651915 0.081791
O13   O     O_2   0.413970 0.220316 0.653940 -0.525535
C34   C     C_2   0.630868 0.873102 0.373703 0.344580
H20   H     H_    0.724087 0.908000 0.347842 0.086511
O14   O     O_2   0.574470 0.783212 0.344153 -0.569626
N7    N     N_2   0.344473 0.863884 0.609504 -0.442051
H21   H     H_    0.365687 0.886325 0.667480 0.258405
C35   C     C_3   0.195247 0.850949 0.589005 -0.612058
H22   H     H_    0.177219 0.819823 0.527603 0.238719
H23   H     H_    0.151036 0.781119 0.628872 0.239226
H24   H     H_    0.137751 0.940127 0.594862 0.196423
N8    N     N_2   0.656014 0.135527 0.391760 -0.428928
H25   H     H_    0.634672 0.113667 0.333701 0.254051
C36   C     C_3   0.805424 0.146104 0.412533 -0.624672
H26   H     H_    0.823582 0.177796 0.473815 0.246178
H27   H     H_    0.860900 0.055799 0.407201 0.194397
H28   H     H_    0.851538 0.214610 0.372502 0.235728

loop_
_geom_bond_atom_site_label_1
_geom_bond_atom_site_label_2
_ccdc_geom_bond_type
C29   H10   S    
N5    C29   S    
N1    N2    D    
C18   C27   S    
C27   O9    D    
N7    H21   S    
C34   O14   D    
C19   C21   A    
Cu1   N3    S    
C6    C25   A    
Cu2   O2    S    
Cu2   O3    S    
C13   C23   A    
C7    C9    A    
C14   C24   A    
C30   H15   S    
C26   C34   S    
N8    H25   S    
Cu1   O1    S    
C32   H18   S    
C31   O11   D    
C28   O10   D    
C11   O5    A    
C25   C33   S    
C18   C20   A    
N7    C35   S    
N6    H13   S    
C9    H5    S    
C36   H27   S    
C21   C23   A    
Cu2   O7    S    
N6    C30   S    
C7    H3    S    
C34   H20   S    
C1    C6    S    
C8    H4    S    
C3    C25   A    
C12   O8    A    
C22   N6    S    
C35   H23   S    
C1    O1    A    
C16   H1    S    
C36   H26   S    
Cu2   O6    S    
C5    C26   A    
C20   N2    S    
C30   H16   S    
Cu1   O5    S    
C27   H7    S    
Cu2   N4    S    
C9    N3    A    
C28   H8    S    
C10   H6    S    
C16   C18   A    
Cu1   O8    S    
C1    O3    A    
N8    C36   S    
C12   C14   S    
C13   C15   A    
C14   C16   A    
C11   O7    A    
C4    C6    A    
C8    N3    A    
C3    N7    S    
C15   H2    S    
C33   O13   D    
C36   H28   S    
C15   C17   A    
C20   C22   A    
C3    C5    A    
C17   C28   S    
C35   H24   S    
C4    C26   A    
N5    H9    S    
C10   N4    A    
C23   C31   S    
C29   H11   S    
C33   H19   S    
C12   O6    A    
C19   N1    S    
C21   N5    S    
C11   C13   S    
Cu1   O4    S    
C4    N8    S    
C2    O4    A    
C17   C19   A    
C7    N4    A    
C22   C24   A    
C30   H14   S    
C24   C32   S    
C35   H22   S    
C2    C5    S    
C2    O2    A    
C8    C10   A    
C31   H17   S    
C29   H12   S    
Cu1   Cu2   S    
C32   O12   D    
