data_mof_unit_14802.cif
_audit_creation_date              2012-10-26T20:50:28-0400
_audit_creation_method            fapswitch 2.2
_symmetry_space_group_name_H-M    P1
_symmetry_Int_Tables_number       1
_space_group_crystal_system       triclinic
_cell_length_a                    19.35882
_cell_length_b                    18.110687
_cell_length_c                    10.845299
_cell_angle_alpha                 90.145475
_cell_angle_beta                  90.152695
_cell_angle_gamma                 90.412596
_cell_volume                      3802.25388542

loop_
_atom_site_label
_atom_site_type_symbol
_atom_type_description
_atom_site_fract_x
_atom_site_fract_y
_atom_site_fract_z
_atom_type_partial_charge
C1    C     C_R   0.367595 0.499763 0.499267 0.573817
C2    C     C_R   0.036490 0.557045 0.438839 -0.189741
C3    C     C_R   0.072265 0.491268 0.458523 0.001586
C4    C     C_R   0.927318 0.492057 0.455566 -0.009772
C5    C     C_R   0.035747 0.423877 0.471172 0.300787
C6    C     C_R   0.962700 0.423912 0.464822 0.277689
C7    C     C_R   0.451934 0.721085 0.433430 0.032566
C8    C     C_R   0.550169 0.721001 0.563192 0.043663
C9    C     C_R   0.452160 0.798803 0.429961 0.181976
C10   C     C_R   0.553930 0.798968 0.560729 0.214008
C11   C     C_R   0.502649 0.838903 0.497291 0.025469
C12   C     C_R   0.632310 0.500309 0.498989 0.577931
C13   C     C_R   0.558736 0.962819 0.455694 -0.115923
C14   C     C_R   0.444605 0.960151 0.544911 -0.090706
C15   C     C_R   0.498860 0.499786 0.262504 0.557441
C16   C     C_R   0.499804 0.499966 0.737592 0.553285
C17   C     C_R   0.557774 0.040826 0.454170 0.249682
C18   C     C_R   0.444117 0.038167 0.549009 0.247732
C19   C     C_R   0.500594 0.078871 0.502339 0.122290
C20   C     C_R   0.502202 0.921786 0.500144 -0.004806
C21   C     C_R   0.463092 0.200127 0.411013 0.220802
C22   C     C_R   0.536341 0.201810 0.593132 0.221386
C23   C     C_R   0.812588 0.540136 0.388739 -0.129279
C24   C     C_R   0.462600 0.278235 0.414079 0.021196
C25   C     C_R   0.537161 0.279887 0.587218 0.023073
C26   C     C_R   0.499729 0.161577 0.502559 0.114659
C27   C     C_R   0.486743 0.562538 0.062736 -0.052130
C28   C     C_R   0.490103 0.563092 0.938348 -0.043832
C29   C     C_R   0.496126 0.498510 0.130178 -0.007566
C30   C     C_R   0.498264 0.498955 0.870076 -0.006103
C31   C     C_R   0.503558 0.431713 0.064404 -0.158678
C32   C     C_R   0.504234 0.431888 0.935198 -0.160157
C33   C     C_3   0.484297 0.645790 0.930886 0.183436
C34   C     C_R   0.180005 0.545757 0.548121 -0.106144
C35   C     C_3   0.480694 0.645241 0.073275 0.160118
C36   C     C_R   0.746100 0.457802 0.571859 -0.198268
C37   C     C_R   0.260330 0.447707 0.411442 -0.193787
C38   C     C_R   0.817778 0.456814 0.563170 -0.103774
C39   C     C_R   0.188895 0.446745 0.398407 -0.108497
C40   C     C_R   0.851515 0.496452 0.469585 -0.007974
C41   C     C_R   0.148136 0.494355 0.468788 0.024938
C42   C     C_3   0.428360 0.854923 0.247898 -0.002476
C43   C     C_3   0.371047 0.887781 0.169715 -0.358461
C44   C     C_3   0.669529 0.823251 0.578215 -0.028469
C45   C     C_R   0.740700 0.544285 0.400932 0.253658
C46   C     C_3   0.721530 0.876004 0.636892 -0.363076
C47   C     C_3   0.622992 0.068174 0.284397 -0.019759
C48   C     C_3   0.668169 0.129294 0.231355 -0.370654
C49   C     C_3   0.382272 0.065361 0.721657 -0.018413
C50   C     C_3   0.332790 0.122023 0.774387 -0.367646
C51   C     C_3   0.444955 0.179870 0.204003 -0.019304
C52   C     C_3   0.422060 0.119091 0.115481 -0.375474
C53   C     C_3   0.557445 0.187643 0.800967 -0.020983
C54   C     C_3   0.580316 0.129592 0.893317 -0.370715
C55   C     C_3   0.606506 0.650888 0.897424 0.007730
C56   C     C_R   0.252211 0.549617 0.557189 0.250312
C57   C     C_3   0.664125 0.708512 0.888038 -0.264896
C58   C     C_3   0.735251 0.672855 0.892036 -0.500154
C59   C     C_3   0.362355 0.625853 0.128657 0.007163
C60   C     C_3   0.297555 0.668512 0.164320 -0.261717
C61   C     C_3   0.236196 0.616762 0.185056 -0.490711
C62   C     C_3   0.712405 0.660184 0.337918 -0.001266
C63   C     C_3   0.657180 0.703040 0.269234 -0.369596
C64   C     C_3   0.278859 0.670300 0.595347 -0.000637
C65   C     C_3   0.324571 0.720560 0.673791 -0.353234
C66   C     C_3   0.067803 0.304726 0.421193 -0.000831
C67   C     C_R   0.707444 0.501054 0.490783 0.025124
C68   C     C_3   0.129944 0.254494 0.436563 -0.372464
C69   C     C_3   0.897148 0.336379 0.366571 -0.028139
C70   C     C_3   0.858841 0.263524 0.383701 -0.367393
C71   C     C_R   0.292296 0.498762 0.490750 0.022434
C72   C     C_R   0.964910 0.557617 0.439012 -0.180054
Cu1   Cu    Cu3+1 0.500000 0.573360 0.500000 0.949867
Cu2   Cu    Cu3+1 0.500000 0.426640 0.500000 0.929503
H1    H     H_    0.509895 0.379682 0.112028 0.124990
H2    H     H_    0.526380 0.670817 0.118918 0.137333
H3    H     H_    0.720752 0.425432 0.642659 0.116018
H4    H     H_    0.290878 0.409841 0.356993 0.118767
H5    H     H_    0.846793 0.424535 0.629012 0.170265
H6    H     H_    0.165520 0.409309 0.332414 0.122704
H7    H     H_    0.837737 0.569639 0.314404 0.106774
H8    H     H_    0.148821 0.582105 0.604208 0.112752
H9    H     H_    0.938838 0.610104 0.430769 0.117228
H10   H     H_    0.064238 0.608741 0.427346 0.115231
H11   H     H_    0.449546 0.806322 0.198076 0.179273
H12   H     H_    0.510519 0.379876 0.887101 0.121196
H13   H     H_    0.469884 0.897300 0.258054 0.119760
H14   H     H_    0.349922 0.937539 0.215877 0.166493
H15   H     H_    0.391757 0.903908 0.078180 0.092550
H16   H     H_    0.328933 0.846551 0.156322 0.158463
H17   H     H_    0.670215 0.832439 0.476735 0.110075
H18   H     H_    0.686381 0.765905 0.597297 0.100949
H19   H     H_    0.723267 0.867290 0.738195 0.152664
H20   H     H_    0.773684 0.866002 0.598165 0.088179
H21   H     H_    0.706640 0.933996 0.617796 0.179539
H22   H     H_    0.572902 0.068191 0.233222 0.118371
H23   H     H_    0.413133 0.690582 0.382295 0.162586
H24   H     H_    0.649311 0.014563 0.269176 0.121276
H25   H     H_    0.718829 0.130919 0.279657 0.163208
H26   H     H_    0.677030 0.119082 0.131683 0.087728
H27   H     H_    0.642339 0.183457 0.242703 0.151131
H28   H     H_    0.361782 0.009261 0.742654 0.125357
H29   H     H_    0.433213 0.073161 0.768435 0.126915
H30   H     H_    0.281231 0.116032 0.730174 0.168326
H31   H     H_    0.327246 0.113629 0.875252 0.086168
H32   H     H_    0.353030 0.178651 0.757542 0.156282
H33   H     H_    0.502112 0.186437 0.195564 0.112756
H34   H     H_    0.587468 0.690146 0.616062 0.144212
H35   H     H_    0.419463 0.232008 0.175816 0.121207
H36   H     H_    0.365179 0.111301 0.120463 0.163261
H37   H     H_    0.436239 0.134286 0.019676 0.083002
H38   H     H_    0.447667 0.066374 0.139773 0.142829
H39   H     H_    0.500722 0.195778 0.812392 0.111243
H40   H     H_    0.585242 0.239959 0.823069 0.120396
H41   H     H_    0.636791 0.120401 0.885382 0.166802
H42   H     H_    0.568656 0.148490 0.988429 0.079529
H43   H     H_    0.552578 0.076712 0.875650 0.150950
H44   H     H_    0.612478 0.609755 0.821987 0.150335
H45   H     H_    0.603246 0.934274 0.419961 0.112261
H46   H     H_    0.612104 0.622653 0.987795 0.125772
H47   H     H_    0.658534 0.739237 0.800612 0.200225
H48   H     H_    0.659652 0.748659 0.965204 0.163364
H49   H     H_    0.742417 0.642746 0.980226 0.162374
H50   H     H_    0.775799 0.716297 0.884934 0.143557
H51   H     H_    0.741205 0.633789 0.813677 0.146326
H52   H     H_    0.373453 0.584873 0.202176 0.149115
H53   H     H_    0.352417 0.597140 0.039379 0.138414
H54   H     H_    0.307525 0.700411 0.250314 0.176018
H55   H     H_    0.284619 0.708126 0.089759 0.166003
H56   H     H_    0.400133 0.929424 0.577687 0.140438
H57   H     H_    0.224750 0.584564 0.100031 0.158175
H58   H     H_    0.189947 0.649491 0.209753 0.143930
H59   H     H_    0.247478 0.578269 0.261732 0.150843
H60   H     H_    0.763877 0.677738 0.302744 0.115875
H61   H     H_    0.708421 0.674469 0.437709 0.112123
H62   H     H_    0.605288 0.688386 0.305406 0.175955
H63   H     H_    0.665930 0.763256 0.281197 0.067316
H64   H     H_    0.659183 0.689531 0.169604 0.146721
H65   H     H_    0.224791 0.690410 0.601284 0.116199
H66   H     H_    0.296869 0.674168 0.497932 0.130879
H67   H     H_    0.432213 0.308605 0.347867 0.124528
H68   H     H_    0.378821 0.701108 0.671220 0.182492
H69   H     H_    0.322741 0.777864 0.637758 0.108215
H70   H     H_    0.306393 0.720373 0.770847 0.144357
H71   H     H_    0.067554 0.325947 0.324700 0.089782
H72   H     H_    0.021083 0.270296 0.436851 0.182378
H73   H     H_    0.130342 0.230479 0.530698 0.168644
H74   H     H_    0.127196 0.208891 0.368045 0.096468
H75   H     H_    0.178666 0.285929 0.422284 0.162259
H76   H     H_    0.937716 0.328551 0.295237 0.102628
H77   H     H_    0.859405 0.377403 0.331908 0.147720
H78   H     H_    0.567653 0.311684 0.652199 0.126235
H79   H     H_    0.817054 0.270250 0.452743 0.174089
H80   H     H_    0.835561 0.245580 0.294746 0.094282
H81   H     H_    0.895073 0.220371 0.415963 0.147811
H82   H     H_    0.435333 0.662802 0.885721 0.152505
N1    N     N_R   0.500000 0.683620 0.500000 -0.295766
N2    N     N_R   0.500000 0.316380 0.500000 -0.278632
O1    O     O_R   0.400190 0.561980 0.499980 -0.488247
O2    O     O_3   0.603545 0.836591 0.628795 -0.552235
O3    O     O_3   0.614016 0.080985 0.411890 -0.540359
O4    O     O_3   0.387091 0.075487 0.592857 -0.539158
O5    O     O_3   0.424836 0.160404 0.324893 -0.546699
O6    O     O_3   0.574321 0.163610 0.680669 -0.545076
O7    O     O_3   0.541960 0.686596 0.884509 -0.570800
O8    O     O_3   0.418039 0.676327 0.118123 -0.605645
O9    O     O_3   0.701857 0.583935 0.317080 -0.551447
O10   O     O_3   0.283533 0.597398 0.640318 -0.552252
O11   O     O_3   0.071450 0.361821 0.510163 -0.533946
O12   O     O_R   0.599810 0.561980 0.500020 -0.492757
O13   O     O_3   0.926629 0.358325 0.480621 -0.564179
O14   O     O_R   0.400190 0.438070 0.500040 -0.503057
O15   O     O_R   0.599810 0.438070 0.499960 -0.501191
O16   O     O_R   0.500000 0.561960 0.319660 -0.496825
O17   O     O_R   0.500000 0.561960 0.680340 -0.486983
O18   O     O_R   0.500000 0.438060 0.319720 -0.516203
O19   O     O_R   0.500000 0.438060 0.680280 -0.516739
O20   O     O_3   0.401307 0.834588 0.363902 -0.574816

loop_
_geom_bond_atom_site_label_1
_geom_bond_atom_site_label_2
_ccdc_geom_bond_type
C66   C68   S    
C21   C26   A    
C34   C56   A    
C23   C45   A    
C27   C29   A    
C70   H79   S    
Cu1   Cu2   S    
C14   C18   A    
C66   O11   S    
C2    H10   S    
C36   C67   A    
C61   H59   S    
C39   C41   A    
C53   C54   S    
C16   O19   A    
C59   H52   S    
C50   H30   S    
Cu2   O19   S    
C58   H49   S    
C43   H15   S    
C47   H24   S    
C15   O18   A    
C25   H78   S    
C21   O5    S    
C69   H76   S    
C38   C40   A    
C36   H3    S    
C14   H56   S    
C5    C6    A    
C65   H69   S    
C24   N2    A    
C38   H5    S    
C52   H38   S    
C59   H53   S    
C23   C40   A    
Cu1   N1    S    
C35   O8    S    
C18   C19   A    
C69   O13   S    
Cu1   O16   S    
C19   C26   S    
C66   H71   S    
C68   H75   S    
C61   H58   S    
C17   C19   A    
C57   H48   S    
C46   H21   S    
C4    C40   S    
C44   C46   S    
C22   C25   A    
C54   H42   S    
C45   C67   A    
C50   H31   S    
C47   H22   S    
C51   O5    S    
C52   H36   S    
C7    H23   S    
Cu2   O14   S    
C44   H18   S    
C55   H46   S    
C62   O9    S    
C59   C60   S    
C51   H35   S    
C63   H63   S    
C34   C41   A    
C2    C72   A    
C8    N1    A    
C8    H34   S    
C13   H45   S    
C53   H39   S    
C15   C29   S    
C6    O13   S    
C48   H26   S    
C12   C67   S    
C35   H2    S    
C33   H82   S    
C43   H16   S    
Cu2   N2    S    
C51   C52   S    
C69   H77   S    
C14   C20   A    
C60   H54   S    
Cu2   O15   S    
C4    C6    A    
C49   H28   S    
C65   H70   S    
C12   O12   A    
C52   H37   S    
C27   C35   S    
C11   C20   S    
C70   H81   S    
C60   C61   S    
C62   H61   S    
Cu1   O17   S    
Cu2   O18   S    
C62   C63   S    
C22   O6    S    
C31   H1    S    
C47   C48   S    
C46   H20   S    
C1    O1    A    
C24   H67   S    
C56   C71   A    
C32   H12   S    
C54   H41   S    
C56   O10   S    
C42   H11   S    
C1    C71   S    
C45   O9    S    
C49   O4    S    
C68   H73   S    
C17   O3    S    
C16   O17   A    
C8    C10   A    
C28   C33   S    
C9    C11   A    
C44   O2    S    
C63   H64   S    
C21   C24   A    
C42   C43   S    
C43   H14   S    
C36   C38   A    
C10   O2    S    
C4    C72   A    
C59   O8    S    
C53   H40   S    
C64   H66   S    
C7    C9    A    
C48   H25   S    
C3    C41   S    
C5    O11   S    
C23   H7    S    
C15   O16   A    
C70   H80   S    
C13   C20   A    
C31   C32   A    
C33   O7    S    
C3    C5    A    
C68   H74   S    
C60   H55   S    
C49   H29   S    
C53   O6    S    
C7    N1    A    
C55   C57   S    
C37   H4    S    
Cu1   O1    S    
C1    O14   A    
C58   H50   S    
C13   C17   A    
C39   H6    S    
C62   H60   S    
C64   O10   S    
C37   C71   A    
C2    C3    A    
C29   C31   A    
C64   C65   S    
C30   C32   A    
C65   H68   S    
C18   O4    S    
C57   C58   S    
C46   H19   S    
C42   O20   S    
C48   H27   S    
C28   C30   A    
C33   C35   S    
C69   C70   S    
C44   H17   S    
C66   H72   S    
C72   H9    S    
C10   C11   A    
C61   H57   S    
C57   H47   S    
C47   O3    S    
C37   C39   A    
C58   H51   S    
C51   H33   S    
C49   C50   S    
C22   C26   A    
C54   H43   S    
C25   N2    A    
C50   H32   S    
C55   O7    S    
C63   H62   S    
C42   H13   S    
C34   H8    S    
Cu1   O12   S    
C16   C30   S    
C64   H65   S    
C9    O20   S    
C12   O15   A    
C27   C28   A    
C55   H44   S    
