data_mof_unit_17607.cif
_audit_creation_date              2012-12-11T14:51:52-0500
_audit_creation_method            fapswitch 2.2
_symmetry_space_group_name_H-M    P1
_symmetry_Int_Tables_number       1
_space_group_crystal_system       triclinic
_cell_length_a                    6.943335
_cell_length_b                    16.698969
_cell_length_c                    16.952514
_cell_angle_alpha                 101.227486
_cell_angle_beta                  91.715822
_cell_angle_gamma                 89.677051
_cell_volume                      1927.10315471

loop_
_atom_site_label
_atom_site_type_symbol
_atom_type_description
_atom_site_fract_x
_atom_site_fract_y
_atom_site_fract_z
_atom_type_partial_charge
O1    O     O_R   0.506340 0.439070 0.579550 -0.539350
O2    O     O_R   0.170010 0.404890 0.412100 -0.522268
O3    O     O_R   0.005010 0.560930 0.420450 -0.514982
C1    C     C_R   0.339066 0.381513 0.383561 0.900104
O4    O     O_R   0.176280 0.429360 0.578400 -0.523656
O5    O     O_R   0.011320 0.585570 0.587940 -0.550760
C2    C     C_R   0.347986 0.415391 0.606367 0.864144
O6    O     O_R   0.500030 0.414430 0.412060 -0.555816
O7    O     O_3   0.340950 0.551220 0.502940 -0.373787
V1    V     V_3+5 0.064020 0.490500 0.499460 1.632898
O8    O     O_R   0.681910 0.595110 0.587900 -0.535664
C3    C     C_R   0.852911 0.618101 0.616604 0.735406
O9    O     O_R   0.675640 0.570640 0.421600 -0.547682
C4    C     C_R   0.840649 0.584672 0.393171 0.811252
V2    V     V_3+5 0.564670 0.509500 0.500540 1.574456
O10   O     O_3   0.837610 0.448780 0.497060 -0.372339
C5    C     C_R   0.928803 0.862116 0.168180 -0.298754
C6    C     C_R   0.835677 0.636018 0.329720 -0.244542
C7    C     C_R   0.657915 0.690066 0.224618 0.630279
C8    C     C_R   0.676231 0.632370 0.274513 -0.247006
C9    C     C_R   0.980663 0.694652 0.329119 0.616345
C10   C     C_R   0.962600 0.753740 0.278885 -0.204574
C11   C     C_R   0.799466 0.750243 0.225397 -0.186626
C12   C     C_R   0.782834 0.805226 0.171440 0.641660
C13   C     C_R   0.087422 0.866944 0.222492 0.533413
C14   C     C_R   0.103363 0.815550 0.278912 -0.091510
C15   C     C_3   0.780716 0.811501 0.734505 0.669106
C16   C     C_3   0.950759 0.773214 0.683770 -0.252175
H1    H     H_    0.004947 0.792909 0.629604 0.173927
C17   C     C_3   0.870628 0.687755 0.687167 -0.130497
C18   C     C_3   0.698493 0.725917 0.736326 -0.219813
C19   C     C_3   0.819616 0.725398 0.814406 -0.093661
C20   C     C_3   0.990916 0.685417 0.765102 -0.118975
C21   C     C_3   0.066894 0.771882 0.762758 -0.049606
C22   C     C_3   0.898078 0.811196 0.812861 -0.138748
H2    H     H_    0.550021 0.702564 0.722321 0.164347
H3    H     H_    0.078718 0.633218 0.777482 0.160158
C23   C     C_3   0.555566 0.280490 0.277511 -0.348609
C24   C     C_3   0.491763 0.191221 0.273019 0.576260
C25   C     C_3   0.410216 0.188182 0.186894 -0.515140
C26   C     C_3   0.472338 0.277496 0.191514 0.540474
C27   C     C_3   0.276469 0.308116 0.226826 0.512453
C28   C     C_3   0.213465 0.218916 0.222456 0.437263
C29   C     C_3   0.296223 0.221865 0.308407 0.563821
C30   C     C_3   0.357983 0.311384 0.313097 -0.522823
C31   C     C_R   0.393771 0.135928 0.831002 -0.286555
C32   C     C_R   0.369490 0.367249 0.671611 -0.272919
C33   C     C_R   0.547556 0.337517 0.789109 0.688674
C34   C     C_R   0.502753 0.391342 0.736923 -0.213790
C35   C     C_R   0.271589 0.292504 0.664274 0.654552
C36   C     C_R   0.303464 0.241116 0.721281 -0.201248
C37   C     C_R   0.450990 0.262267 0.781799 -0.172494
C38   C     C_R   0.496217 0.208939 0.835501 0.634920
C39   C     C_R   0.247159 0.115543 0.771567 0.478069
C40   C     C_R   0.197152 0.167895 0.718571 -0.103513
O11   O     O_R   0.266070 0.085680 0.087850 -0.525604
O12   O     O_R   0.590090 0.070660 0.921580 -0.525342
O13   O     O_R   0.754780 0.914400 0.912080 -0.541514
C41   C     C_R   0.418141 0.085559 0.894208 0.824206
O14   O     O_R   0.596110 0.095130 0.087880 -0.515856
O15   O     O_R   0.760850 0.939050 0.079570 -0.523321
C42   C     C_R   0.427347 0.118328 0.116451 0.894429
O16   O     O_R   0.260010 0.061030 0.920360 -0.531856
O17   O     O_3   0.425070 0.948840 0.997010 -0.367995
V3    V     V_3+5 0.702100 0.009490 0.000550 1.777411
O18   O     O_R   0.090200 0.929250 0.078500 -0.516024
C43   C     C_R   0.924731 0.913879 0.105602 0.854043
O19   O     O_R   0.084180 0.904770 0.912200 -0.530949
C44   C     C_R   0.913541 0.881664 0.883370 0.767560
V4    V     V_3+5 0.201420 0.990350 0.999580 1.764113
O20   O     O_3   0.928580 0.051150 0.002990 -0.365576
F1    F     F_    0.629762 0.800890 0.118868 -0.583938
C45   C     C_2   0.746670 0.698074 0.886955 0.518115
H4    H     H_    0.604345 0.671241 0.885126 0.115909
O21   O     O_2   0.848032 0.704709 0.947920 -0.493194
C46   C     C_2   0.269674 0.800354 0.777846 0.396060
H5    H     H_    0.337698 0.830687 0.735075 0.128712
O22   O     O_2   0.356465 0.792089 0.839397 -0.525778
F2    F     F_    0.603024 0.131013 0.297394 -0.542375
C47   C     C_2   0.751102 0.313132 0.306084 0.746914
H6    H     H_    0.801212 0.369519 0.291060 0.074677
O23   O     O_2   0.853218 0.277266 0.347596 -0.445928
F3    F     F_    0.563938 0.307032 0.131730 -0.542971
F4    F     F_    0.163662 0.367572 0.201981 -0.588294
F5    F     F_    0.034210 0.187997 0.194813 -0.578508
F6    F     F_    0.205706 0.191645 0.368005 -0.522990
F7    F     F_    0.633924 0.229255 0.894617 -0.569268
F8    F     F_    0.224969 0.924812 0.222953 -0.636751
F9    F     F_    0.145630 0.045258 0.767373 -0.682334
F10   F     F_    0.682127 0.360487 0.849110 -0.589210
C48   C     C_2   0.022374 0.145973 0.666602 0.694781
H7    H     H_    0.998754 0.083080 0.636541 0.088619
O24   O     O_2   0.896885 0.196459 0.661719 -0.489259
C49   C     C_2   0.596114 0.473127 0.753923 0.425407
H8    H     H_    0.732871 0.482010 0.787160 0.113549
O25   O     O_2   0.517746 0.532258 0.734432 -0.566231
F11   F     F_    0.158808 0.267552 0.597223 -0.615443
F12   F     F_    0.502489 0.685314 0.173084 -0.615831
C50   C     C_2   0.267518 0.831428 0.337672 0.688145
H9    H     H_    0.411192 0.839544 0.316902 0.056569
O26   O     O_2   0.241590 0.841652 0.409857 -0.477382
C51   C     C_2   0.528897 0.566640 0.263602 0.590359
H10   H     H_    0.381713 0.579014 0.246074 0.121061
O27   O     O_2   0.572163 0.497147 0.269750 -0.529988
F13   F     F_    0.139709 0.692332 0.377117 -0.676323
F14   F     F_    0.675312 0.877352 0.718741 -0.668707

loop_
_geom_bond_atom_site_label_1
_geom_bond_atom_site_label_2
_ccdc_geom_bond_type
C31   C41   S    
C6    C9    A    
C45   H4    S    
C4    C6    S    
O2    C1    A    
C7    C8    A    
C1    O6    A    
C32   C34   A    
C37   C38   A    
C16   H1    S    
C46   O22   D    
C18   H2    S    
O5    C3    A    
C17   C18   S    
C51   O27   D    
O12   C41   A    
C8    C51   S    
V2    O10   S    
C26   F3    S    
C25   C42   S    
O14   C42   A    
C21   C22   S    
C26   C27   S    
C23   C30   S    
C40   C48   S    
O8    V2    S    
C25   C28   S    
C18   C19   S    
O19   C44   A    
C11   C12   A    
V4    O20   S    
O1    V2    S    
O17   V4    S    
C34   C49   S    
O7    V1    S    
C36   C40   A    
C14   C50   S    
O18   C43   A    
C16   C21   S    
C33   F10   S    
O9    C4    A    
C45   O21   D    
C51   H10   S    
C29   F6    S    
C7    F12   S    
C35   C36   A    
C32   C35   A    
C1    C30   S    
C23   C24   S    
C5    C43   S    
C5    C12   A    
C15   C18   S    
C36   C37   A    
C28   F5    S    
C19   C22   S    
C27   F4    S    
C46   H5    S    
C23   C26   S    
C47   O23   D    
C19   C45   S    
O4    C2    A    
C15   F14   S    
C15   C22   S    
C13   C14   A    
V3    O20   S    
C13   F8    S    
C20   H3    S    
C27   C30   S    
C2    C32   S    
C7    C11   A    
C28   C29   S    
C48   O24   D    
O15   C43   A    
O13   V3    S    
C50   H9    S    
O16   V4    S    
C31   C39   A    
C20   C21   S    
C38   F7    S    
C49   O25   D    
O3    C4    A    
C39   F9    S    
C25   C26   S    
C50   O26   D    
O14   V3    S    
O6    V2    S    
O11   V4    S    
O9    V2    S    
O11   C42   A    
C27   C28   S    
O2    V1    S    
C48   H7    S    
C29   C30   S    
C12   F1    S    
C39   C40   A    
C33   C34   A    
C35   F11   S    
C17   C20   S    
C3    C17   S    
O1    C2    A    
O12   V3    S    
C47   H6    S    
O5    V1    S    
O8    C3    A    
O13   C44   A    
C24   C29   S    
C41   O16   A    
C5    C13   A    
O17   V3    S    
C16   C17   S    
O7    V2    S    
O4    V1    S    
O3    V1    S    
V1    O10   S    
C19   C20   S    
O18   V4    S    
C23   C47   S    
C31   C38   A    
C6    C8    A    
C49   H8    S    
C24   C25   S    
O15   V3    S    
C33   C37   A    
C22   C44   S    
O19   V4    S    
C10   C14   A    
C21   C46   S    
C15   C16   S    
C10   C11   A    
C9    C10   A    
C9    F13   S    
C24   F2    S    
