data_mof_unit_64917.cif
_audit_creation_date              2012-12-10T17:57:07-0500
_audit_creation_method            fapswitch 2.2
_symmetry_space_group_name_H-M    P1
_symmetry_Int_Tables_number       1
_space_group_crystal_system       triclinic
_cell_length_a                    18.668809
_cell_length_b                    18.606515
_cell_length_c                    18.750634
_cell_angle_alpha                 109.329539
_cell_angle_beta                  109.65946
_cell_angle_gamma                 109.153223
_cell_volume                      5030.55065278

loop_
_atom_site_label
_atom_site_type_symbol
_atom_type_description
_atom_site_fract_x
_atom_site_fract_y
_atom_site_fract_z
_atom_type_partial_charge
C1    C     C_R   0.379476 0.379876 0.499456 0.902608
C2    C     C_3   0.809337 0.502383 0.810697 -0.088651
C3    C     C_3   0.848953 0.583845 0.800452 0.437075
C4    C     C_3   0.737214 0.503440 0.833787 -0.369326
C5    C     C_R   0.230768 0.308906 0.474861 0.379533
C6    C     C_R   0.167327 0.244459 0.474947 -0.205045
C7    C     C_R   0.186296 0.186727 0.499482 -0.089200
C8    C     C_R   0.268209 0.192332 0.523009 -0.160745
C9    C     C_R   0.331235 0.255611 0.521561 -0.246137
C10   C     C_R   0.312598 0.313897 0.498319 -0.090125
C11   C     C_R   0.320440 0.579765 0.319972 -0.170405
C12   C     C_R   0.618998 0.498081 0.620588 0.932063
C13   C     C_R   0.256977 0.579692 0.254997 -0.162004
C14   C     C_R   0.184477 0.499928 0.185015 -0.018742
C15   C     C_R   0.175513 0.420214 0.178980 -0.165389
C16   C     C_R   0.240354 0.420228 0.242543 -0.125609
C17   C     C_R   0.312276 0.500016 0.313025 -0.004358
C18   C     C_R   0.758936 0.761563 0.582045 0.432981
C19   C     C_R   0.822460 0.824157 0.580317 -0.184591
C20   C     C_R   0.814289 0.814037 0.500444 -0.067778
C21   C     C_R   0.743805 0.741391 0.421664 -0.138758
C22   C     C_R   0.681416 0.677199 0.422836 -0.226365
C23   C     C_R   0.621491 0.620475 0.501391 0.942343
C24   C     C_R   0.688538 0.687336 0.502661 -0.117926
C25   C     C_R   0.996181 0.379566 0.876100 0.929202
C26   C     C_R   0.876774 0.501947 0.878341 0.924186
C27   C     C_R   0.996958 0.620318 0.117127 0.900969
C28   C     C_R   0.118161 0.499895 0.118249 0.847431
C29   C     C_R   0.000836 0.879814 0.380519 0.917674
C30   C     C_R   0.120259 0.120273 0.499837 0.866484
C31   C     C_R   0.997716 0.118620 0.619174 0.931749
C32   C     C_R   0.879962 0.879563 0.499719 0.917316
C33   C     C_R   0.073554 0.320870 0.815959 -0.222972
C34   C     C_R   0.379003 0.500027 0.379231 0.872378
C35   C     C_R   0.074006 0.255819 0.754064 -0.222144
C36   C     C_R   0.994841 0.182994 0.684192 -0.173936
C37   C     C_R   0.914095 0.173640 0.675790 0.344239
C38   C     C_R   0.913586 0.239537 0.738098 0.341789
C39   C     C_R   0.993950 0.312606 0.808410 -0.175761
C40   C     C_R   0.006022 0.762678 0.181700 -0.144996
C41   C     C_R   0.006312 0.826137 0.246358 -0.255490
C42   C     C_R   0.001537 0.814155 0.314686 -0.160578
C43   C     C_R   0.995520 0.738754 0.318554 0.642930
C44   C     C_R   0.992792 0.674211 0.252526 -0.255156
C45   C     C_3   0.697538 0.416973 0.650640 -0.470943
C46   C     C_R   0.998437 0.686630 0.184629 -0.123067
C47   C     C_3   0.768195 0.418239 0.723400 -0.481841
C48   C     C_3   0.776343 0.584212 0.730294 0.815211
C49   C     C_3   0.663889 0.498488 0.760045 -0.421928
C50   C     C_3   0.687986 0.499348 0.688510 -0.095520
H1    H     H_    0.715273 0.414488 0.599205 0.242722
H2    H     H_    0.765537 0.564217 0.896027 0.217785
H3    H     H_    0.103791 0.240000 0.456767 0.191865
H4    H     H_    0.282925 0.147304 0.541357 0.169242
H5    H     H_    0.394766 0.260032 0.539604 0.152459
H6    H     H_    0.376439 0.641525 0.374585 0.153287
H7    H     H_    0.263587 0.641445 0.259814 0.154543
H8    H     H_    0.119397 0.358428 0.124545 0.156642
H9    H     H_    0.634141 0.356301 0.619781 0.215909
H10   H     H_    0.233994 0.358500 0.237603 0.160439
H11   H     H_    0.877449 0.881300 0.640992 0.182201
H12   H     H_    0.738071 0.733882 0.359832 0.159388
H13   H     H_    0.626884 0.620445 0.361625 0.167161
H14   H     H_    0.135278 0.377085 0.870441 0.176689
H15   H     H_    0.135999 0.262732 0.759942 0.175372
H16   H     H_    0.010096 0.771998 0.128829 0.194103
H17   H     H_    0.738369 0.359140 0.728806 0.263020
H18   H     H_    0.011081 0.884758 0.243730 0.181857
H19   H     H_    0.987410 0.615297 0.254775 0.184979
H20   H     H_    0.819359 0.415265 0.706595 0.203537
H21   H     H_    0.898824 0.581446 0.781304 0.105088
H22   H     H_    0.653825 0.554771 0.787970 0.241434
H23   H     H_    0.601439 0.437543 0.731257 0.171684
H24   H     H_    0.708782 0.446798 0.843062 0.201480
O1    O     O_R   0.408680 0.356690 0.448540 -0.628231
O2    O     O_R   0.049540 0.460010 0.906120 -0.629944
O3    O     O_R   0.853500 0.448290 0.905220 -0.617272
O4    O     O_R   0.956960 0.551660 0.905160 -0.598010
O5    O     O_R   0.945110 0.539900 0.088450 -0.624268
O6    O     O_R   0.048570 0.643270 0.088390 -0.610246
O7    O     O_R   0.037700 0.448250 0.089410 -0.615436
O8    O     O_R   0.141150 0.551620 0.089350 -0.626881
O9    O     O_R   0.948590 0.908340 0.356800 -0.631839
O10   O     O_R   0.052580 0.908350 0.460820 -0.575642
O11   O     O_R   0.039640 0.091520 0.447910 -0.624544
O12   O     O_R   0.408060 0.460070 0.551440 -0.594277
O13   O     O_R   0.143620 0.091540 0.551930 -0.631883
O14   O     O_R   0.947420 0.091470 0.539000 -0.575859
O15   O     O_R   0.051410 0.091490 0.643030 -0.630576
O16   O     O_R   0.856380 0.908290 0.447890 -0.605214
O17   O     O_R   0.960370 0.908300 0.551910 -0.602595
O18   O     O_R   0.592410 0.448290 0.540650 -0.622734
O19   O     O_R   0.591790 0.551670 0.643550 -0.574642
O20   O     O_R   0.591940 0.539930 0.448560 -0.614088
O21   O     O_R   0.591320 0.643310 0.551460 -0.578021
O22   O     O_R   0.408210 0.448330 0.356450 -0.634631
O23   O     O_R   0.407590 0.551710 0.459350 -0.598283
O24   O     O_R   0.946090 0.356640 0.906180 -0.572950
Zn1   Zn    Zn3+2 0.500420 0.430970 0.431290 1.006512
Zn2   Zn    Zn3+2 0.499580 0.569030 0.568710 1.091329
Zn3   Zn    Zn3+2 0.928250 0.430930 0.997320 1.032755
Zn4   Zn    Zn3+2 0.066410 0.568980 0.997240 1.019644
Zn5   Zn    Zn3+2 0.930570 0.999900 0.430450 1.037689
Zn6   Zn    Zn3+2 0.069430 0.999920 0.569370 1.032553
F1    F     F_    0.768932 0.657203 0.768831 -0.546242
F2    F     F_    0.891455 0.660513 0.879561 -0.599263
Cl1   Cl    Cl    0.205008 0.380091 0.442437 -0.594916
Cl2   Cl    Cl    0.771711 0.778028 0.684655 -0.435846
Cl3   Cl    Cl    0.813957 0.078291 0.590178 -0.513505
Cl4   Cl    Cl    0.812386 0.231596 0.725267 -0.550052
F3    F     F_    0.989680 0.726748 0.384425 -0.644327
Cl5   Cl    Cl    0.805580 0.593202 0.650201 -0.583819

loop_
_geom_bond_atom_site_label_1
_geom_bond_atom_site_label_2
_ccdc_geom_bond_type
C29   C42   S    
O4    Zn4   S    
C41   C42   A    
O3    Zn3   S    
C35   C36   A    
O17   Zn6   S    
O23   Zn2   S    
C7    C8    A    
O7    Zn3   S    
C40   C46   A    
C33   C39   A    
O9    Zn5   S    
C4    H2    S    
C18   C24   A    
O20   Zn1   S    
C36   C37   A    
C34   O22   A    
C29   O9    A    
C27   O5    A    
C20   C32   S    
C5    C6    A    
C32   O17   A    
C13   H7    S    
C45   H1    S    
C15   C16   A    
O22   Zn1   S    
C3    C48   S    
C34   O23   A    
C18   C19   A    
C16   H10   S    
C22   H13   S    
C32   O16   A    
C19   C20   A    
C8    C9    A    
C31   O15   A    
C49   H22   S    
C23   C24   S    
C9    H5    S    
C38   Cl4   S    
O12   Zn2   S    
C9    C10   A    
C4    H24   S    
O11   Zn5   S    
C48   C50   S    
C7    C30   S    
C40   H16   S    
C21   C22   A    
C43   F3    S    
C47   H17   S    
C44   C46   A    
C41   H18   S    
C45   C47   S    
C3    F2    S    
O2    Zn4   S    
C26   O3    A    
C28   O8    A    
C1    O1    A    
C29   O10   A    
C27   O6    A    
C8    H4    S    
O21   Zn2   S    
C16   C17   A    
O6    Zn4   S    
C3    H21   S    
C43   C44   A    
C47   H20   S    
C37   C38   A    
C48   F1    S    
O1    Zn1   S    
O8    Zn4   S    
C44   H19   S    
C2    C26   S    
C26   O4    A    
C30   O11   A    
O19   Zn2   S    
C21   H12   S    
C27   C46   S    
C40   C41   A    
C48   Cl5   S    
O15   Zn6   S    
O10   Zn6   S    
C15   H8    S    
C22   C24   A    
C12   O19   A    
C42   C43   A    
C6    H3    S    
O14   Zn5   S    
C5    Cl1   S    
C1    O12   A    
C11   C17   A    
C31   O14   A    
C28   O7    A    
C14   C15   A    
C37   Cl3   S    
C12   O18   A    
C1    C10   S    
C12   C50   S    
C6    C7    A    
C2    C47   S    
O24   Zn3   S    
C23   O20   A    
C4    C49   S    
C25   O2    A    
C2    C3    S    
C5    C10   A    
C25   C39   S    
C11   C13   A    
C38   C39   A    
C45   C50   S    
C19   H11   S    
C33   H14   S    
C2    C4    S    
C33   C35   A    
C23   O21   A    
C49   H23   S    
C18   Cl2   S    
O16   Zn5   S    
O13   Zn6   S    
C25   O24   A    
C20   C21   A    
C45   H9    S    
C49   C50   S    
C17   C34   S    
C35   H15   S    
C31   C36   S    
O5    Zn3   S    
C14   C28   S    
C30   O13   A    
C13   C14   A    
C11   H6    S    
O18   Zn1   S    
