data_mof_unit_37492.cif
_audit_creation_date              2013-03-05T15:50:16-0500
_audit_creation_method            fapswitch 2.2
_symmetry_space_group_name_H-M    P1
_symmetry_Int_Tables_number       1
_space_group_crystal_system       triclinic
_cell_length_a                    8.238108
_cell_length_b                    14.432215
_cell_length_c                    17.508856
_cell_angle_alpha                 93.316944
_cell_angle_beta                  96.537974
_cell_angle_gamma                 91.688245
_cell_volume                      2063.33346284

loop_
_atom_site_label
_atom_site_type_symbol
_atom_site_description
_atom_site_fract_x
_atom_site_fract_y
_atom_site_fract_z
_atom_type_partial_charge
P1    P     P_3+3 0.940740 0.713140 0.550990 0.511989
O1    O     O_2   0.110000 0.727700 0.527600 -0.361366
O2    O     O_3   0.867340 0.611500 0.534090 -0.391564
O3    O     O_3   0.340010 0.670810 0.392610 -0.338118
O4    O     O_2   0.236711 0.833847 0.436082 -0.337360
O5    O     O_3   0.975552 0.737192 0.651093 -0.565946
O6    O     O_3   0.274007 0.812236 0.290488 -0.471688
C1    C     C_3   0.447186 0.880960 0.205375 -0.116304
H1    H     H_    0.527430 0.920857 0.251906 0.063377
P2    P     P_3+3 0.347910 0.426910 0.329700 0.561857
P3    P     P_3+3 0.885090 0.625591 0.256854 0.552358
O7    O     O_2   0.172060 0.454990 0.316770 -0.341276
O8    O     O_3   0.924740 0.623930 0.356360 -0.328826
O9    O     O_2   0.005121 0.557798 0.224170 -0.297857
O10   O     O_3   0.331973 0.305309 0.313674 -0.518475
O11   O     O_3   0.953313 0.734055 0.232378 -0.477243
C2    C     C_3   0.828819 0.796211 0.241171 0.229848
H2    H     H_    0.781188 0.791867 0.297919 0.048879
H3    H     H_    0.729888 0.781083 0.193397 0.042159
C3    C     C_3   0.896454 0.894358 0.236989 -0.617431
H4    H     H_    0.993381 0.910053 0.285970 0.295126
H5    H     H_    0.947401 0.901424 0.181310 0.270986
C4    C     C_3   0.898225 0.296570 0.299920 0.648897
H6    H     H_    0.024942 0.311149 0.324985 0.023641
C5    C     C_3   0.897840 0.230016 0.228011 -0.161456
H7    H     H_    0.774030 0.197146 0.211489 0.150237
H8    H     H_    0.930405 0.268461 0.178422 0.190456
Ba1   Ba    Ba6+2 0.148060 0.545480 0.461240 1.680767
C6    C     C_3   0.993582 0.653787 0.688266 0.442366
H9    H     H_    0.101344 0.616890 0.672069 0.012926
H10   H     H_    0.887512 0.606646 0.672042 0.168993
C7    C     C_3   0.009197 0.674288 0.775075 -0.936031
H11   H     H_    0.122562 0.716463 0.794672 0.229648
H12   H     H_    0.014346 0.608439 0.804765 0.231620
H13   H     H_    0.901675 0.712643 0.791108 0.304168
C8    C     C_3   0.337740 0.260913 0.383410 0.458197
H14   H     H_    0.214544 0.256038 0.401500 -0.004113
H15   H     H_    0.419654 0.296320 0.431078 0.137329
C9    C     C_3   0.397284 0.163104 0.371395 -0.840542
H16   H     H_    0.305972 0.119619 0.333090 0.313789
H17   H     H_    0.417095 0.130699 0.427469 0.198290
H18   H     H_    0.513077 0.165092 0.344743 0.264510
P4    P     P_3+3 0.869550 0.286850 0.448950 0.514114
O12   O     O_2   0.700300 0.272240 0.472380 -0.354987
O13   O     O_3   0.942950 0.388490 0.465850 -0.359345
O14   O     O_3   0.470280 0.329180 0.607330 -0.402587
O15   O     O_3   0.805326 0.255110 0.351289 -0.608511
P5    P     P_3+3 0.916233 0.380130 0.744858 0.453673
O16   O     O_3   0.377250 0.547380 0.588690 -0.347815
O17   O     O_3   0.885550 0.376060 0.643580 -0.363640
O18   O     O_2   0.795886 0.450457 0.773583 -0.382836
O19   O     O_3   0.842693 0.275436 0.776839 -0.488801
Ba2   Ba    Ba6+2 0.662110 0.454510 0.538700 1.646018
P6    P     P_3+3 0.357014 0.790123 0.383950 0.555428
C10   C     C_3   0.385024 0.790769 0.236776 0.558223
H19   H     H_    0.492683 0.753052 0.261458 -0.101453
H20   H     H_    0.519717 0.864876 0.156863 0.093139
O20   O     O_3   0.433040 0.452610 0.411250 -0.400216
C11   C     C_3   0.399266 0.757817 0.672200 0.634071
H21   H     H_    0.276908 0.725308 0.658432 -0.027486
C12   C     C_3   0.381104 0.845390 0.725006 -0.128351
H22   H     H_    0.297033 0.893251 0.693798 0.086617
H23   H     H_    0.324247 0.825892 0.776714 0.090030
P7    P     P_3+3 0.460371 0.579812 0.684951 0.480003
O21   O     O_2   0.638240 0.544950 0.683210 -0.332102
O22   O     O_3   0.507828 0.698270 0.710971 -0.577421
H24   H     H_    0.798855 0.945135 0.241436 0.185028
C13   C     C_3   0.967923 0.211330 0.786474 0.646802
H25   H     H_    0.089619 0.245443 0.804500 0.026686
C14   C     C_3   0.933244 0.149436 0.851047 -0.808791
H26   H     H_    0.814429 0.110453 0.836188 0.284931
H27   H     H_    0.031901 0.099168 0.861147 0.229096
H28   H     H_    0.928207 0.192849 0.905161 0.236899
P8    P     P_3+3 0.458810 0.208899 0.611695 0.492551
C15   C     C_3   0.435709 0.248564 0.754453 0.486082
H29   H     H_    0.305007 0.256619 0.732872 -0.019859
O23   O     O_2   0.597164 0.167674 0.569160 -0.367313
O24   O     O_3   0.508653 0.183260 0.707737 -0.459758
H30   H     H_    0.502322 0.316968 0.756530 0.135368
H31   H     H_    0.386914 0.267140 0.873223 0.219218
C16   C     C_3   0.444746 0.216131 0.835862 -0.896745
H32   H     H_    0.574282 0.209843 0.859922 0.281797
H33   H     H_    0.379337 0.147631 0.835468 0.261416
C17   C     C_R   0.015193 0.939760 0.537227 -0.114577
C18   C     C_R   0.824278 0.803236 0.494635 0.266103
C19   C     C_R   0.681157 0.771660 0.448600 -0.337381
C20   C     C_R   0.568024 0.833620 0.417083 0.228124
C21   C     C_R   0.609017 0.928249 0.420236 -0.294876
C22   C     C_R   0.760139 0.962658 0.458052 0.099940
C23   C     C_R   0.867899 0.901070 0.497743 -0.003186
H34   H     H_    0.650027 0.698077 0.443366 0.165070
C24   C     C_R   0.947982 0.097279 0.497370 0.038400
C25   C     C_R   0.057772 0.035381 0.535373 0.067907
C26   C     C_R   0.991376 0.195097 0.500134 0.227350
C27   C     C_R   0.143471 0.225520 0.538418 -0.523346
C28   C     C_R   0.255466 0.163377 0.569895 0.224543
C29   C     C_R   0.211946 0.069274 0.569961 -0.273123
C30   C     C_R   0.800753 0.058662 0.458307 -0.099544
H35   H     H_    0.521238 0.975049 0.394505 0.152923
H36   H     H_    0.298836 0.022641 0.596715 0.196163
H37   H     H_    0.178433 0.298562 0.540470 0.163152
H38   H     H_    0.099936 0.895816 0.568483 0.158510
H39   H     H_    0.716672 0.102809 0.427429 0.158124
H40   H     H_    0.531149 0.562293 0.854880 0.158986
H41   H     H_    0.695452 0.596264 0.103087 0.154171
C31   C     C_R   0.570995 0.555171 0.277134 -0.347143
C32   C     C_R   0.442042 0.490166 0.254312 0.194738
C33   C     C_R   0.397905 0.467861 0.174381 0.242681
C34   C     C_R   0.481966 0.512681 0.119753 -0.047342
C35   C     C_R   0.621205 0.569445 0.144676 -0.264175
C36   C     C_R   0.671204 0.586380 0.223308 0.231503
C37   C     C_R   0.419983 0.521895 0.834793 -0.233349
C38   C     C_R   0.364215 0.513628 0.755869 0.234532
C39   C     C_R   0.124117 0.424853 0.782282 0.179416
C40   C     C_R   0.178369 0.433584 0.861377 -0.276990
C41   C     C_R   0.328520 0.480330 0.887765 0.073207
C42   C     C_1   0.383846 0.490169 0.969430 0.018533
C43   C     C_1   0.429148 0.499414 0.037800 0.099355
C44   C     C_R   0.220781 0.461622 0.730107 -0.461379
H42   H     H_    0.102849 0.405751 0.902015 0.165119
H43   H     H_    0.607282 0.571129 0.337900 0.166362
H44   H     H_    0.177489 0.455937 0.669236 0.155305
C45   C     C_3   0.297915 0.726831 0.171074 -0.791040
H45   H     H_    0.381087 0.711335 0.126710 0.175867
H46   H     H_    0.260213 0.660384 0.193940 0.248289
H47   H     H_    0.187763 0.759592 0.143334 0.279233
N1    N     N_R   0.015605 0.158491 0.242136 0.251092
O25   O     O_R   0.139665 0.153952 0.202448 -0.264931
O26   O     O_R   0.998130 0.099881 0.294589 -0.427494
N2    N     N_R   0.312493 0.938652 0.178869 0.291856
O27   O     O_R   0.280521 0.953251 0.106046 -0.340606
O28   O     O_R   0.236675 0.984344 0.229204 -0.321949
N3    N     N_R   0.459257 0.780437 0.599984 0.221726
O29   O     O_R   0.489959 0.865665 0.583927 -0.435623
O30   O     O_R   0.470008 0.713615 0.548177 -0.373471
N4    N     N_R   0.539358 0.892877 0.750287 0.293075
O31   O     O_R   0.645621 0.855443 0.799185 -0.349253
O32   O     O_R   0.567099 0.977257 0.731250 -0.339975
C46   C     C_3   0.972288 0.152044 0.711669 -0.817840
H48   H     H_    0.994827 0.197654 0.665161 0.219350
H49   H     H_    0.072124 0.102023 0.718298 0.200707
H50   H     H_    0.853842 0.113311 0.694901 0.300558
N5    N     N_R   0.278928 0.394987 0.148541 0.245945
O33   O     O_R   0.126466 0.404644 0.158510 -0.363957
O34   O     O_R   0.319068 0.324332 0.105985 -0.344322
N6    N     N_R   0.824530 0.382981 0.279767 0.219369
O35   O     O_R   0.754090 0.394005 0.210740 -0.448518
O36   O     O_R   0.813538 0.445943 0.334498 -0.367885

loop_
_geom_bond_atom_site_label_1
_geom_bond_atom_site_label_2
_geom_bond_distance
_ccdc_geom_bond_type
C10   H19   1.112676 S    
Ba2   O20   2.751804 S    
C17   H38   1.080907 S    
C3    H24   1.109925 S    
C27   C28   1.396234 A    
O6    C10   1.412681 S    
H41   C35   1.083637 S    
P4    C26   1.890685 S    
C39   C40   1.403215 A    
C24   C30   1.405929 A    
C45   H45   1.110385 S    
C9    H17   1.109231 S    
C18   C19   1.398901 A    
C33   C34   1.417339 A    
O7    Ba1   2.808893 S    
O2    Ba1   2.922988 S    
P2    O20   1.537373 S    
C6    C7    1.521664 S    
C19   H34   1.081330 S    
C11   O22   1.404914 S    
P6    C20   1.848323 S    
P3    O9    1.543891 D    
C45   H46   1.109766 S    
C37   C41   1.408799 A    
C31   C32   1.403425 A    
N5    O33   1.298022 A    
C2    C3    1.515601 S    
C41   C42   1.447984 S    
O14   Ba2   2.780030 S    
P1    O1    1.509606 D    
Ba1   O16   2.752390 S    
C12   H23   1.111996 S    
C35   C36   1.396727 A    
C16   H33   1.111183 S    
C38   C44   1.396499 A    
O12   Ba2   2.854061 S    
P4    Ba2   3.414658 S    
P5    O18   1.542669 D    
C1    H1    1.110386 S    
P8    O23   1.545862 D    
P1    Ba1   3.414091 S    
C4    H6    1.094835 S    
O8    Ba1   2.762718 S    
C14   H26   1.111265 S    
Ba2   O21   2.809013 S    
C39   C44   1.395396 A    
O19   C13   1.408338 S    
P5    O17   1.759784 S    
O13   Ba2   2.923830 S    
C11   H21   1.094542 S    
O16   P7    1.776403 S    
O2    Ba2   2.797316 S    
P2    C32   1.872938 S    
C12   H22   1.114022 S    
C17   C23   1.409427 A    
C1    C10   1.538334 S    
C37   C38   1.402858 A    
O3    Ba1   2.780622 S    
C34   C43   1.451224 S    
C16   H32   1.110047 S    
C9    H18   1.108982 S    
N6    O36   1.294624 A    
C31   C36   1.406040 A    
P1    C18   1.895055 S    
C4    N6    1.447451 S    
C10   C45   1.529704 S    
Ba1   O13   2.796741 S    
C11   C12   1.543375 S    
O17   Ba2   2.763314 S    
C4    O15   1.394530 S    
P3    C36   1.853922 S    
P1    O5    1.756117 S    
C7    H13   1.112375 S    
P8    C28   1.836785 S    
O4    P6    1.545889 D    
N4    O32   1.301636 A    
C9    H16   1.103683 S    
H40   C37   1.083406 S    
C19   C20   1.400662 A    
C15   C16   1.520338 S    
C45   H47   1.111036 S    
C5    H7    1.112417 S    
C11   N3    1.459504 S    
P1    O2    1.568989 S    
C7    H12   1.108925 S    
N2    O28   1.297707 A    
C15   H29   1.111520 S    
N1    O26   1.300960 A    
C6    H9    1.104448 S    
C1    H20   1.110539 S    
P3    O11   1.740864 S    
Ba1   Ba2   4.552176 S    
C28   C29   1.394496 A    
C3    H4    1.111438 S    
C14   H28   1.110754 S    
C24   C26   1.442762 A    
C2    H2    1.113398 S    
C46   H49   1.110863 S    
P4    O13   1.568988 S    
P2    O7    1.511508 D    
C3    H5    1.113158 S    
P4    O12   1.509889 D    
C1    N2    1.456631 S    
N3    O29   1.301475 A    
C32   C33   1.421099 A    
C2    H3    1.106666 S    
N1    O25   1.300803 A    
C25   C29   1.404682 A    
O10   C8    1.408100 S    
O14   P8    1.742269 S    
C29   H36   1.083176 S    
C46   H48   1.104595 S    
P5    C39   1.846409 S    
N6    O35   1.300275 A    
C44   H44   1.082319 S    
P2    Ba1   3.393621 S    
N5    O34   1.300917 A    
C8    H14   1.098572 S    
P7    C38   1.843455 S    
O3    P6    1.740278 S    
C13   H25   1.108139 S    
C8    C9    1.519033 S    
H31   C16   1.110292 S    
C14   H27   1.111309 S    
C18   C23   1.443078 A    
Ba1   O20   2.931182 S    
C5    H8    1.110714 S    
C22   C30   1.415399 A    
P2    O10   1.759813 S    
C7    H11   1.108955 S    
C8    H15   1.102332 S    
N2    O27   1.302842 A    
C5    N1    1.449772 S    
C6    H10   1.092332 S    
C34   C35   1.402358 A    
P7    O21   1.566211 D    
P3    O8    1.737345 S    
C40   C41   1.408291 A    
O11   C2    1.398004 S    
P4    O15   1.761449 S    
O16   Ba2   2.930343 S    
C31   H43   1.081455 S    
C24   C25   1.427643 A    
C46   H50   1.111061 S    
C17   C25   1.416964 A    
C4    C5    1.538431 S    
C26   C27   1.397966 A    
C15   O24   1.405169 S    
C21   H35   1.082535 S    
C27   H37   1.082067 S    
P5    O19   1.756354 S    
O5    C6    1.404911 S    
C21   C22   1.404545 A    
C20   C21   1.393594 A    
C13   C14   1.527486 S    
C40   H42   1.083446 S    
P8    O24   1.748437 S    
N3    O30   1.297222 A    
N4    O31   1.304577 A    
C13   C46   1.526973 S    
O1    Ba1   2.853470 S    
O6    P6    1.750936 S    
C22   C23   1.427781 A    
C42   C43   1.211177 T    
C15   H30   1.111960 S    
C33   N5    1.433433 S    
C30   H39   1.076376 S    
C12   N4    1.464971 S    
P7    O22   1.764403 S    
