data_mof_unit_41832.cif
_audit_creation_date              2012-10-26T18:30:20-0400
_audit_creation_method            fapswitch 2.2
_symmetry_space_group_name_H-M    P1
_symmetry_Int_Tables_number       1
_space_group_crystal_system       triclinic
_cell_length_a                    10.6296
_cell_length_b                    13.03634
_cell_length_c                    11.678054
_cell_angle_alpha                 99.979563
_cell_angle_beta                  93.91745
_cell_angle_gamma                 90.63792
_cell_volume                      1589.59753157

loop_
_atom_site_label
_atom_site_type_symbol
_atom_type_description
_atom_site_fract_x
_atom_site_fract_y
_atom_site_fract_z
_atom_type_partial_charge
C1    C     C_R   0.492221 0.298687 0.477801 0.539643
C2    C     C_R   0.615248 0.581849 0.855643 0.034348
C3    C     C_R   0.557923 0.536483 0.156598 0.044490
C4    C     C_R   0.442107 0.463620 0.843445 0.043324
C5    C     C_R   0.547280 0.532093 0.033989 0.006152
C6    C     C_R   0.451893 0.469083 0.966150 0.006692
C7    C     C_R   0.259148 0.499917 0.500048 0.547801
C8    C     C_R   0.740878 0.500187 0.499972 0.558976
C9    C     C_3   0.044102 0.418725 0.545934 -0.126668
C10   C     C_3   0.956026 0.581537 0.454159 -0.125675
C11   C     C_3   0.952160 0.410824 0.436072 -0.125171
C12   C     C_R   0.495370 0.701001 0.522202 0.539033
C13   C     C_3   0.047991 0.589437 0.564025 -0.125176
C14   C     C_3   0.877763 0.500235 0.500273 0.045045
C15   C     C_3   0.122338 0.500010 0.499807 0.045532
C16   C     C_3   0.967461 0.508155 0.610295 -0.113129
C17   C     C_3   0.032667 0.492104 0.389799 -0.114017
C18   C     C_R   0.483766 0.814875 0.537374 -0.003760
C19   C     C_R   0.480098 0.184184 0.462621 -0.005084
C20   C     C_R   0.470248 0.010977 0.344436 -0.115200
C21   C     C_R   0.471852 0.987161 0.655454 -0.115363
C22   C     C_R   0.460552 0.119002 0.350730 -0.010528
C23   C     C_R   0.485149 0.139138 0.563512 -0.148471
C24   C     C_R   0.465612 0.878374 0.647451 -0.013315
C25   C     C_3   0.435933 0.829844 0.752826 -0.234125
C26   C     C_3   0.375706 0.900790 0.851817 -0.328681
C27   C     C_3   0.332430 0.837671 0.941476 -0.456736
C28   C     C_3   0.423585 0.163892 0.241110 -0.235803
C29   C     C_3   0.366634 0.086478 0.135749 -0.324650
C30   C     C_3   0.313987 0.143176 0.039522 -0.466599
C31   C     C_R   0.487149 0.860517 0.437682 -0.147827
C32   C     C_R   0.479869 0.031526 0.555418 0.025616
C33   C     C_R   0.480202 0.967627 0.445606 0.025465
C34   C     C_R   0.368720 0.413591 0.022664 -0.183634
C35   C     C_R   0.628954 0.589179 0.977615 -0.183222
C36   C     C_R   0.382399 0.420777 0.144577 0.036726
Cu1   Cu    Cu3+1 0.509400 0.507730 0.615930 0.914679
Cu2   Cu    Cu3+1 0.490600 0.492270 0.384070 0.916878
H1    H     H_    0.909800 0.337858 0.383732 0.109488
H2    H     H_    0.466885 0.038191 0.738495 0.098956
H3    H     H_    0.369714 0.414482 0.790455 0.113279
H4    H     H_    0.630727 0.585161 0.209572 0.114271
H5    H     H_    0.678840 0.626062 0.813262 0.119326
H6    H     H_    0.316524 0.378981 0.187110 0.114349
H7    H     H_    0.293176 0.365441 0.973116 0.081142
H8    H     H_    0.702995 0.638989 0.027286 0.081195
H9    H     H_    0.266058 0.773657 0.899203 0.154297
H10   H     H_    0.414926 0.803998 0.984155 0.154720
H11   H     H_    0.282440 0.888444 0.009031 0.139766
H12   H     H_    0.090517 0.662359 0.616368 0.103324
H13   H     H_    0.445453 0.961245 0.896160 0.156933
H14   H     H_    0.292517 0.938691 0.815633 0.161752
H15   H     H_    0.365828 0.765347 0.721931 0.176129
H16   H     H_    0.523777 0.798080 0.788881 0.161818
H17   H     H_    0.242756 0.200289 0.073057 0.141419
H18   H     H_    0.391453 0.184006 0.005044 0.153603
H19   H     H_    0.266806 0.086545 0.967248 0.141999
H20   H     H_    0.440569 0.033030 0.100196 0.156978
H21   H     H_    0.288553 0.040785 0.163027 0.163685
H22   H     H_    0.348933 0.221346 0.263765 0.162455
H23   H     H_    0.083394 0.352247 0.583488 0.103979
H24   H     H_    0.507166 0.203537 0.214522 0.171321
H25   H     H_    0.916784 0.648018 0.416583 0.104613
H26   H     H_    0.938176 0.514777 0.700695 0.116302
H27   H     H_    0.062000 0.485466 0.299411 0.115589
H28   H     H_    0.493732 0.812474 0.352717 0.121586
H29   H     H_    0.491516 0.187857 0.649075 0.121870
H30   H     H_    0.465683 0.959165 0.261152 0.098138
N1    N     N_R   0.523540 0.519360 0.790140 -0.229337
N2    N     N_R   0.476460 0.480640 0.209860 -0.228669
O1    O     O_R   0.506670 0.354460 0.582000 -0.503951
O2    O     O_R   0.493330 0.645540 0.418000 -0.505693
O3    O     O_R   0.490800 0.341410 0.386200 -0.517732
O4    O     O_R   0.509200 0.658590 0.613800 -0.521165
O5    O     O_R   0.324790 0.506500 0.597880 -0.513070
O6    O     O_R   0.675210 0.493500 0.402120 -0.504712
O7    O     O_R   0.308910 0.493440 0.402080 -0.512344
O8    O     O_R   0.691090 0.506560 0.597920 -0.505174

loop_
_geom_bond_atom_site_label_1
_geom_bond_atom_site_label_2
_ccdc_geom_bond_type
C27   H10   S    
C2    C35   A    
C31   H28   S    
Cu1   O4    S    
Cu2   N2    S    
C3    H4    S    
C12   O4    A    
C10   H25   S    
C13   C16   S    
Cu2   O6    S    
C26   C27   S    
C1    O1    A    
C9    H23   S    
C28   C29   S    
C9    C16   S    
C25   H15   S    
Cu1   N1    S    
C5    C6    A    
C11   C14   S    
C4    H3    S    
C10   C17   S    
C30   H19   S    
C8    O6    A    
C23   H29   S    
C29   H21   S    
C31   C33   A    
C18   C24   A    
C2    N1    A    
C7    O7    A    
C7    C15   S    
C12   O2    A    
C22   C28   S    
C8    O8    A    
C4    N1    A    
C36   N2    A    
C28   H22   S    
C21   C32   A    
Cu2   O2    S    
C1    C19   S    
C3    N2    A    
C24   C25   S    
C4    C6    A    
C10   C14   S    
C7    O5    A    
C25   C26   S    
C30   H18   S    
C6    C34   A    
C19   C23   A    
Cu1   Cu2   S    
C26   H14   S    
C2    H5    S    
C19   C22   A    
C34   H7    S    
C25   H16   S    
C11   H1    S    
C9    C11   S    
C20   C33   A    
C20   C22   A    
C13   C15   S    
C14   C16   S    
C36   H6    S    
C30   H17   S    
C27   H9    S    
C15   C17   S    
C11   C17   S    
C8    C14   S    
C20   H30   S    
C3    C5    A    
C10   C13   S    
Cu2   O7    S    
Cu1   O8    S    
C17   H27   S    
C1    O3    A    
C32   C33   A    
Cu1   O1    S    
C9    C15   S    
C26   H13   S    
C23   C32   A    
C21   H2    S    
C5    C35   A    
C34   C36   A    
Cu1   O5    S    
C29   C30   S    
C13   H12   S    
C29   H20   S    
C21   C24   A    
C12   C18   S    
C18   C31   A    
C16   H26   S    
C35   H8    S    
C27   H11   S    
Cu2   O3    S    
C28   H24   S    
