data_mof_unit_42943.cif
_audit_creation_date              2012-10-26T19:45:58-0400
_audit_creation_method            fapswitch 2.2
_symmetry_space_group_name_H-M    P1
_symmetry_Int_Tables_number       1
_space_group_crystal_system       triclinic
_cell_length_a                    10.774917
_cell_length_b                    9.581968
_cell_length_c                    15.900484
_cell_angle_alpha                 89.895757
_cell_angle_beta                  91.308144
_cell_angle_gamma                 89.800594
_cell_volume                      1641.20328365

loop_
_atom_site_label
_atom_site_type_symbol
_atom_type_description
_atom_site_fract_x
_atom_site_fract_y
_atom_site_fract_z
_atom_type_partial_charge
C1    C     C_R   0.262495 0.500228 0.499942 0.495706
C2    C     C_R   0.931563 0.577665 0.439901 -0.055864
C3    C     C_R   0.870752 0.499878 0.500276 -0.007842
C4    C     C_R   0.128109 0.500750 0.500277 -0.037615
C5    C     C_R   0.429301 0.074586 0.442998 0.026201
C6    C     C_R   0.428177 0.926368 0.443646 0.025656
C7    C     C_R   0.499759 0.500143 0.340411 0.544495
C8    C     C_R   0.572831 0.924663 0.556516 0.147494
C9    C     C_R   0.569822 0.073445 0.558607 0.135477
C10   C     C_R   0.737358 0.499861 0.500298 0.545002
C11   C     C_R   0.500204 0.499883 0.659566 0.540854
C12   C     C_3   0.629057 0.538333 0.949939 -0.243432
C13   C     C_3   0.405145 0.608224 0.049773 -0.301628
C14   C     C_3   0.463993 0.356535 0.050586 -0.222515
C15   C     C_3   0.464135 0.348869 0.951717 -0.023317
C16   C     C_3   0.402240 0.615701 0.950788 -0.001646
C17   C     C_1   0.499101 0.499672 0.748887 0.079064
C18   C     C_3   0.504531 0.502734 0.083174 -0.018431
C19   C     C_3   0.495728 0.500271 0.916874 -0.011629
C20   C     C_2   0.269731 0.593599 0.917621 0.272271
C21   C     C_2   0.337974 0.297714 0.919042 0.238114
C22   C     C_2   0.660595 0.849483 0.613072 0.340351
C23   C     C_3   0.636749 0.544677 0.048952 0.078247
C24   C     C_2   0.640315 0.145721 0.626618 0.298064
C25   C     C_2   0.558854 0.241716 0.920911 0.266043
C26   C     C_2   0.438914 0.762970 0.923464 0.300644
C27   C     C_2   0.672860 0.690876 0.080468 0.571749
C28   C     C_2   0.741986 0.447892 0.079238 0.619850
C29   C     C_2   0.133481 0.353286 0.633856 0.306171
C30   C     C_2   0.122813 0.650094 0.367460 0.243538
C31   C     C_1   0.497544 0.499865 0.824229 0.060233
C32   C     C_1   0.502283 0.501605 0.175616 0.018690
C33   C     C_1   0.500724 0.500659 0.250992 0.039178
C34   C     C_R   0.065832 0.425236 0.563319 -0.006338
C35   C     C_R   0.060732 0.576651 0.437576 0.002629
C36   C     C_R   0.936556 0.423394 0.561024 -0.085992
Cu1   Cu    Cu3+1 0.500020 0.640660 0.500000 1.008356
Cu2   Cu    Cu3+1 0.500020 0.359340 0.500000 0.972891
H1    H     H_    0.313459 0.577028 0.074512 0.111753
H2    H     H_    0.370196 0.871327 0.398354 0.128510
H3    H     H_    0.196190 0.563569 0.959436 0.110511
H4    H     H_    0.259968 0.288004 0.960607 0.117015
H5    H     H_    0.629563 0.806430 0.671999 0.157510
H6    H     H_    0.700505 0.231874 0.613614 0.139532
H7    H     H_    0.568121 0.225524 0.853808 0.193236
H8    H     H_    0.447521 0.847058 0.968815 0.142841
H9    H     H_    0.710714 0.892692 0.054670 0.382958
H10   H     H_    0.924253 0.399883 0.073212 0.350871
H11   H     H_    0.231901 0.369844 0.645043 0.158116
H12   H     H_    0.369989 0.334904 0.075048 0.081518
H13   H     H_    0.220658 0.634311 0.356143 0.112192
H14   H     H_    0.521486 0.273852 0.080946 0.219920
H15   H     H_    0.422385 0.711922 0.079009 0.128721
H16   H     H_    0.659296 0.636660 0.919948 0.201569
H17   H     H_    0.696507 0.461138 0.925357 0.153329
H18   H     H_    0.886511 0.366886 0.608514 0.156476
H19   H     H_    0.877416 0.634987 0.392923 0.190841
H20   H     H_    0.372301 0.130340 0.397147 0.130817
N1    N     N_R   0.500030 0.852070 0.500020 -0.257276
N2    N     N_R   0.500030 0.147930 0.500020 -0.260771
O1    O     O_R   0.319660 0.618740 0.500000 -0.498321
O2    O     O_2   0.320788 0.269386 0.844769 -0.445602
O3    O     O_2   0.770553 0.843792 0.596515 -0.475901
O4    O     O_2   0.631257 0.108237 0.699659 -0.502378
O5    O     O_2   0.625242 0.173340 0.968844 -0.476377
O6    O     O_2   0.454737 0.791175 0.849525 -0.437259
O7    O     O_2   0.690938 0.710201 0.155837 -0.481113
O8    O     O_R   0.687123 0.802805 0.024903 -0.683555
O9    O     O_2   0.724845 0.355659 0.130904 -0.492211
O10   O     O_R   0.861368 0.468589 0.048730 -0.667108
O11   O     O_2   0.079363 0.275282 0.681430 -0.435429
O12   O     O_R   0.319660 0.381260 0.500000 -0.513259
O13   O     O_2   0.064633 0.728612 0.320410 -0.477161
O14   O     O_R   0.500020 0.618840 0.379440 -0.501165
O15   O     O_R   0.500020 0.381160 0.379440 -0.494711
O16   O     O_R   0.680370 0.618830 0.500010 -0.464444
O17   O     O_R   0.680370 0.381170 0.500010 -0.530323
O18   O     O_R   0.500010 0.618730 0.620560 -0.508612
O19   O     O_R   0.500010 0.381270 0.620560 -0.507511
O20   O     O_2   0.243500 0.607004 0.842855 -0.418471

loop_
_geom_bond_atom_site_label_1
_geom_bond_atom_site_label_2
_ccdc_geom_bond_type
C2    C35   A    
Cu1   O14   S    
C14   C18   S    
C28   O9    D    
C30   H13   S    
C19   C31   S    
C20   H3    S    
C2    H19   S    
Cu2   O12   S    
C29   H11   S    
C15   C19   S    
C12   C23   S    
C5    H20   S    
C8    N1    A    
C5    C6    A    
C15   C25   S    
Cu2   O19   S    
C13   C18   S    
C27   O8    S    
C22   O3    D    
C10   O16   A    
C14   H14   S    
C8    C9    A    
C8    C22   S    
C23   C27   S    
C4    C35   A    
C24   O4    D    
C7    C33   S    
C10   O17   A    
C7    O14   A    
C13   H15   S    
Cu2   O15   S    
C16   C26   S    
C4    C34   A    
C1    O12   A    
C20   O20   D    
C18   C23   S    
C26   O6    D    
C25   O5    D    
C30   O13   D    
C7    O15   A    
C29   C34   S    
Cu1   Cu2   S    
C36   H18   S    
C11   O18   A    
C22   H5    S    
C16   C20   S    
C23   C28   S    
C21   O2    D    
Cu1   N1    S    
C11   O19   A    
Cu2   N2    S    
C30   C35   S    
Cu1   O16   S    
C24   H6    S    
C6    H2    S    
C18   C32   S    
C25   H7    S    
H9    O8    S    
C11   C17   S    
C5    N2    A    
C6    N1    A    
C28   O10   S    
H10   O10   S    
C1    O1    A    
Cu1   O1    S    
C9    C24   S    
Cu2   O17   S    
Cu1   O18   S    
C1    C4    S    
C32   C33   T    
C9    N2    A    
C2    C3    A    
C3    C10   S    
C14   H12   S    
C3    C36   A    
C16   C19   S    
C17   C31   T    
C12   C19   S    
C34   C36   A    
C13   H1    S    
C12   H17   S    
C27   O7    D    
C26   H8    S    
C21   H4    S    
C15   C21   S    
C13   C16   S    
C14   C15   S    
C12   H16   S    
C29   O11   D    
