data_mof_unit_48678.cif
_audit_creation_date              2012-10-26T20:21:42-0400
_audit_creation_method            fapswitch 2.2
_symmetry_space_group_name_H-M    P1
_symmetry_Int_Tables_number       1
_space_group_crystal_system       triclinic
_cell_length_a                    15.855773
_cell_length_b                    14.733358
_cell_length_c                    9.661657
_cell_angle_alpha                 89.998612
_cell_angle_beta                  90.001012
_cell_angle_gamma                 89.914488
_cell_volume                      2257.04538956

loop_
_atom_site_label
_atom_site_type_symbol
_atom_type_description
_atom_site_fract_x
_atom_site_fract_y
_atom_site_fract_z
_atom_type_partial_charge
C1    C     C_R   0.118887 0.381418 0.499947 0.515633
C2    C     C_R   0.022141 0.576816 0.926340 0.334734
C3    C     C_R   0.022461 0.576366 0.074357 0.337177
C4    C     C_R   0.977853 0.423193 0.926345 0.334816
C5    C     C_R   0.477517 0.923645 0.074356 0.337208
C6    C     C_R   0.522142 0.076816 0.926340 0.334736
C7    C     C_R   0.522465 0.076365 0.074357 0.337178
C8    C     C_R   0.477851 0.923194 0.926345 0.334824
C9    C     C_R   0.780672 0.283263 0.374755 -0.157012
C10   C     C_R   0.218738 0.717316 0.625859 -0.152490
C11   C     C_R   0.219304 0.716766 0.374751 -0.157045
C12   C     C_R   0.881109 0.618578 0.499944 0.515674
C13   C     C_R   0.781421 0.282495 0.625861 -0.152464
C14   C     C_R   0.218413 0.282349 0.625401 -0.144786
C15   C     C_R   0.781756 0.717793 0.373954 -0.145854
C16   C     C_R   0.781640 0.717705 0.625400 -0.144783
C17   C     C_R   0.218158 0.282118 0.373955 -0.145845
C18   C     C_R   0.280665 0.783272 0.374756 -0.157010
C19   C     C_R   0.718726 0.217332 0.625859 -0.152501
C20   C     C_R   0.719313 0.216756 0.374751 -0.157039
C21   C     C_R   0.281435 0.782478 0.625862 -0.152452
C22   C     C_R   0.718420 0.782358 0.625401 -0.144785
C23   C     C_R   0.880812 0.381737 0.500029 0.534728
C24   C     C_R   0.281768 0.217806 0.373954 -0.145852
C25   C     C_R   0.281632 0.217696 0.625400 -0.144784
C26   C     C_R   0.718145 0.782104 0.373955 -0.145845
C27   C     C_R   0.186821 0.684625 0.500229 0.011963
C28   C     C_R   0.813229 0.315315 0.500233 0.011978
C29   C     C_R   0.813941 0.685464 0.499749 0.017261
C30   C     C_R   0.186047 0.314523 0.499752 0.017254
C31   C     C_R   0.686820 0.184627 0.500229 0.011964
C32   C     C_R   0.313232 0.815312 0.500234 0.011980
C33   C     C_R   0.313943 0.185466 0.499749 0.017261
C34   C     C_R   0.119204 0.618245 0.500028 0.534743
C35   C     C_R   0.686045 0.814521 0.499752 0.017253
C36   C     C_3   0.998790 0.280144 0.163790 0.019218
C37   C     C_3   0.951552 0.191693 0.189069 -0.388350
C38   C     C_3   0.998403 0.712546 0.808353 0.030047
C39   C     C_3   0.027118 0.810585 0.828995 -0.402911
C40   C     C_3   0.001168 0.719870 0.163744 0.019088
C41   C     C_3   0.048397 0.808264 0.189521 -0.388399
C42   C     C_3   0.001665 0.287468 0.808435 0.030060
C43   C     C_3   0.973053 0.189411 0.829362 -0.402998
C44   C     C_3   0.498775 0.780149 0.163801 0.019243
C45   C     C_R   0.618887 0.881417 0.499947 0.515628
C46   C     C_3   0.451533 0.691689 0.188992 -0.388350
C47   C     C_3   0.498396 0.212544 0.808356 0.030040
C48   C     C_3   0.527104 0.310586 0.829002 -0.402921
C49   C     C_3   0.501179 0.219867 0.163751 0.019095
C50   C     C_3   0.548411 0.308262 0.189509 -0.388398
C51   C     C_3   0.501679 0.787472 0.808445 0.030061
C52   C     C_3   0.473086 0.689410 0.829408 -0.403017
C53   C     C_R   0.381109 0.118579 0.499944 0.515674
C54   C     C_R   0.380813 0.881735 0.500029 0.534726
C55   C     C_R   0.619203 0.118245 0.500028 0.534743
C56   C     C_R   0.977523 0.423642 0.074357 0.337203
Cu1   Cu    Cu3+1 1.000000 0.500000 0.640660 0.970616
Cu2   Cu    Cu3+1 1.000000 0.500000 0.359340 0.985932
Cu3   Cu    Cu3+1 0.500000 0.000000 0.640660 0.970616
Cu4   Cu    Cu3+1 0.500000 0.000000 0.359340 0.985918
H1    H     H_    0.803002 0.308604 0.276349 0.186796
H2    H     H_    0.695649 0.192703 0.724211 0.182394
H3    H     H_    0.696924 0.191485 0.276341 0.186834
H4    H     H_    0.304590 0.807008 0.724218 0.182496
H5    H     H_    0.695227 0.807024 0.723769 0.115347
H6    H     H_    0.305458 0.193554 0.275523 0.112766
H7    H     H_    0.304881 0.193087 0.723769 0.115333
H8    H     H_    0.694395 0.806294 0.275525 0.112768
H9    H     H_    0.036020 0.292456 0.257446 0.164650
H10   H     H_    0.043966 0.271212 0.077498 0.091953
H11   H     H_    0.996008 0.133511 0.182936 0.088977
H12   H     H_    0.195669 0.692678 0.724211 0.182385
H13   H     H_    0.923150 0.191975 0.293960 0.143730
H14   H     H_    0.900719 0.182621 0.111289 0.173650
H15   H     H_    0.933690 0.703319 0.850886 0.083575
H16   H     H_    0.995416 0.705052 0.695202 0.186336
H17   H     H_    0.097016 0.815075 0.831169 0.173804
H18   H     H_    0.003608 0.853610 0.742678 0.097294
H19   H     H_    0.000727 0.839410 0.925244 0.123325
H20   H     H_    0.963743 0.707458 0.257143 0.164612
H21   H     H_    0.956156 0.728933 0.077267 0.091992
H22   H     H_    0.003988 0.866481 0.183249 0.088972
H23   H     H_    0.196908 0.691505 0.276340 0.186837
H24   H     H_    0.076563 0.807851 0.294587 0.143699
H25   H     H_    0.099407 0.817384 0.112063 0.173662
H26   H     H_    0.066386 0.296809 0.850887 0.083701
H27   H     H_    0.004605 0.294889 0.695261 0.186266
H28   H     H_    0.903172 0.184947 0.832975 0.173996
H29   H     H_    0.995869 0.146466 0.742458 0.097529
H30   H     H_    0.000188 0.160464 0.924990 0.122757
H31   H     H_    0.535969 0.792444 0.257503 0.164661
H32   H     H_    0.543981 0.771238 0.077544 0.091945
H33   H     H_    0.495995 0.633511 0.182873 0.088976
H34   H     H_    0.804566 0.307037 0.724217 0.182487
H35   H     H_    0.423094 0.691947 0.293856 0.143729
H36   H     H_    0.400728 0.682630 0.111163 0.173656
H37   H     H_    0.433684 0.203312 0.850889 0.083585
H38   H     H_    0.495411 0.205052 0.695205 0.186337
H39   H     H_    0.597002 0.315081 0.831178 0.173796
H40   H     H_    0.503592 0.353610 0.742687 0.097298
H41   H     H_    0.500710 0.339407 0.925251 0.123324
H42   H     H_    0.463765 0.207459 0.257164 0.164616
H43   H     H_    0.456159 0.228928 0.077285 0.091990
H44   H     H_    0.504002 0.366479 0.183245 0.088968
H45   H     H_    0.195211 0.307006 0.723769 0.115344
H46   H     H_    0.576587 0.307853 0.294568 0.143703
H47   H     H_    0.599414 0.317379 0.112037 0.173670
H48   H     H_    0.566399 0.796832 0.850888 0.083724
H49   H     H_    0.504611 0.794882 0.695268 0.186259
H50   H     H_    0.403207 0.684944 0.833187 0.174015
H51   H     H_    0.495826 0.646475 0.742440 0.097558
H52   H     H_    0.500310 0.660454 0.924964 0.122692
H53   H     H_    0.805438 0.693531 0.275523 0.112770
H54   H     H_    0.804895 0.693105 0.723769 0.115329
H55   H     H_    0.194417 0.306318 0.275525 0.112766
H56   H     H_    0.302986 0.808623 0.276351 0.186793
N1    N     N_R   1.000000 0.500000 0.852070 -0.279208
N2    N     N_R   1.000000 0.500000 0.147930 -0.276375
N3    N     N_R   0.500000 0.000000 0.852070 -0.279211
N4    N     N_R   0.500000 0.000000 0.147930 -0.276381
O1    O     O_R   0.090170 0.409820 0.618740 -0.528577
O2    O     O_R   0.409830 0.090180 0.381260 -0.522059
O3    O     O_R   0.409830 0.090180 0.618740 -0.528585
O4    O     O_R   0.590170 0.909820 0.381260 -0.522068
O5    O     O_R   0.409830 0.909820 0.381260 -0.457070
O6    O     O_R   0.590170 0.090180 0.618740 -0.475458
O7    O     O_R   0.590170 0.090180 0.381260 -0.456981
O8    O     O_R   0.409830 0.909820 0.618740 -0.475393
O9    O     O_3   0.940249 0.351246 0.141997 -0.519352
O10   O     O_3   0.059221 0.650906 0.861540 -0.531911
O11   O     O_3   0.059715 0.648767 0.142010 -0.519303
O12   O     O_R   0.909830 0.590180 0.381260 -0.522059
O13   O     O_3   0.940810 0.349092 0.861536 -0.532049
O14   O     O_3   0.440237 0.851250 0.141993 -0.519362
O15   O     O_3   0.559219 0.150908 0.861539 -0.531914
O16   O     O_3   0.559724 0.148763 0.142007 -0.519302
O17   O     O_3   0.440816 0.849090 0.861534 -0.532066
O18   O     O_R   0.909830 0.590180 0.618740 -0.528584
O19   O     O_R   0.090170 0.409820 0.381260 -0.522066
O20   O     O_R   0.909830 0.409820 0.381260 -0.457058
O21   O     O_R   0.090170 0.590180 0.618740 -0.475461
O22   O     O_R   0.090170 0.590180 0.381260 -0.456978
O23   O     O_R   0.909830 0.409820 0.618740 -0.475401
O24   O     O_R   0.590170 0.909820 0.618740 -0.528575

loop_
_geom_bond_atom_site_label_1
_geom_bond_atom_site_label_2
_ccdc_geom_bond_type
C10   C27   A    
Cu2   O19   S    
C37   H14   S    
C34   O21   A    
C50   H44   S    
C12   C29   S    
C33   C53   S    
C25   H7    S    
C19   C31   A    
C11   C18   A    
C38   H16   S    
Cu3   O6    S    
C22   C35   A    
C43   H29   S    
C47   H38   S    
C42   O13   S    
C3    O11   S    
C43   H28   S    
C39   H17   S    
Cu4   O5    S    
C53   O2    A    
C38   C39   S    
C52   H52   S    
C19   H2    S    
Cu2   N2    S    
Cu4   O4    S    
C21   H4    S    
C14   H45   S    
C46   H35   S    
C44   C46   S    
C51   H48   S    
C45   O24   A    
C16   C22   A    
C15   H53   S    
C13   C28   A    
C42   H26   S    
C11   C27   A    
C56   O9    S    
C1    O19   A    
C24   H6    S    
Cu3   Cu4   S    
C27   C34   S    
C4    C56   A    
C44   O14   S    
C17   C30   A    
C23   O23   A    
C14   C30   A    
C7    N4    A    
C32   C54   S    
C21   C32   A    
C2    N1    A    
C36   H10   S    
C15   C29   A    
C38   H15   S    
C45   O4    A    
Cu3   O3    S    
C5    O14   S    
C48   H40   S    
C54   O5    A    
C43   H30   S    
C13   C19   A    
C5    N4    A    
C51   C52   S    
C17   C24   A    
C39   H18   S    
C23   O20   A    
C53   O3    A    
C18   H56   S    
C49   H42   S    
Cu1   O23   S    
C15   C26   A    
C52   H51   S    
C11   H23   S    
Cu3   O8    S    
C41   H24   S    
C54   O8    A    
C8    O17   S    
C39   H19   S    
C22   H5    S    
C6    O15   S    
C3    N2    A    
Cu2   O22   S    
C9    C20   A    
C47   C48   S    
C55   O6    A    
C52   H50   S    
C40   H20   S    
C23   C28   S    
Cu4   O2    S    
C44   H31   S    
C51   O17   S    
C40   C41   S    
C49   O16   S    
C55   O7    A    
Cu3   O24   S    
C37   H11   S    
C50   H47   S    
C9    H1    S    
C4    N1    A    
C18   C32   A    
C42   C43   S    
C35   C45   S    
C38   O10   S    
C6    N3    A    
C36   H9    S    
C17   H55   S    
Cu1   N1    S    
Cu2   O20   S    
C48   H39   S    
C37   H13   S    
C34   O22   A    
Cu3   N3    S    
C12   O12   A    
C47   O15   S    
C56   N2    A    
C40   H21   S    
C40   O11   S    
Cu4   O7    S    
Cu1   O1    S    
C16   H54   S    
C10   C21   A    
C49   H43   S    
C5    C8    A    
C6    C7    A    
C41   H25   S    
C24   C33   A    
C47   H37   S    
Cu1   O21   S    
C13   H34   S    
C26   H8    S    
C20   H3    S    
C2    C3    A    
C16   C29   A    
C41   H22   S    
C7    O16   S    
C36   O9    S    
C44   H32   S    
Cu1   Cu2   S    
C46   H33   S    
C36   C37   S    
C48   H41   S    
C1    C30   S    
C2    O10   S    
Cu1   O18   S    
Cu4   N4    S    
C12   O18   A    
C14   C25   A    
C1    O1    A    
Cu2   O12   S    
C26   C35   A    
C46   H36   S    
C8    N3    A    
C51   H49   S    
C49   C50   S    
C50   H46   S    
C42   H27   S    
C31   C55   S    
C9    C28   A    
C25   C33   A    
C4    O13   S    
C20   C31   A    
C10   H12   S    
