data_mof_unit_41517.cif
_audit_creation_date              2012-12-10T18:04:37-0500
_audit_creation_method            fapswitch 2.2
_symmetry_space_group_name_H-M    P1
_symmetry_Int_Tables_number       1
_space_group_crystal_system       triclinic
_cell_length_a                    19.495381
_cell_length_b                    17.619969
_cell_length_c                    12.619664
_cell_angle_alpha                 89.917018
_cell_angle_beta                  99.209977
_cell_angle_gamma                 90.002692
_cell_volume                      4279.06661826

loop_
_atom_site_label
_atom_site_type_symbol
_atom_type_description
_atom_site_fract_x
_atom_site_fract_y
_atom_site_fract_z
_atom_type_partial_charge
C1    C     C_R   0.411372 0.102978 0.443900 0.869058
C2    C     C_R   0.783138 0.790305 0.644276 0.041380
C3    C     C_R   0.282104 0.712016 0.652478 0.053374
C4    C     C_R   0.283137 0.290303 0.644277 0.041382
C5    C     C_R   0.348509 0.743767 0.679367 0.487580
C6    C     C_R   0.351009 0.261750 0.666775 0.485270
C7    C     C_R   0.848509 0.243766 0.679367 0.487579
C8    C     C_R   0.851010 0.761752 0.666773 0.485269
C9    C     C_R   0.378740 0.779809 0.599431 -0.279389
C10   C     C_R   0.378472 0.223572 0.586284 -0.297353
C11   C     C_R   0.878740 0.279809 0.599431 -0.279386
C12   C     C_R   0.413207 0.895032 0.445463 0.873974
C13   C     C_R   0.878472 0.723573 0.586283 -0.297361
C14   C     C_R   0.680941 0.185708 0.519770 -0.214445
C15   C     C_R   0.676318 0.808962 0.519885 -0.222400
C16   C     C_R   0.180941 0.685709 0.519770 -0.214446
C17   C     C_R   0.176317 0.308962 0.519885 -0.222400
C18   C     C_R   0.683161 0.145844 0.703443 -0.217075
C19   C     C_R   0.687103 0.858901 0.699838 -0.215280
C20   C     C_R   0.183161 0.645844 0.703444 -0.217075
C21   C     C_R   0.187102 0.358899 0.699839 -0.215281
C22   C     C_R   0.368188 0.829763 0.414487 -0.102425
C23   C     C_R   0.911372 0.602978 0.443900 0.869056
C24   C     C_R   0.361084 0.162438 0.408683 -0.091406
C25   C     C_R   0.868188 0.329763 0.414487 -0.102424
C26   C     C_R   0.861084 0.662438 0.408683 -0.091406
C27   C     C_R   0.641413 0.980040 0.133342 -0.316719
C28   C     C_R   0.141413 0.480040 0.133342 -0.316719
C29   C     C_R   0.378166 0.003492 0.759179 0.618489
C30   C     C_R   0.878166 0.503491 0.759179 0.618484
C31   C     C_R   0.351492 0.998857 0.855008 -0.411269
C32   C     C_R   0.851492 0.498857 0.855008 -0.411260
C33   C     C_R   0.590911 0.899660 0.557642 0.836505
C34   C     C_R   0.913207 0.395031 0.445463 0.873973
C35   C     C_R   0.591008 0.100309 0.557618 0.842485
C36   C     C_R   0.090911 0.399660 0.557642 0.836506
C37   C     C_R   0.091008 0.600309 0.557618 0.842486
C38   C     C_R   0.395951 0.993479 0.952403 0.087123
C39   C     C_R   0.895951 0.493479 0.952403 0.087120
C40   C     C_R   0.469535 0.997453 0.954504 -0.046380
C41   C     C_R   0.969535 0.497453 0.954504 -0.046379
C42   C     C_R   0.493951 0.998211 0.854605 0.087112
C43   C     C_R   0.993951 0.498211 0.854605 0.087114
C44   C     C_R   0.520268 0.997706 0.048484 0.024658
C45   C     C_R   0.748509 0.212919 0.543933 0.010007
C46   C     C_R   0.020268 0.497706 0.048484 0.024659
C47   C     C_R   0.591815 0.987271 0.040938 0.197757
C48   C     C_R   0.091815 0.487271 0.040938 0.197757
C49   C     C_R   0.613379 0.986493 0.941549 -0.289258
C50   C     C_R   0.113379 0.486493 0.941549 -0.289259
C51   C     C_R   0.565073 0.994953 0.849889 -0.173526
C52   C     C_R   0.065073 0.494954 0.849889 -0.173525
C53   C     C_R   0.504016 0.011152 0.150154 -0.029921
C54   C     C_R   0.004016 0.511152 0.150154 -0.029921
C55   C     C_R   0.619770 0.984424 0.232162 0.002483
C56   C     C_R   0.744482 0.782787 0.539148 0.005611
C57   C     C_R   0.119770 0.484424 0.232162 0.002484
C58   C     C_R   0.748455 0.178911 0.731783 -0.143485
C59   C     C_R   0.753188 0.827222 0.724469 -0.151733
C60   C     C_R   0.248455 0.678912 0.731783 -0.143484
C61   C     C_R   0.253187 0.327219 0.724470 -0.151731
C62   C     C_R   0.650253 0.148108 0.596407 -0.039006
C63   C     C_R   0.649792 0.851401 0.596095 -0.032269
C64   C     C_R   0.150253 0.648108 0.596407 -0.039006
C65   C     C_R   0.149791 0.351400 0.596095 -0.032269
C66   C     C_R   0.344227 0.816412 0.305377 -0.156051
C67   C     C_R   0.248509 0.712919 0.543933 0.010006
C68   C     C_R   0.328591 0.163557 0.301163 -0.169189
C69   C     C_R   0.844227 0.316412 0.305377 -0.156051
C70   C     C_R   0.828590 0.663556 0.301163 -0.169189
C71   C     C_R   0.290692 0.765387 0.274243 -0.128924
C72   C     C_R   0.271251 0.209617 0.269995 -0.138896
C73   C     C_R   0.790692 0.265387 0.274243 -0.128924
C74   C     C_R   0.771250 0.709615 0.269994 -0.138897
C75   C     C_R   0.258319 0.730332 0.351654 -0.170555
C76   C     C_R   0.243197 0.250640 0.346805 -0.167369
C77   C     C_R   0.758319 0.230332 0.351654 -0.170555
C78   C     C_R   0.244481 0.282786 0.539149 0.005610
C79   C     C_R   0.743197 0.750640 0.346805 -0.167369
C80   C     C_R   0.282495 0.742413 0.462440 0.088294
C81   C     C_R   0.274476 0.248656 0.456422 0.083555
C82   C     C_R   0.782495 0.242412 0.462440 0.088294
C83   C     C_R   0.774476 0.748656 0.456422 0.083556
C84   C     C_R   0.343529 0.784718 0.492766 0.022677
C85   C     C_R   0.338556 0.211398 0.484146 0.003044
C86   C     C_R   0.843529 0.284717 0.492766 0.022677
C87   C     C_R   0.838556 0.711398 0.484145 0.003041
C88   C     C_3   0.278790 0.051680 0.654817 -0.287403
C89   C     C_R   0.782104 0.212015 0.652478 0.053374
C90   C     C_3   0.778795 0.551685 0.654814 -0.287387
C91   C     C_3   0.392013 0.806158 0.833543 -0.263391
C92   C     C_3   0.400587 0.208365 0.825090 -0.310806
C93   C     C_3   0.892010 0.306158 0.833544 -0.263392
C94   C     C_3   0.900584 0.708369 0.825091 -0.310816
H1    H     H_    0.659839 0.116272 0.763992 0.154417
H2    H     H_    0.954771 0.532929 0.162856 0.165878
H3    H     H_    0.296017 0.994178 0.853392 0.198508
H4    H     H_    0.796017 0.494177 0.853391 0.198509
H5    H     H_    0.584556 0.997651 0.775669 0.206376
H6    H     H_    0.084556 0.497651 0.775669 0.206376
H7    H     H_    0.773101 0.176757 0.814983 0.182483
H8    H     H_    0.781567 0.834103 0.804964 0.181444
H9    H     H_    0.273101 0.676758 0.814983 0.182484
H10   H     H_    0.281565 0.334100 0.804965 0.181445
H11   H     H_    0.651349 0.191683 0.440217 0.150619
H12   H     H_    0.666860 0.892140 0.759882 0.148736
H13   H     H_    0.643089 0.799638 0.444065 0.144976
H14   H     H_    0.151349 0.691683 0.440217 0.150619
H15   H     H_    0.143089 0.299639 0.444065 0.144977
H16   H     H_    0.366237 0.846258 0.244197 0.196131
H17   H     H_    0.346215 0.127143 0.241843 0.174765
H18   H     H_    0.866237 0.346258 0.244197 0.196131
H19   H     H_    0.846214 0.627142 0.241844 0.174765
H20   H     H_    0.716515 0.191682 0.322945 0.133781
H21   H     H_    0.698282 0.784914 0.317620 0.132081
H22   H     H_    0.216515 0.691682 0.322945 0.133781
H23   H     H_    0.159839 0.616273 0.763992 0.154417
H24   H     H_    0.198283 0.284914 0.317620 0.132080
H25   H     H_    0.272597 0.755024 0.189851 0.157446
H26   H     H_    0.246726 0.211188 0.186742 0.151403
H27   H     H_    0.772597 0.255024 0.189851 0.157445
H28   H     H_    0.746725 0.711186 0.186742 0.151403
H29   H     H_    0.431145 0.801182 0.620713 0.177158
H30   H     H_    0.431956 0.204825 0.603906 0.180846
H31   H     H_    0.931145 0.301183 0.620714 0.177159
H32   H     H_    0.931957 0.704826 0.603905 0.180849
H33   H     H_    0.656596 0.976639 0.305127 0.145548
H34   H     H_    0.166858 0.392138 0.759883 0.148737
H35   H     H_    0.156595 0.476639 0.305126 0.145548
H36   H     H_    0.293721 0.106657 0.695172 0.137921
H37   H     H_    0.235359 0.024943 0.688379 0.163322
H38   H     H_    0.259494 0.064551 0.569147 0.200837
H39   H     H_    0.793733 0.606664 0.695160 0.137921
H40   H     H_    0.735363 0.524958 0.688384 0.163314
H41   H     H_    0.759497 0.564551 0.569143 0.200835
H42   H     H_    0.413687 0.797290 0.919420 0.205184
H43   H     H_    0.428857 0.843204 0.798873 0.172254
H44   H     H_    0.340712 0.834658 0.830299 0.175073
H45   H     H_    0.667930 0.981371 0.934707 0.147299
H46   H     H_    0.428985 0.164572 0.785835 0.170417
H47   H     H_    0.432135 0.220851 0.904320 0.202453
H48   H     H_    0.349619 0.186057 0.840179 0.153513
H49   H     H_    0.913685 0.297290 0.919421 0.205182
H50   H     H_    0.928853 0.343206 0.798876 0.172256
H51   H     H_    0.840709 0.334655 0.830301 0.175073
H52   H     H_    0.928978 0.664571 0.785836 0.170415
H53   H     H_    0.932134 0.720854 0.904320 0.202456
H54   H     H_    0.849615 0.686066 0.840183 0.153514
H55   H     H_    0.167930 0.481371 0.934707 0.147299
H56   H     H_    0.695828 0.970497 0.129070 0.151200
H57   H     H_    0.195828 0.470497 0.129070 0.151200
H58   H     H_    0.454771 0.032928 0.162855 0.165878
I1    I     I_    0.339677 0.961256 0.077139 -0.495562
I2    I     I_    0.839677 0.461256 0.077139 -0.495564
N1    N     N_R   0.552340 0.000000 0.237260 -0.108836
N2    N     N_R   0.052340 0.500000 0.237260 -0.108836
N3    N     N_R   0.448170 1.000000 0.762060 -0.178772
N4    N     N_R   0.948170 0.500000 0.762060 -0.178772
O1    O     O_R   0.448200 0.076800 0.373930 -0.615472
O2    O     O_R   0.585240 0.076800 0.457600 -0.612324
O3    O     O_R   0.085240 0.423200 0.457600 -0.616632
O4    O     O_R   0.085240 0.576800 0.457600 -0.612324
O5    O     O_R   0.551780 0.923190 0.626070 -0.645305
O6    O     O_R   0.551780 0.076810 0.626070 -0.644051
O7    O     O_R   0.051780 0.423190 0.626070 -0.645305
O8    O     O_R   0.051780 0.576810 0.626070 -0.644050
O9    O     O_3   0.335327 0.000939 0.660139 -0.557408
O10   O     O_3   0.835326 0.500937 0.660140 -0.557410
O11   O     O_3   0.385337 0.735012 0.782023 -0.618703
O12   O     O_R   0.448200 0.923200 0.373930 -0.601763
O13   O     O_3   0.392202 0.276087 0.764681 -0.603439
O14   O     O_3   0.885338 0.235012 0.782022 -0.618702
O15   O     O_3   0.892204 0.776089 0.764679 -0.603435
O16   O     O_R   0.948200 0.576800 0.373930 -0.615471
O17   O     O_R   0.948200 0.423200 0.373930 -0.601762
O18   O     O_R   0.414750 0.076790 0.542400 -0.566220
O19   O     O_R   0.414750 0.923210 0.542400 -0.558021
O20   O     O_R   0.914750 0.576790 0.542400 -0.566224
O21   O     O_R   0.914750 0.423210 0.542400 -0.558020
O22   O     O_R   0.585240 0.923200 0.457600 -0.616631
Zn1   Zn    Zn3+2 0.522330 1.000000 0.387520 0.949681
Zn2   Zn    Zn3+2 0.022330 0.500000 0.387520 0.949681
Zn3   Zn    Zn3+2 0.477660 0.000000 0.612480 0.956245
Zn4   Zn    Zn3+2 0.977660 0.500000 0.612480 0.956245

loop_
_geom_bond_atom_site_label_1
_geom_bond_atom_site_label_2
_ccdc_geom_bond_type
C94   H52   S    
O18   Zn3   S    
C83   C87   A    
C13   C87   A    
C93   O14   S    
C8    C13   A    
C79   H21   S    
C45   C82   A    
C50   H55   S    
C88   H36   S    
C80   C84   A    
C43   N4    A    
O16   Zn2   S    
C47   C49   A    
C23   O16   A    
C28   C57   A    
C55   N1    A    
C10   C85   A    
C57   H35   S    
C33   O5    A    
C35   C62   S    
O4    Zn2   S    
C10   H30   S    
C54   N2    A    
C90   H40   S    
C69   H18   S    
C27   C55   A    
C43   C52   A    
C23   C26   S    
C92   O13   S    
C14   C62   A    
C12   C22   S    
C4    C78   A    
C32   C39   A    
C15   H13   S    
O3    Zn2   S    
C73   C77   A    
C35   O2    A    
C36   O7    A    
C23   O20   A    
C34   O17   A    
C91   H43   S    
C44   C53   A    
C18   C58   A    
C14   H11   S    
C22   C66   A    
C91   H42   S    
C19   C63   A    
C26   C87   A    
C49   C51   A    
C70   C74   A    
C53   H58   S    
C50   C52   A    
C41   C46   A    
C69   C73   A    
C20   C60   A    
C60   H9    S    
C92   H48   S    
C24   C85   A    
C21   C61   A    
C93   H49   S    
C44   C47   A    
C68   C72   A    
C42   C51   A    
C21   C65   A    
C3    C60   A    
C40   C42   A    
C12   O19   A    
C7    O14   S    
C33   O22   A    
C94   H54   S    
C18   H1    S    
C41   C43   A    
C46   C54   A    
C34   O21   A    
C1    O18   A    
C20   H23   S    
C14   C45   A    
C6    O13   S    
C70   H19   S    
C51   H5    S    
C57   N2    A    
C46   C48   A    
C71   C75   A    
C91   O11   S    
C39   I2    S    
O5    Zn3   S    
C30   C32   A    
C1    O1    A    
C61   H10   S    
O8    Zn4   S    
C39   C41   A    
C58   H7    S    
C90   H39   S    
N2    Zn2   S    
C2    C59   A    
C18   C62   A    
C29   N3    A    
C9    C84   A    
C19   C59   A    
O19   Zn3   S    
C24   C68   A    
C4    C61   A    
C52   H6    S    
C76   H24   S    
C68   H17   S    
C22   C84   A    
C20   C64   A    
C7    C11   A    
C5    C9    A    
C91   H44   S    
C66   C71   A    
C33   C63   S    
C88   O9    S    
C72   H26   S    
C72   C76   A    
C16   C67   A    
O1    Zn1   S    
C21   H34   S    
C93   H51   S    
C92   H47   S    
C93   H50   S    
C1    C24   S    
O17   Zn2   S    
C13   H32   S    
C4    C6    A    
C74   H28   S    
C55   H33   S    
C53   N1    A    
C27   H56   S    
C73   H27   S    
C74   C79   A    
C49   H45   S    
O12   Zn1   S    
C36   O3    A    
C26   C70   A    
C25   C86   A    
C42   N3    A    
C25   C69   A    
C88   H38   S    
C77   H20   S    
C92   H46   S    
O2    Zn1   S    
C37   C64   S    
C45   C89   A    
O22   Zn1   S    
C56   C83   A    
O21   Zn4   S    
C75   C80   A    
C27   C47   A    
C94   H53   S    
C30   N4    A    
C28   C48   A    
C15   C63   A    
C90   O10   S    
C8    O15   S    
C59   H8    S    
C54   H2    S    
C2    C8    A    
C67   C80   A    
C3    C5    A    
C17   H15   S    
C76   C81   A    
C6    C10   A    
C12   O12   A    
N1    Zn1   S    
C37   O8    A    
C16   C64   A    
C25   C34   S    
C17   C65   A    
C35   O6    A    
C38   I1    S    
C31   C38   A    
C71   H25   S    
C15   C56   A    
C36   C65   S    
C30   O10   S    
C29   C31   A    
O6    Zn3   S    
C82   C86   A    
C38   C40   A    
C90   H41   S    
C78   C81   A    
C29   O9    S    
C3    C67   A    
C77   C82   A    
C48   C50   A    
C17   C78   A    
C9    H29   S    
C32   H4    S    
O7    Zn4   S    
C31   H3    S    
C58   C89   A    
O20   Zn4   S    
C16   H14   S    
C94   O15   S    
C79   C83   A    
C19   H12   S    
C40   C44   A    
C11   H31   S    
C66   H16   S    
C28   H57   S    
C5    O11   S    
C2    C56   A    
C75   H22   S    
C11   C86   A    
C88   H37   S    
N4    Zn4   S    
C81   C85   A    
N3    Zn3   S    
C37   O4    A    
C7    C89   A    
