data_mof_unit_66346.cif
_audit_creation_date              2012-12-10T17:59:40-0500
_audit_creation_method            fapswitch 2.2
_symmetry_space_group_name_H-M    P1
_symmetry_Int_Tables_number       1
_space_group_crystal_system       triclinic
_cell_length_a                    18.709017
_cell_length_b                    18.581284
_cell_length_c                    18.751622
_cell_angle_alpha                 109.242156
_cell_angle_beta                  109.948421
_cell_angle_gamma                 109.032664
_cell_volume                      5029.64310891

loop_
_atom_site_label
_atom_site_type_symbol
_atom_type_description
_atom_site_fract_x
_atom_site_fract_y
_atom_site_fract_z
_atom_type_partial_charge
C1    C     C_R   0.621999 0.620276 0.502093 0.905068
C2    C     C_R   0.691064 0.686839 0.505472 -0.118045
C3    C     C_R   0.691135 0.518326 0.765015 -0.199545
C4    C     C_R   0.378083 0.498665 0.379374 0.984910
C5    C     C_R   0.754597 0.519742 0.831316 0.130866
C6    C     C_R   0.817637 0.501946 0.817047 -0.149921
C7    C     C_R   0.819789 0.487301 0.739372 0.347088
C8    C     C_R   0.759089 0.492343 0.675340 0.095951
C9    C     C_R   0.692508 0.504150 0.687766 -0.126189
C10   C     C_R   0.250902 0.326672 0.512412 -0.257399
C11   C     C_R   0.185710 0.263319 0.511159 0.351870
C12   C     C_3   0.170737 0.434657 0.225453 -0.266796
C13   C     C_R   0.186013 0.184766 0.498651 -0.278313
C14   C     C_R   0.251329 0.169430 0.487691 0.321718
C15   C     C_R   0.317864 0.234269 0.490693 0.353629
C16   C     C_R   0.381349 0.379459 0.501356 0.959570
C17   C     C_R   0.316287 0.312380 0.501868 -0.252352
C18   C     C_R   0.001742 0.620434 0.121479 0.859932
C19   C     C_R   0.124243 0.499650 0.124145 0.967984
C20   C     C_R   0.004875 0.379573 0.884656 0.936013
C21   C     C_R   0.883139 0.500731 0.883369 0.933955
C22   C     C_R   0.002283 0.881275 0.380611 0.937216
C23   C     C_3   0.236637 0.512904 0.319082 0.123112
C24   C     C_R   0.880040 0.880597 0.500845 0.864216
C25   C     C_R   0.999295 0.120285 0.618965 0.867194
C26   C     C_R   0.119937 0.119814 0.499665 1.012282
C27   C     C_R   0.000013 0.760490 0.175886 0.088126
C28   C     C_R   0.623066 0.501811 0.621080 0.894777
C29   C     C_R   0.004843 0.827340 0.243180 0.407409
C30   C     C_R   0.004336 0.817408 0.314267 -0.127021
C31   C     C_R   0.002557 0.744473 0.320983 -0.239657
C32   C     C_R   0.000454 0.679783 0.256391 -0.210262
C33   C     C_R   0.999823 0.687751 0.184803 -0.070835
C34   C     C_3   0.310658 0.497982 0.312500 -0.261341
C35   C     C_R   0.079994 0.329449 0.813555 -0.131509
C36   C     C_R   0.079243 0.267424 0.747014 0.143981
C37   C     C_R   0.000034 0.187942 0.684468 -0.011121
C38   C     C_R   0.921979 0.172548 0.686871 0.124231
C39   C     C_R   0.925121 0.235744 0.754691 -0.133222
C40   C     C_3   0.329147 0.561721 0.277445 0.320511
C41   C     C_R   0.003597 0.313314 0.817284 -0.100369
C42   C     C_3   0.254831 0.576741 0.283855 0.093009
C43   C     C_3   0.190372 0.499125 0.190899 -0.236476
C44   C     C_3   0.264029 0.484059 0.183854 0.325206
C45   C     C_R   0.761704 0.760078 0.585900 0.168341
C46   C     C_3   0.245817 0.420484 0.219273 0.332827
C47   C     C_3   0.258085 0.664882 0.318746 -0.747392
C48   C     C_3   0.752699 0.541792 0.915565 -0.848873
C49   C     C_3   0.766606 0.487842 0.596151 -0.731225
C50   C     C_3   0.993454 0.765355 0.094905 -0.752927
C51   C     C_3   0.163273 0.290217 0.744407 -0.771772
C52   C     C_3   0.835456 0.090081 0.618487 -0.823280
C53   C     C_3   0.220527 0.528413 0.395658 -0.778500
C54   C     C_3   0.772713 0.764178 0.671541 -0.832505
C55   C     C_3   0.890837 0.913150 0.669671 -0.846161
C56   C     C_R   0.821875 0.827997 0.584655 0.145270
C57   C     C_3   0.740139 0.721942 0.336582 -0.794455
C58   C     C_R   0.814449 0.815796 0.503098 -0.077257
C59   C     C_R   0.746655 0.739004 0.423814 0.128449
C60   C     C_R   0.684519 0.676060 0.426101 -0.163758
Cl1   Cl    Cl    0.895148 0.456945 0.720491 -0.591140
Cl2   Cl    Cl    0.106716 0.286094 0.528502 -0.583603
Cl3   Cl    Cl    0.248547 0.068071 0.467175 -0.473212
Cl4   Cl    Cl    0.404610 0.218398 0.485115 -0.482570
Cl5   Cl    Cl    0.435189 0.644903 0.313452 -0.552727
Cl6   Cl    Cl    0.018366 0.926151 0.242465 -0.553123
Cl7   Cl    Cl    0.280026 0.464403 0.092310 -0.512410
Cl8   Cl    Cl    0.238534 0.315744 0.175769 -0.493127
H1    H     H_    0.630066 0.618095 0.365457 0.192429
H2    H     H_    0.271959 0.696236 0.280330 0.264071
H3    H     H_    0.194254 0.655147 0.313242 0.216182
H4    H     H_    0.810864 0.551826 0.969064 0.234833
H5    H     H_    0.750329 0.603753 0.939098 0.239603
H6    H     H_    0.693390 0.488423 0.903700 0.257979
H7    H     H_    0.754865 0.537800 0.582097 0.202110
H8    H     H_    0.832684 0.502544 0.606071 0.272465
H9    H     H_    0.718437 0.421479 0.538599 0.263584
H10   H     H_    0.971370 0.811778 0.085694 0.273372
H11   H     H_    0.058093 0.785879 0.098924 0.265568
H12   H     H_    0.640327 0.528805 0.773969 0.182514
H13   H     H_    0.944423 0.700540 0.035401 0.205348
H14   H     H_    0.154916 0.243341 0.683348 0.243562
H15   H     H_    0.189591 0.355540 0.749082 0.256981
H16   H     H_    0.212218 0.292821 0.800680 0.248362
H17   H     H_    0.841291 0.031310 0.612905 0.220963
H18   H     H_    0.783165 0.087581 0.634689 0.242951
H19   H     H_    0.814386 0.087415 0.554288 0.270284
H20   H     H_    0.160087 0.533333 0.379815 0.238530
H21   H     H_    0.212800 0.473000 0.408623 0.239462
H22   H     H_    0.276543 0.590351 0.454743 0.251572
H23   H     H_    0.250254 0.387072 0.521104 0.204828
H24   H     H_    0.841060 0.808303 0.726265 0.244953
H25   H     H_    0.730080 0.786937 0.689156 0.258620
H26   H     H_    0.755561 0.698639 0.665880 0.219801
H27   H     H_    0.922261 0.968354 0.660409 0.234208
H28   H     H_    0.860401 0.934875 0.707722 0.246162
H29   H     H_    0.942751 0.903350 0.708801 0.254256
H30   H     H_    0.802859 0.729730 0.339988 0.215665
H31   H     H_    0.687912 0.654369 0.283509 0.240999
H32   H     H_    0.724361 0.768116 0.318294 0.267810
H33   H     H_    0.001974 0.737343 0.375913 0.172153
H34   H     H_    0.000354 0.623806 0.262683 0.166999
H35   H     H_    0.140305 0.390658 0.862478 0.191902
H36   H     H_    0.866051 0.225545 0.757841 0.168682
H37   H     H_    0.104925 0.382551 0.203165 0.207749
H38   H     H_    0.310441 0.708089 0.388333 0.258078
O1    O     O_R   0.592040 0.539900 0.448690 -0.633616
O2    O     O_R   0.948580 0.908330 0.356880 -0.592911
O3    O     O_R   0.960490 0.908280 0.552000 -0.622384
O4    O     O_R   0.591220 0.643330 0.551330 -0.608373
O5    O     O_R   0.856260 0.908310 0.447800 -0.624737
O6    O     O_R   0.051420 0.091500 0.642940 -0.632152
O7    O     O_R   0.947190 0.091540 0.538750 -0.597600
O8    O     O_R   0.143740 0.091510 0.552020 -0.603109
O9    O     O_R   0.039510 0.091550 0.447830 -0.553698
O10   O     O_R   0.408100 0.448290 0.356370 -0.571468
O11   O     O_R   0.407270 0.551710 0.459000 -0.623207
O12   O     O_R   0.054890 0.643310 0.094620 -0.618761
O13   O     O_R   0.408780 0.356670 0.448670 -0.555478
O14   O     O_R   0.407960 0.460100 0.551310 -0.639883
O15   O     O_R   0.592730 0.448290 0.541000 -0.601195
O16   O     O_R   0.591900 0.551710 0.643630 -0.638955
O17   O     O_R   0.951430 0.539890 0.094630 -0.632725
O18   O     O_R   0.044450 0.448260 0.096050 -0.629557
O19   O     O_R   0.147910 0.551670 0.096030 -0.592648
O20   O     O_R   0.952840 0.356630 0.912840 -0.629825
O21   O     O_R   0.056290 0.460040 0.912820 -0.589118
O22   O     O_R   0.859820 0.448260 0.911420 -0.616618
O23   O     O_R   0.963280 0.551670 0.911400 -0.589078
O24   O     O_R   0.052810 0.908290 0.461080 -0.604117
Zn1   Zn    Zn3+2 0.500550 0.430940 0.431470 1.088415
Zn2   Zn    Zn3+2 0.499450 0.569060 0.568530 0.986824
Zn3   Zn    Zn3+2 0.934780 0.430920 0.003740 0.994942
Zn4   Zn    Zn3+2 0.072940 0.569020 0.003710 1.056935
Zn5   Zn    Zn3+2 0.069600 0.999890 0.569480 1.026763
Zn6   Zn    Zn3+2 0.930400 0.999940 0.430340 1.067419

loop_
_geom_bond_atom_site_label_1
_geom_bond_atom_site_label_2
_ccdc_geom_bond_type
O19   Zn4   S    
C55   C56   S    
C27   C29   A    
C11   C13   A    
O24   Zn5   S    
O21   Zn4   S    
C12   H37   S    
C11   Cl2   S    
C50   H11   S    
C20   C41   S    
C39   H36   S    
C39   C41   A    
C27   C33   A    
C46   Cl8   S    
C12   C23   S    
C29   C30   A    
C23   C42   S    
O18   Zn3   S    
O17   Zn3   S    
C34   C40   S    
C31   H33   S    
C36   C37   A    
C48   H4    S    
O2    Zn6   S    
C12   C43   S    
C35   H35   S    
C16   O14   A    
C30   C31   A    
C2    C60   A    
O5    Zn6   S    
C57   C59   S    
C38   C52   S    
O9    Zn6   S    
C57   H30   S    
C10   C17   A    
C57   H31   S    
C1    C2    S    
O11   Zn2   S    
C26   O9    A    
C7    Cl1   S    
C54   H25   S    
C25   O6    A    
C25   C37   S    
C35   C36   A    
O20   Zn3   S    
C19   C43   S    
C16   C17   S    
O7    Zn6   S    
O13   Zn1   S    
C15   Cl4   S    
C49   H7    S    
O4    Zn2   S    
C34   C46   S    
C18   O12   A    
O12   Zn4   S    
C27   C50   S    
C18   O17   A    
C47   H38   S    
C40   C42   S    
C59   C60   A    
C13   C14   A    
C22   O24   A    
C24   O5    A    
O15   Zn1   S    
C35   C41   A    
C3    H12   S    
C50   H10   S    
O16   Zn2   S    
C44   C46   S    
C23   C53   S    
C56   C58   A    
C2    C45   A    
C38   C39   A    
C5    C48   S    
C4    C34   S    
C19   O18   A    
C48   H6    S    
C7    C8    A    
O3    Zn5   S    
C45   C56   A    
C20   O21   A    
O1    Zn1   S    
C16   O13   A    
C28   O15   A    
C8    C9    A    
C58   C59   A    
C57   H32   S    
C19   O19   A    
O23   Zn4   S    
C43   C44   S    
C26   O8    A    
C47   H2    S    
C54   H24   S    
C37   C38   A    
C3    C9    A    
C25   O7    A    
C1    O4    A    
C31   C32   A    
O8    Zn5   S    
C23   C34   S    
C47   H3    S    
C55   H29   S    
C49   H8    S    
C21   O22   A    
C51   H14   S    
C21   O23   A    
C36   C51   S    
C1    O1    A    
C12   C46   S    
C10   H23   S    
C40   Cl5   S    
C53   H21   S    
C32   H34   S    
C4    O11   A    
C42   C43   S    
O6    Zn5   S    
C51   H15   S    
C15   C17   A    
C52   H17   S    
C22   C30   S    
O14   Zn2   S    
C48   H5    S    
C4    O10   A    
C52   H19   S    
C24   O3    A    
C55   H28   S    
C3    C5    A    
C45   C54   S    
C6    C7    A    
C32   C33   A    
C52   H18   S    
O22   Zn3   S    
C6    C21   S    
C5    C6    A    
O10   Zn1   S    
C60   H1    S    
C22   O2    A    
C14   Cl3   S    
C8    C49   S    
C55   H27   S    
C49   H9    S    
C20   O20   A    
C53   H20   S    
C28   O16   A    
C42   C47   S    
C13   C26   S    
C18   C33   S    
C54   H26   S    
C10   C11   A    
C29   Cl6   S    
C40   C44   S    
C50   H13   S    
C24   C58   S    
C53   H22   S    
C14   C15   A    
C44   Cl7   S    
C51   H16   S    
C9    C28   S    
