data_mof_unit_43196.cif
_audit_creation_date              2012-12-10T19:16:26-0500
_audit_creation_method            fapswitch 2.2
_symmetry_space_group_name_H-M    P1
_symmetry_Int_Tables_number       1
_space_group_crystal_system       triclinic
_cell_length_a                    10.618278
_cell_length_b                    9.767558
_cell_length_c                    27.6997
_cell_angle_alpha                 89.739999
_cell_angle_beta                  89.019488
_cell_angle_gamma                 90.10918
_cell_volume                      2872.40869669

loop_
_atom_site_label
_atom_site_type_symbol
_atom_type_description
_atom_site_fract_x
_atom_site_fract_y
_atom_site_fract_z
_atom_type_partial_charge
C1    C     C_R   0.257847 0.500030 0.498364 0.849204
C2    C     C_R   0.408757 0.564164 0.974179 0.046065
C3    C     C_R   0.636506 0.512041 0.973843 0.045860
C4    C     C_R   0.500258 0.500360 0.406026 0.846490
C5    C     C_R   0.523577 0.538866 0.948749 0.072346
C6    C     C_R   0.301206 0.600154 0.947508 -0.215916
C7    C     C_R   0.304248 0.601850 0.897481 -0.132000
C8    C     C_R   0.414658 0.568820 0.872189 -0.022905
C9    C     C_R   0.525099 0.539012 0.897593 -0.050856
C10   C     C_R   0.636678 0.507979 0.871721 -0.023871
C11   C     C_R   0.634817 0.503678 0.821245 0.515236
C12   C     C_R   0.494146 0.628845 0.278236 -0.106318
C13   C     C_R   0.417231 0.564467 0.821748 0.512542
C14   C     C_R   0.456777 0.413010 0.725002 -0.088156
C15   C     C_R   0.450343 0.405285 0.675046 -0.160412
C16   C     C_R   0.742103 0.500216 0.497283 0.835099
C17   C     C_R   0.579672 0.609669 0.667686 -0.145271
C18   C     C_R   0.586080 0.617430 0.717641 -0.088237
C19   C     C_R   0.524013 0.519509 0.746300 0.291375
C20   C     C_R   0.404936 0.552597 0.025160 0.047062
C21   C     C_R   0.518562 0.530450 0.050331 0.070789
C22   C     C_R   0.635070 0.514581 0.025012 0.046838
C23   C     C_R   0.506638 0.506456 0.252757 0.327351
C24   C     C_R   0.290532 0.559752 0.051987 -0.214980
C25   C     C_R   0.742489 0.496441 0.102028 -0.136384
C26   C     C_R   0.746845 0.481087 0.946675 -0.214562
C27   C     C_R   0.746647 0.479254 0.896625 -0.131085
C28   C     C_R   0.501810 0.500231 0.593820 0.892072
C29   C     C_R   0.746406 0.501281 0.051992 -0.214742
C30   C     C_3   0.073378 0.635153 0.473400 -0.389688
C31   C     C_3   0.067873 0.488407 0.548987 -0.398944
C32   C     C_3   0.929519 0.635487 0.473139 -0.400562
C33   C     C_3   0.923854 0.488676 0.548641 -0.381691
C34   C     C_R   0.515536 0.523467 0.101438 -0.051977
C35   C     C_3   0.073525 0.378037 0.466475 -0.396254
C36   C     C_3   0.121167 0.500382 0.496791 0.180650
C37   C     C_3   0.878382 0.500651 0.496150 0.168265
C38   C     C_3   0.929305 0.378212 0.466063 -0.400751
C39   C     C_3   0.385194 0.080231 0.524116 -0.202391
C40   C     C_3   0.384265 0.917988 0.523534 -0.205152
C41   C     C_3   0.497063 0.081951 0.448885 -0.458535
C42   C     C_3   0.498685 0.919268 0.448866 -0.460365
C43   C     C_3   0.616629 0.080677 0.520137 0.587405
C44   C     C_3   0.615608 0.919490 0.520926 0.572579
C45   C     C_R   0.400203 0.534014 0.127029 -0.021088
C46   C     C_R   0.399305 0.526509 0.177455 0.503319
C47   C     C_R   0.622560 0.498893 0.177535 0.503725
C48   C     C_R   0.516202 0.381588 0.277233 -0.102356
C49   C     C_R   0.513342 0.379061 0.327428 -0.227706
C50   C     C_R   0.491714 0.626796 0.328343 -0.225172
C51   C     C_2   0.356958 0.140670 0.573400 1.008580
C52   C     C_2   0.350938 0.851365 0.571917 1.027653
C53   C     C_R   0.288544 0.550972 0.101936 -0.136804
C54   C     C_R   0.627775 0.505614 0.127079 -0.021170
C55   C     C_R   0.501418 0.501846 0.353295 -0.034283
C56   C     C_R   0.511388 0.503638 0.646170 -0.063259
F1    F     F_    0.639381 0.133825 0.565284 -0.571195
F2    F     F_    0.633702 0.869261 0.566950 -0.591307
H1    H     H_    0.482233 0.722846 0.347436 0.153465
H2    H     H_    0.100212 0.392599 0.566170 0.222857
H3    H     H_    0.105909 0.725920 0.493927 0.217426
H4    H     H_    0.101356 0.574430 0.571385 0.207288
H5    H     H_    0.895230 0.726059 0.493754 0.198139
H6    H     H_    0.887675 0.576025 0.570528 0.190092
H7    H     H_    0.486761 0.725357 0.259103 0.135379
H8    H     H_    0.896192 0.646081 0.435413 0.163900
H9    H     H_    0.887380 0.392632 0.565677 0.205414
H10   H     H_    0.111480 0.385233 0.428829 0.162820
H11   H     H_    0.106025 0.279125 0.481998 0.201004
H12   H     H_    0.525702 0.286931 0.257310 0.136251
H13   H     H_    0.896226 0.385641 0.428219 0.163558
H14   H     H_    0.894425 0.279262 0.481324 0.192571
H15   H     H_    0.302200 0.112169 0.502659 0.130894
H16   H     H_    0.302552 0.889257 0.500880 0.126895
H17   H     H_    0.412042 0.119181 0.429941 0.205731
H18   H     H_    0.415499 0.880260 0.429236 0.204991
H19   H     H_    0.698969 0.113993 0.497556 -0.008057
H20   H     H_    0.699147 0.884108 0.499655 -0.000687
H21   H     H_    0.579003 0.121201 0.427358 0.175318
H22   H     H_    0.582499 0.882723 0.428009 0.174320
H23   H     H_    0.830284 0.485395 0.121025 0.190577
H24   H     H_    0.198527 0.557151 0.120822 0.190319
H25   H     H_    0.394413 0.325733 0.659285 0.181727
H26   H     H_    0.408027 0.337698 0.747264 0.152887
H27   H     H_    0.218934 0.628317 0.878689 0.192886
H28   H     H_    0.213071 0.629746 0.964146 0.142099
H29   H     H_    0.199815 0.568678 0.035497 0.138893
H30   H     H_    0.521140 0.281519 0.345876 0.152884
H31   H     H_    0.226782 0.230022 0.616802 0.323836
H32   H     H_    0.219726 0.751751 0.612101 0.336942
H33   H     H_    0.834779 0.453835 0.962884 0.141587
H34   H     H_    0.627918 0.686385 0.645859 0.226268
H35   H     H_    0.833333 0.453916 0.877507 0.193113
H36   H     H_    0.637733 0.700157 0.734132 0.161495
H37   H     H_    0.839019 0.496627 0.035666 0.138688
H38   H     H_    0.111024 0.645161 0.435782 0.161211
N1    N     N_R   0.509487 0.509501 0.201387 -0.358836
N2    N     N_R   0.525773 0.530374 0.797566 -0.355973
N3    N     N_3   0.499750 0.138610 0.498940 -0.139346
N4    N     N_3   0.499750 0.861390 0.498940 -0.137996
O1    O     O_R   0.314910 0.616040 0.499990 -0.626310
O2    O     O_2   0.312197 0.593653 0.796935 -0.545978
O3    O     O_2   0.729374 0.482820 0.202671 -0.554040
O4    O     O_2   0.740372 0.471261 0.795989 -0.542817
O5    O     O_2   0.430548 0.128108 0.606490 -0.512186
O6    O     O_R   0.239820 0.201173 0.581992 -0.857132
O7    O     O_2   0.421622 0.858085 0.606155 -0.509688
O8    O     O_R   0.233399 0.788853 0.578160 -0.853686
O9    O     O_R   0.314910 0.383960 0.499990 -0.627824
O10   O     O_R   0.500140 0.616020 0.428740 -0.638338
O11   O     O_R   0.500140 0.383980 0.428740 -0.638599
O12   O     O_R   0.685320 0.616040 0.499970 -0.618909
O13   O     O_R   0.685320 0.383960 0.499970 -0.611534
O14   O     O_R   0.500090 0.616050 0.571230 -0.565382
O15   O     O_R   0.500090 0.383950 0.571230 -0.553237
O16   O     O_2   0.289483 0.536017 0.202494 -0.553849
Zn1   Zn    Zn3+2 0.500150 0.654960 0.499980 0.972655
Zn2   Zn    Zn3+2 0.500150 0.345040 0.499980 0.979869

loop_
_geom_bond_atom_site_label_1
_geom_bond_atom_site_label_2
_ccdc_geom_bond_type
C10   C27   A    
C39   C51   S    
C42   H22   S    
C8    C13   A    
C22   C29   A    
C41   C42   S    
C35   C36   S    
C31   H4    S    
C14   H26   S    
C16   O13   A    
C28   C56   S    
C7    C8    A    
C45   C46   A    
C12   C23   A    
C16   O12   A    
C26   C27   A    
C11   N2    A    
C50   H1    S    
C43   N3    S    
C33   H6    S    
O12   Zn1   S    
C18   C19   A    
C13   N2    A    
C30   H38   S    
C1    O9    A    
C20   C24   A    
C52   O7    D    
C44   F2    S    
C8    C9    A    
H31   O6    S    
C41   N3    S    
C11   O4    S    
C9    C10   A    
C16   C37   S    
C45   C53   A    
C21   C22   A    
C25   H23   S    
C49   H30   S    
C2    C6    A    
C17   H34   S    
O10   Zn1   S    
C19   N2    S    
O9    Zn2   S    
C25   C29   A    
C38   H14   S    
C47   O3    S    
C2    C20   A    
C35   C38   S    
C25   C54   A    
C39   C40   S    
C29   H37   S    
C15   H25   S    
C21   C34   A    
C24   C53   A    
C40   C52   S    
C33   C37   S    
C53   H24   S    
C31   H2    S    
C43   C44   S    
C5    C9    A    
C37   C38   S    
C28   O15   A    
C42   N4    S    
C41   H17   S    
C39   N3    S    
C51   O5    D    
O15   Zn2   S    
C31   C33   S    
C17   C18   A    
C34   C45   A    
C32   C37   S    
C17   C56   A    
C52   O8    S    
C28   O14   A    
C47   C54   A    
C48   C49   A    
C23   N1    S    
C4    O11   A    
C34   C54   A    
O11   Zn2   S    
C4    C55   S    
C18   H36   S    
C27   H35   S    
C2    C5    A    
C1    O1    A    
C33   H9    S    
C32   H8    S    
C41   H21   S    
C4    O10   A    
C38   H13   S    
C23   C48   A    
C31   C36   S    
C14   C19   A    
C46   N1    A    
C3    C26   A    
C32   H5    S    
C48   H12   S    
C3    C5    A    
C6    H28   S    
C40   N4    S    
C12   C50   A    
C6    C7    A    
C46   O16   S    
C43   H19   S    
C12   H7    S    
C42   H18   S    
C50   C55   A    
C47   N1    A    
C30   C36   S    
O1    Zn1   S    
C15   C56   A    
C44   H20   S    
C26   H33   S    
H32   O8    S    
C49   C55   A    
N3    Zn2   S    
C30   C32   S    
C44   N4    S    
C7    H27   S    
C35   H10   S    
C51   O6    S    
C40   H16   S    
C39   H15   S    
C24   H29   S    
O14   Zn1   S    
C10   C11   A    
C43   F1    S    
O13   Zn2   S    
C20   C21   A    
C35   H11   S    
C30   H3    S    
C14   C15   A    
C3    C22   A    
N4    Zn1   S    
C13   O2    S    
C1    C36   S    
