data_mof_unit_43979.cif
_audit_creation_date              2012-12-10T18:06:41-0500
_audit_creation_method            fapswitch 2.2
_symmetry_space_group_name_H-M    P1
_symmetry_Int_Tables_number       1
_space_group_crystal_system       triclinic
_cell_length_a                    12.672671
_cell_length_b                    13.315259
_cell_length_c                    15.618114
_cell_angle_alpha                 87.962165
_cell_angle_beta                  98.05106
_cell_angle_gamma                 95.606209
_cell_volume                      2596.30209025

loop_
_atom_site_label
_atom_site_type_symbol
_atom_type_description
_atom_site_fract_x
_atom_site_fract_y
_atom_site_fract_z
_atom_type_partial_charge
C1    C     C_R   0.446078 0.308322 0.513455 0.958338
C2    C     C_R   0.462925 0.533981 0.103250 -0.053588
C3    C     C_R   0.412462 0.623184 0.077419 -0.139546
C4    C     C_R   0.526390 0.493524 0.047487 -0.030600
C5    C     C_R   0.518877 0.527897 0.961261 -0.056568
C6    C     C_R   0.473468 0.619870 0.937187 0.458553
C7    C     C_R   0.419937 0.666645 0.994840 0.284310
C8    C     C_R   0.601688 0.424072 0.075985 -0.197923
C9    C     C_R   0.662112 0.383346 0.019381 0.562463
C10   C     C_R   0.646377 0.410888 0.931111 -0.122427
C11   C     C_R   0.564707 0.473944 0.902225 -0.124703
C12   C     C_R   0.437240 0.515532 0.336758 0.968592
C13   C     C_R   0.705081 0.374465 0.869768 0.562922
C14   C     C_R   0.681510 0.405119 0.782462 -0.364057
C15   C     C_R   0.523813 0.474685 0.815074 0.444451
C16   C     C_R   0.720402 0.941502 0.460834 0.399857
C17   C     C_R   0.593240 0.799962 0.493199 -0.354438
C18   C     C_R   0.361849 0.173802 0.607072 0.233972
C19   C     C_R   0.380394 0.086997 0.658826 0.405530
C20   C     C_R   0.451344 0.020115 0.637806 0.347622
C21   C     C_R   0.502905 0.039092 0.563439 -0.114774
C22   C     C_R   0.491668 0.130478 0.516578 -0.215593
C23   C     C_R   0.556065 0.691620 0.491520 0.993627
C24   C     C_R   0.565452 0.969853 0.531476 -0.076781
C25   C     C_R   0.650692 0.007606 0.486209 -0.275120
C26   C     C_R   0.649537 0.107083 0.454221 0.505276
C27   C     C_R   0.554007 0.151512 0.449583 0.386468
C28   C     C_R   0.530042 0.867381 0.525770 0.507975
C29   C     C_R   0.691305 0.837460 0.463537 0.310109
C30   C     C_R   0.425170 0.200870 0.540328 -0.216412
C31   C     C_R   0.141321 0.594909 0.656617 0.404858
C32   C     C_R   0.763186 0.427928 0.370514 0.525428
C33   C     C_R   0.847884 0.474354 0.329149 0.183808
C34   C     C_R   0.560749 0.480457 0.663037 0.954015
C35   C     C_R   0.944288 0.505462 0.378889 0.348839
C36   C     C_R   0.951687 0.496405 0.469893 -0.155608
C37   C     C_R   0.853537 0.486914 0.505794 -0.091324
C38   C     C_R   0.049733 0.516891 0.524686 -0.076942
C39   C     C_R   0.048893 0.544252 0.610885 -0.147948
C40   C     C_R   0.953077 0.528832 0.646470 0.483913
C41   C     C_R   0.856853 0.521741 0.591126 0.345688
C42   C     C_R   0.149688 0.508930 0.497983 0.024710
C43   C     C_R   0.235761 0.602478 0.618551 0.451000
C44   C     C_R   0.408432 0.542821 0.245549 -0.247457
C45   C     C_R   0.589887 0.454684 0.754589 -0.209855
C46   C     C_R   0.357832 0.668528 0.135784 -0.124374
C47   C     C_R   0.359148 0.631389 0.220217 0.323099
C48   C     C_R   0.447126 0.488049 0.184104 0.463517
H1    H     H_    0.157205 0.467279 0.441333 0.188988
H2    H     H_    0.729958 0.384497 0.735489 0.179159
H3    H     H_    0.318446 0.736239 0.118108 0.238925
H4    H     H_    0.619474 0.405372 0.143195 0.243724
N1    N     N_R   0.239390 0.551900 0.544730 -0.169935
N2    N     N_R   0.759950 0.448600 0.455730 -0.170484
O1    O     O_R   0.374950 0.371210 0.521360 -0.576216
O2    O     O_R   0.542050 0.338030 0.492790 -0.599484
O3    O     O_R   0.368720 0.526070 0.390200 -0.591165
O4    O     O_R   0.535820 0.492890 0.361630 -0.531663
O5    O     O_R   0.457950 0.661970 0.507210 -0.540406
O6    O     O_R   0.625050 0.628790 0.478640 -0.541245
O7    O     O_R   0.464180 0.507110 0.638370 -0.530995
O8    O     O_R   0.631280 0.473930 0.609800 -0.624708
Zn1   Zn    Zn3+2 0.388420 0.522150 0.519080 1.098152
Zn2   Zn    Zn3+2 0.611580 0.477850 0.480920 1.073114
Cl1   Cl    Cl    0.365195 0.781375 0.961579 -0.554476
O9    O     O_3   0.790262 0.317603 0.896451 -0.555771
C49   C     C_3   0.775314 0.225123 0.852682 -0.269609
H5    H     H_    0.798893 0.235179 0.786885 0.141978
H6    H     H_    0.691543 0.189365 0.848830 0.131885
H7    H     H_    0.828092 0.171936 0.889129 0.218781
Cl2   Cl    Cl    0.773693 0.759242 0.417551 -0.413797
O10   O     O_3   0.735787 0.158368 0.422964 -0.580370
C50   C     C_3   0.801277 0.206034 0.493543 -0.228732
H8    H     H_    0.833941 0.149760 0.542064 0.194466
H9    H     H_    0.870350 0.250237 0.469441 0.179156
H10   H     H_    0.757203 0.259238 0.525312 0.133836
Cl3   Cl    Cl    0.838536 0.985589 0.416520 -0.438569
O11   O     O_3   0.427626 0.834953 0.542797 -0.528130
C51   C     C_3   0.351792 0.859759 0.471738 -0.062405
H11   H     H_    0.324949 0.935210 0.480122 0.156429
H12   H     H_    0.280569 0.803921 0.469967 0.227816
H13   H     H_    0.382041 0.858116 0.408200 0.155837
Cl4   Cl    Cl    0.264014 0.249518 0.633081 -0.527248
Cl5   Cl    Cl    0.484637 0.921285 0.712280 -0.486055
O12   O     O_3   0.328106 0.066805 0.730467 -0.501684
C52   C     C_3   0.388141 0.117846 0.801776 -0.130819
H14   H     H_    0.394154 0.201129 0.790982 0.167093
H15   H     H_    0.469743 0.092085 0.816946 0.141049
H16   H     H_    0.346784 0.100726 0.859383 0.207288
Cl6   Cl    Cl    0.498277 0.206419 0.351402 -0.573056
Cl7   Cl    Cl    0.348495 0.678929 0.664517 -0.381560
Cl8   Cl    Cl    0.382641 0.466030 0.789062 -0.616176
O13   O     O_3   0.951457 0.539643 0.733930 -0.538192
C53   C     C_3   0.969473 0.445550 0.775051 -0.246709
H17   H     H_    0.049380 0.422283 0.767311 0.156462
H18   H     H_    0.908028 0.385140 0.749164 0.136256
H19   H     H_    0.965751 0.451721 0.845172 0.237943
O14   O     O_3   0.131405 0.655671 0.724979 -0.533702
C54   C     C_3   0.185616 0.619215 0.803312 0.004431
H20   H     H_    0.188573 0.536148 0.806194 0.131611
H21   H     H_    0.142964 0.638615 0.856952 0.192256
H22   H     H_    0.267627 0.657262 0.815618 0.254749
O15   O     O_3   0.680677 0.367501 0.324645 -0.519825
C55   C     C_3   0.724106 0.293749 0.279273 -0.084927
H23   H     H_    0.800434 0.268487 0.313320 0.162892
H24   H     H_    0.740723 0.321564 0.215191 0.186533
H25   H     H_    0.665993 0.226658 0.267618 0.230888
Cl9   Cl    Cl    0.044043 0.575100 0.325937 -0.430681
Cl10  Cl    Cl    0.828399 0.504675 0.217163 -0.491900
Cl11  Cl    Cl    0.788344 0.624771 0.611985 -0.472211
O16   O     O_3   0.734348 0.315178 0.050915 -0.544222
C56   C     C_3   0.677584 0.219067 0.056893 -0.276258
H26   H     H_    0.735549 0.163550 0.080131 0.217688
H27   H     H_    0.635236 0.194206 0.992800 0.153151
H28   H     H_    0.619193 0.217863 0.103978 0.145446
Cl12  Cl    Cl    0.301770 0.701295 0.292175 -0.558349
O17   O     O_3   0.465918 0.388675 0.203935 -0.574262
C57   C     C_3   0.379028 0.325717 0.162573 -0.210182
H29   H     H_    0.303683 0.337262 0.188396 0.178275
H30   H     H_    0.395276 0.245930 0.175712 0.227651
H31   H     H_    0.368670 0.337457 0.091082 0.145111
O18   O     O_3   0.484750 0.666975 0.858058 -0.542791
C58   C     C_3   0.586333 0.722128 0.864201 -0.068284
H32   H     H_    0.591771 0.785803 0.909324 0.176833
H33   H     H_    0.597876 0.754273 0.799351 0.235722
H34   H     H_    0.652415 0.673438 0.884421 0.122773

loop_
_geom_bond_atom_site_label_1
_geom_bond_atom_site_label_2
_ccdc_geom_bond_type
C9    O16   S    
O13   C53   S    
C26   O10   S    
C50   H8    S    
C35   C36   A    
C40   O13   S    
C4    C8    A    
C55   H24   S    
C58   H32   S    
C14   H2    S    
O12   C52   S    
C23   O5    A    
C26   C27   A    
C17   C23   S    
C31   C43   A    
C36   C37   A    
C1    O2    A    
C38   C42   A    
C3    C7    A    
C42   N1    A    
C38   C39   A    
C52   H15   S    
C58   H33   S    
C34   O8    A    
C17   C29   A    
C27   Cl6   S    
C18   C19   A    
C31   O14   S    
C32   N2    A    
O7    Zn1   S    
C57   H29   S    
C55   H23   S    
O8    Zn2   S    
C35   Cl9   S    
C15   Cl8   S    
C11   C15   A    
C43   N1    A    
O16   C56   S    
C8    C9    A    
O1    Zn1   S    
O2    Zn2   S    
C18   C30   A    
C28   O11   S    
C9    C10   A    
C8    H4    S    
C44   C47   A    
C12   O4    A    
O9    C49   S    
C21   C22   A    
C37   C41   A    
C50   H9    S    
C47   Cl12  S    
C56   H27   S    
C56   H26   S    
O3    Zn1   S    
C14   C45   A    
C13   O9    S    
O4    Zn2   S    
C23   O6    A    
C49   H5    S    
C24   C25   A    
C39   C40   A    
C51   H12   S    
C52   H14   S    
O10   C50   S    
C58   H34   S    
C53   H19   S    
C2    C48   A    
C25   C26   A    
C46   H3    S    
C10   C13   A    
C34   O7    A    
C43   Cl7   S    
C49   H6    S    
C57   H31   S    
C2    C4    A    
C7    Cl1   S    
C54   H20   S    
C18   Cl4   S    
C32   O15   S    
C34   C45   S    
C53   H18   S    
C6    C7    A    
C12   O3    A    
C40   C41   A    
C54   H21   S    
C22   C27   A    
C20   Cl5   S    
C50   H10   S    
C33   Cl10  S    
C15   C45   A    
C16   C25   A    
C46   C47   A    
C22   C30   A    
O11   C51   S    
C17   C28   A    
C24   C28   A    
C4    C5    A    
C19   O12   S    
C52   H16   S    
C51   H13   S    
C5    C11   A    
C48   O17   S    
C37   N2    A    
C3    C46   A    
O5    Zn1   S    
O6    Zn2   S    
C41   Cl11  S    
C49   H7    S    
C32   C33   A    
C19   C20   A    
C36   C38   A    
C2    C3    A    
C16   C29   A    
C12   C44   S    
O17   C57   S    
N1    Zn1   S    
C5    C6    A    
N2    Zn2   S    
C1    C30   S    
C33   C35   A    
C31   C39   A    
C56   H28   S    
C1    O1    A    
C53   H17   S    
C57   H30   S    
C10   C11   A    
C42   H1    S    
C51   H11   S    
C54   H22   S    
C20   C21   A    
O14   C54   S    
C21   C24   A    
O15   C55   S    
C6    O18   S    
C16   Cl3   S    
O18   C58   S    
C13   C14   A    
C55   H25   S    
C44   C48   A    
C29   Cl2   S    
