data_mof_unit_65120.cif
_audit_creation_date              2012-12-11T17:18:11-0500
_audit_creation_method            fapswitch 2.2
_symmetry_space_group_name_H-M    P1
_symmetry_Int_Tables_number       1
_space_group_crystal_system       triclinic
_cell_length_a                    7.333693
_cell_length_b                    12.386613
_cell_length_c                    27.24992
_cell_angle_alpha                 90.0
_cell_angle_beta                  94.064226
_cell_angle_gamma                 90.000028
_cell_volume                      2469.14730465

loop_
_atom_site_label
_atom_site_type_symbol
_atom_type_description
_atom_site_fract_x
_atom_site_fract_y
_atom_site_fract_z
_atom_type_partial_charge
O1    O     O_R   0.366550 0.651960 0.572490 -0.534384
O2    O     O_R   0.633450 0.348040 0.427510 -0.534384
O3    O     O_R   0.133450 0.151960 0.427510 -0.534384
O4    O     O_R   0.866550 0.848040 0.572490 -0.534385
O5    O     O_R   0.712370 0.639230 0.672140 -0.528071
O6    O     O_R   0.287630 0.360770 0.327860 -0.528070
O7    O     O_R   0.787630 0.139230 0.327860 -0.528070
O8    O     O_R   0.212370 0.860770 0.672140 -0.528071
O9    O     O_R   0.882770 0.848480 0.672480 -0.537475
O10   O     O_R   0.117230 0.151520 0.327520 -0.537475
O11   O     O_R   0.617230 0.348480 0.327520 -0.537475
O12   O     O_R   0.382770 0.651520 0.672480 -0.537475
C1    C     C_R   0.548563 0.614418 0.688139 0.695318
C2    C     C_R   0.451436 0.385582 0.311861 0.695319
C3    C     C_R   0.951436 0.114418 0.311861 0.695319
C4    C     C_R   0.048564 0.885582 0.688139 0.695320
O13   O     O_R   0.696320 0.639050 0.572850 -0.531682
O14   O     O_R   0.303680 0.360950 0.427150 -0.531682
O15   O     O_R   0.803680 0.139050 0.427150 -0.531682
O16   O     O_R   0.196320 0.860950 0.572850 -0.531682
C5    C     C_R   0.523950 0.613288 0.556586 0.715821
C6    C     C_R   0.476050 0.386712 0.443414 0.715820
C7    C     C_R   0.976050 0.113288 0.443414 0.715819
C8    C     C_R   0.023950 0.886712 0.556586 0.715821
O17   O     O_3   0.541150 0.818870 0.622480 -0.375604
O18   O     O_3   0.458850 0.181130 0.377520 -0.375604
O19   O     O_3   0.958850 0.318870 0.377520 -0.375604
O20   O     O_3   0.041150 0.681130 0.622480 -0.375604
V1    V     V_3+5 0.815990 0.737490 0.622490 1.474830
V2    V     V_3+5 0.184010 0.262510 0.377510 1.474831
V3    V     V_3+5 0.684010 0.237490 0.377510 1.474831
V4    V     V_3+5 0.315990 0.762510 0.622490 1.474830
C9    C     C_R   0.988908 0.175007 0.884090 0.538279
C10   C     C_R   0.011099 0.824991 0.115910 0.538280
C11   C     C_R   0.511096 0.675007 0.115910 0.538279
C12   C     C_R   0.488900 0.324992 0.884091 0.538278
O21   O     O_2   0.957371 0.068963 0.890759 -0.542856
O22   O     O_2   0.042642 0.931034 0.109241 -0.542856
O23   O     O_2   0.542636 0.568964 0.109240 -0.542856
O24   O     O_2   0.457355 0.431035 0.890760 -0.542855
N1    N     N_R   0.028628 0.213106 0.838450 -0.542026
N2    N     N_R   0.971373 0.786893 0.161550 -0.542024
N3    N     N_R   0.471372 0.713105 0.161549 -0.542026
N4    N     N_R   0.528625 0.286894 0.838451 -0.542024
C13   C     C_R   0.064301 0.321408 0.833194 0.629091
C14   C     C_R   0.935695 0.678592 0.166807 0.629087
C15   C     C_R   0.435696 0.821407 0.166806 0.629091
C16   C     C_R   0.564305 0.178593 0.833194 0.629085
C17   C     C_R   0.956413 0.150056 0.749631 0.438442
C18   C     C_R   0.043585 0.849943 0.250370 0.438443
C19   C     C_R   0.543584 0.650056 0.250369 0.438441
C20   C     C_R   0.456413 0.349944 0.749631 0.438442
C21   C     C_R   0.954307 0.065688 0.715473 -0.156963
C22   C     C_R   0.045690 0.934311 0.284528 -0.156961
C23   C     C_R   0.545690 0.565689 0.284528 -0.156959
C24   C     C_R   0.454309 0.434311 0.715472 -0.156960
C25   C     C_R   0.148495 0.958480 0.771211 -0.181064
C26   C     C_R   0.851510 0.041521 0.228789 -0.181068
C27   C     C_R   0.351510 0.458478 0.228789 -0.181070
C28   C     C_R   0.648487 0.541522 0.771212 -0.181069
C29   C     C_R   0.143366 0.039504 0.806825 -0.115111
C30   C     C_R   0.856641 0.960498 0.193174 -0.115118
C31   C     C_R   0.356639 0.539501 0.193174 -0.115116
C32   C     C_R   0.643356 0.460499 0.806827 -0.115119
C33   C     C_R   0.043964 0.136235 0.797898 0.311477
C34   C     C_R   0.956038 0.863765 0.202102 0.311481
C35   C     C_R   0.456036 0.636234 0.202101 0.311477
C36   C     C_R   0.543959 0.363767 0.797899 0.311480
C37   C     C_R   0.009565 0.356173 0.918784 -0.049726
C38   C     C_R   0.990434 0.643825 0.081217 -0.049723
C39   C     C_R   0.490438 0.856173 0.081217 -0.049727
C40   C     C_R   0.509570 0.143827 0.918784 -0.049723
C41   C     C_R   0.980182 0.245118 0.924648 -0.039345
C42   C     C_R   0.019824 0.754878 0.075353 -0.039346
C43   C     C_R   0.519824 0.745120 0.075352 -0.039345
C44   C     C_R   0.480178 0.254880 0.924649 -0.039346
C45   C     C_R   0.943884 0.205692 0.971008 -0.114075
C46   C     C_R   0.056133 0.794303 0.028993 -0.114078
C47   C     C_R   0.556131 0.705695 0.028993 -0.114076
C48   C     C_R   0.443872 0.294305 0.971008 -0.114077
C49   C     C_R   0.049661 0.394413 0.872360 -0.043035
C50   C     C_R   0.950331 0.605586 0.127640 -0.043041
C51   C     C_R   0.450336 0.894413 0.127640 -0.043037
C52   C     C_R   0.549670 0.105588 0.872361 -0.043045
C53   C     C_R   0.049501 0.970258 0.725845 -0.078443
C54   C     C_R   0.950500 0.029741 0.274155 -0.078440
C55   C     C_R   0.450499 0.470258 0.274155 -0.078441
C56   C     C_R   0.549500 0.529742 0.725845 -0.078438
H1    H     H_    0.225738 0.885428 0.779598 0.117930
H2    H     H_    0.774271 0.114575 0.220401 0.117929
H3    H     H_    0.274272 0.385424 0.220401 0.117930
H4    H     H_    0.725725 0.614576 0.779599 0.117929
H5    H     H_    0.215949 0.025726 0.842069 0.154298
H6    H     H_    0.784062 0.974276 0.157930 0.154300
H7    H     H_    0.284060 0.525722 0.157930 0.154301
H8    H     H_    0.715933 0.474279 0.842071 0.154300
H9    H     H_    0.920590 0.120393 0.976796 0.166811
H10   H     H_    0.079438 0.879601 0.023206 0.166811
H11   H     H_    0.579432 0.620396 0.023205 0.166811
H12   H     H_    0.420567 0.379603 0.976795 0.166811
C57   C     C_R   0.963530 0.459486 0.047269 0.036217
C58   C     C_R   0.036463 0.540512 0.952732 0.036221
C59   C     C_R   0.536475 0.959488 0.952732 0.036217
C60   C     C_R   0.463538 0.040513 0.047269 0.036219
C61   C     C_R   0.032478 0.612580 0.993481 0.022311
C62   C     C_R   0.967524 0.387417 0.006520 0.022312
C63   C     C_R   0.467527 0.112582 0.006520 0.022312
C64   C     C_R   0.532485 0.887419 0.993481 0.022311
C65   C     C_R   0.996229 0.571588 0.040515 0.068863
C66   C     C_R   0.003767 0.428410 0.959486 0.068862
C67   C     C_R   0.503775 0.071590 0.959486 0.068865
C68   C     C_R   0.496236 0.928411 0.040515 0.068863
C69   C     C_R   0.927286 0.423588 0.094924 -0.157005
C70   C     C_R   0.072693 0.576412 0.905076 -0.157010
C71   C     C_R   0.572716 0.923590 0.905077 -0.157003
C72   C     C_R   0.427300 0.076412 0.094924 -0.157011
C73   C     C_R   0.920278 0.495080 0.134027 -0.084660
C74   C     C_R   0.079705 0.504921 0.865973 -0.084661
C75   C     C_R   0.579723 0.995081 0.865974 -0.084659
C76   C     C_R   0.420289 0.004920 0.134027 -0.084659
O25   O     O_2   0.878291 0.640351 0.209010 -0.508931
O26   O     O_2   0.121703 0.359649 0.790990 -0.508930
O27   O     O_2   0.621707 0.140353 0.790991 -0.508931
O28   O     O_2   0.378290 0.859647 0.209009 -0.508931
C77   C     C_R   0.937151 0.274940 0.011001 -0.169571
C78   C     C_R   0.062867 0.725054 0.989000 -0.169570
C79   C     C_R   0.562867 0.774944 0.989000 -0.169570
C80   C     C_R   0.437139 0.225056 0.011001 -0.169569
H13   H     H_    0.115894 0.923568 0.320573 0.153247
H14   H     H_    0.884100 0.076431 0.679428 0.153249
H15   H     H_    0.384107 0.423567 0.679427 0.153248
H16   H     H_    0.615893 0.576433 0.320572 0.153248
H17   H     H_    0.890085 0.462939 0.169536 0.159132
H18   H     H_    0.109889 0.537063 0.830464 0.159130
H19   H     H_    0.609914 0.962940 0.830465 0.159131
H20   H     H_    0.390100 0.037061 0.169536 0.159131
H21   H     H_    0.901837 0.340486 0.103592 0.111717
H22   H     H_    0.098123 0.659516 0.896408 0.111715
H23   H     H_    0.598159 0.840486 0.896410 0.111715
H24   H     H_    0.401865 0.159516 0.103592 0.111715
H25   H     H_    0.908102 0.236698 0.045009 0.129477
H26   H     H_    0.091935 0.763292 0.954993 0.129478
H27   H     H_    0.591928 0.736705 0.954992 0.129477
H28   H     H_    0.408075 0.263294 0.045008 0.129477
C81   C     C_1   0.993406 0.033259 0.483300 -0.152471
C82   C     C_1   0.006594 0.966741 0.516699 -0.152470
C83   C     C_1   0.506594 0.533259 0.516700 -0.152470
C84   C     C_1   0.493406 0.466741 0.483300 -0.152471
Br1   Br    Br    0.149768 0.720007 0.277379 -0.480758
Br2   Br    Br    0.850229 0.279992 0.722622 -0.480756
Br3   Br    Br    0.350230 0.220007 0.722622 -0.480758
Br4   Br    Br    0.649766 0.779993 0.277378 -0.480759

loop_
_geom_bond_atom_site_label_1
_geom_bond_atom_site_label_2
_ccdc_geom_bond_type
C26   C30   A    
N4    C16   A    
C58   C66   A    
O1    C5    A    
O13   V1    S    
C11   O23   S    
C83   C84   T    
C10   N2    A    
C40   C44   A    
C73   H17   S    
C16   O27   S    
C81   C82   T    
C28   C56   A    
C7    C81   S    
C62   C77   A    
C11   C43   A    
C18   C22   A    
C17   C33   A    
C61   C78   A    
C32   C36   A    
C47   H11   S    
O20   V1    S    
O9    C4    A    
C63   C80   A    
O10   C3    A    
C52   C75   A    
C62   C66   A    
O4    C8    A    
O11   C2    A    
C29   H5    S    
C24   C56   A    
C57   C65   A    
C31   H7    S    
C57   C69   A    
C58   C61   A    
C59   C67   A    
N2    C14   A    
C61   C65   A    
C12   C44   A    
C60   C72   A    
O3    C7    A    
O16   C8    A    
C77   H25   S    
C46   H10   S    
C14   O25   S    
C45   H9    S    
C59   C64   A    
O14   V2    S    
C15   C51   A    
C11   N3    A    
C72   C76   A    
O5    C1    A    
O4    V1    S    
C74   H18   S    
C12   N4    A    
O9    V1    S    
O17   V4    S    
O7    C3    A    
C40   C67   A    
O15   V3    S    
O18   V3    S    
O8    C4    A    
C14   C50   A    
C48   H12   S    
O19   V2    S    
C26   C54   A    
C39   C51   A    
C28   H4    S    
C31   C35   A    
C40   C52   A    
O7    V3    S    
C30   C34   A    
O8    V4    S    
C12   O24   S    
C32   H8    S    
C22   C54   A    
C19   C35   A    
C48   C80   A    
C49   C74   A    
C78   H26   S    
O1    V4    S    
O13   C5    A    
C16   C52   A    
O2    V3    S    
C76   H20   S    
C51   C76   A    
O3    V2    S    
O15   C7    A    
C38   C42   A    
C59   C71   A    
C58   C70   A    
C38   C65   A    
C29   C33   A    
O6    C2    A    
C26   H2    S    
C37   C66   A    
O10   V2    S    
C39   C68   A    
C75   H19   S    
C79   H27   S    
C37   C41   A    
C18   C34   A    
C70   C74   A    
C25   H1    S    
C10   C42   A    
C3    C54   S    
C69   C73   A    
C17   Br2   S    
C9    C41   A    
O6    V2    S    
C6    C84   S    
C19   Br4   S    
C71   C75   A    
C30   H6    S    
C4    C53   S    
C69   H21   S    
C27   H3    S    
N4    C36   S    
C46   C78   A    
O5    V1    S    
C5    C83   S    
C45   C77   A    
C60   C68   A    
O16   V4    S    
C57   C62   A    
C22   H13   S    
C47   C79   A    
N1    C13   A    
C10   O22   S    
C63   C67   A    
C13   C49   A    
C44   C48   A    
C71   H23   S    
C20   C36   A    
C2    C55   S    
N1    C33   S    
C25   C29   A    
C13   O26   S    
C27   C31   A    
C80   H28   S    
C28   C32   A    
C9    N1    A    
O14   C6    A    
C8    C82   S    
O2    C6    A    
C39   C43   A    
C18   Br1   S    
C15   O28   S    
C43   C47   A    
C20   Br3   S    
C17   C21   A    
C1    C56   S    
C25   C53   A    
C9    O21   S    
C19   C23   A    
C70   H22   S    
C64   C79   A    
C23   C55   A    
C38   C50   A    
C27   C55   A    
C24   H15   S    
C37   C49   A    
O11   V3    S    
C64   C68   A    
O12   C1    A    
N3    C35   S    
C23   H16   S    
C42   C46   A    
N2    C34   S    
C41   C45   A    
C21   C53   A    
C21   H14   S    
C50   C73   A    
N3    C15   A    
C60   C63   A    
O12   V4    S    
C20   C24   A    
C72   H24   S    
