data_mof_unit_57412.cif
_audit_creation_date              2012-12-10T17:40:58-0500
_audit_creation_method            fapswitch 2.2
_symmetry_space_group_name_H-M    P1
_symmetry_Int_Tables_number       1
_space_group_crystal_system       triclinic
_cell_length_a                    14.806425
_cell_length_b                    15.558337
_cell_length_c                    9.917074
_cell_angle_alpha                 91.013191
_cell_angle_beta                  87.630221
_cell_angle_gamma                 89.916141
_cell_volume                      2282.21422167

loop_
_atom_site_label
_atom_site_type_symbol
_atom_type_description
_atom_site_fract_x
_atom_site_fract_y
_atom_site_fract_z
_atom_type_partial_charge
C1    C     C_R   0.373690 0.886622 0.500811 0.897867
C2    C     C_R   0.761938 0.181458 0.395561 0.190106
C3    C     C_R   0.244741 0.296655 0.379057 0.211668
C4    C     C_R   0.265794 0.679135 0.434784 0.138443
C5    C     C_R   0.686616 0.814363 0.487856 -0.146559
C6    C     C_R   0.689615 0.184960 0.493236 -0.160675
C7    C     C_R   0.181134 0.305895 0.488260 -0.172628
C8    C     C_R   0.182058 0.689338 0.503487 -0.149426
C9    C     C_R   0.335282 0.993635 0.148637 -0.113504
C10   C     C_R   0.834515 0.503732 0.148651 -0.117475
C11   C     C_R   0.254250 0.987052 0.083423 -0.169935
C12   C     C_R   0.389579 0.127627 0.503926 0.911175
C13   C     C_R   0.753977 0.510802 0.082047 -0.202534
C14   C     C_R   0.254479 0.985846 0.943984 -0.211004
C15   C     C_R   0.755069 0.516957 0.943194 -0.188566
C16   C     C_R   0.335587 0.991952 0.868951 -0.127285
C17   C     C_R   0.836556 0.511657 0.869315 -0.120725
C18   C     C_R   0.418919 0.995599 0.932176 0.179690
C19   C     C_R   0.919172 0.505542 0.932653 0.165576
C20   C     C_R   0.418872 0.996546 0.076609 0.161278
C21   C     C_R   0.918745 0.503095 0.076978 0.175503
C22   C     C_R   0.577631 0.000075 0.066323 -0.088117
C23   C     C_R   0.888735 0.373057 0.502601 0.906648
C24   C     C_R   0.077756 0.500980 0.066511 -0.065149
C25   C     C_R   0.621159 0.119287 0.497829 0.896374
C26   C     C_R   0.621326 0.881605 0.496633 0.925720
C27   C     C_R   0.119649 0.619863 0.500077 0.920890
C28   C     C_R   0.117597 0.377032 0.496264 0.890984
C29   C     C_R   0.577737 0.001397 0.923467 -0.059379
C30   C     C_R   0.077806 0.499013 0.923448 -0.064381
C31   C     C_R   0.286236 0.193175 0.762747 0.194330
C32   C     C_R   0.179861 0.919718 0.596700 0.085549
C33   C     C_R   0.681000 0.581199 0.427612 0.087963
C34   C     C_R   0.874235 0.614454 0.503054 0.896540
C35   C     C_R   0.785930 0.311036 0.762609 0.207126
C36   C     C_R   0.212283 0.181049 0.852269 -0.166660
C37   C     C_R   0.102218 0.926827 0.680845 -0.124987
C38   C     C_R   0.605128 0.571485 0.349939 -0.130733
C39   C     C_R   0.710911 0.323888 0.850775 -0.172033
C40   C     C_R   0.562179 0.642977 0.301976 -0.164490
C41   C     C_R   0.624756 0.307834 0.807182 -0.119481
C42   C     C_R   0.125545 0.196902 0.811758 -0.148597
C43   C     C_R   0.053648 0.854102 0.715874 -0.154793
C44   C     C_R   0.588487 0.724216 0.344663 -0.180946
C45   C     C_R   0.319129 0.245031 0.393330 -0.207008
C46   C     C_R   0.614762 0.264741 0.684336 -0.083090
C47   C     C_R   0.113728 0.237395 0.689587 -0.081006
C48   C     C_R   0.078257 0.775215 0.657632 -0.181786
C49   C     C_R   0.664933 0.735266 0.425180 0.063086
C50   C     C_R   0.691300 0.244577 0.600640 0.032527
C51   C     C_R   0.188589 0.254950 0.602556 0.044354
C52   C     C_R   0.158599 0.766232 0.575309 0.067101
C53   C     C_R   0.272222 0.218421 0.628057 0.071155
C54   C     C_R   0.215599 0.837787 0.559033 0.060848
C55   C     C_R   0.718396 0.663404 0.451623 0.067838
C56   C     C_R   0.326417 0.745722 0.436020 -0.204623
C57   C     C_R   0.773466 0.283207 0.627433 0.088887
C58   C     C_R   0.332271 0.203401 0.514363 -0.144292
C59   C     C_R   0.302780 0.823986 0.498115 -0.121880
C60   C     C_R   0.802798 0.677364 0.510812 -0.119627
C61   C     C_R   0.833599 0.296328 0.513891 -0.141479
C62   C     C_R   0.825759 0.757767 0.562583 -0.212193
C63   C     C_R   0.828778 0.243125 0.400324 -0.215327
C64   C     C_R   0.767005 0.825844 0.555355 0.149259
H1    H     H_    0.364548 0.233511 0.306277 0.196763
H2    H     H_    0.566953 0.322821 0.873348 0.186144
H3    H     H_    0.068582 0.183155 0.879379 0.191732
H4    H     H_    0.992254 0.859947 0.778553 0.172656
H5    H     H_    0.546962 0.776506 0.313940 0.176752
H6    H     H_    0.548018 0.246998 0.653978 0.160116
H7    H     H_    0.046433 0.253505 0.660400 0.165150
H8    H     H_    0.032610 0.722903 0.678064 0.172766
H9    H     H_    0.640859 0.997670 0.115391 0.182615
H10   H     H_    0.141194 0.504025 0.116145 0.189202
H11   H     H_    0.330159 0.996817 0.255230 0.226639
H12   H     H_    0.392939 0.736159 0.388785 0.160829
H13   H     H_    0.827950 0.498211 0.255459 0.210701
H14   H     H_    0.190787 0.984472 0.141435 0.189866
H15   H     H_    0.689983 0.509310 0.137436 0.167373
H16   H     H_    0.330647 0.997000 0.762417 0.212258
H17   H     H_    0.832838 0.508553 0.762862 0.228312
H18   H     H_    0.222102 0.162387 0.955238 0.194186
H19   H     H_    0.074955 0.989422 0.709871 0.174394
H20   H     H_    0.576183 0.508524 0.332834 0.175978
H21   H     H_    0.719383 0.343232 0.954779 0.179589
H22   H     H_    0.890286 0.768028 0.607169 0.159004
H23   H     H_    0.878711 0.247807 0.317713 0.192701
H24   H     H_    0.191092 0.983758 0.894225 0.168260
H25   H     H_    0.692095 0.521144 0.891991 0.188926
H26   H     H_    0.641367 0.002533 0.865937 0.179956
H27   H     H_    0.141447 0.498074 0.865809 0.166622
H28   H     H_    0.503674 0.635395 0.241024 0.176437
I1    I     I_    0.408768 0.211513 0.859904 -0.397785
I2    I     I_    0.196210 0.025760 0.471547 -0.443990
I3    I     I_    0.696079 0.481275 0.560868 -0.467242
I4    I     I_    0.906765 0.291061 0.861997 -0.393422
I5    I     I_    0.807801 0.946361 0.637638 -0.362036
I6    I     I_    0.783065 0.084902 0.244542 -0.328078
I7    I     I_    0.230706 0.341386 0.179939 -0.329574
I8    I     I_    0.309843 0.561854 0.340823 -0.374694
N1    N     N_R   0.498810 0.000000 0.142780 -0.129638
N2    N     N_R   0.998810 0.500000 0.142780 -0.126577
N3    N     N_R   0.498740 0.000000 0.857170 -0.122056
N4    N     N_R   0.998740 0.500000 0.857170 -0.124705
O1    O     O_R   0.408390 0.908380 0.614690 -0.626489
O2    O     O_R   0.591620 0.908390 0.614640 -0.593487
O3    O     O_R   0.091620 0.591610 0.614640 -0.632916
O4    O     O_R   0.091620 0.408390 0.614640 -0.607208
O5    O     O_R   0.591610 0.091610 0.385310 -0.597472
O6    O     O_R   0.591610 0.908390 0.385310 -0.627110
O7    O     O_R   0.091610 0.591610 0.385310 -0.587373
O8    O     O_R   0.091610 0.408390 0.385310 -0.582455
O9    O     O_R   0.408390 0.091620 0.614690 -0.628483
O10   O     O_R   0.908390 0.408380 0.614690 -0.623604
O11   O     O_R   0.908390 0.591620 0.614690 -0.645186
O12   O     O_R   0.408370 0.908380 0.385360 -0.642210
O13   O     O_R   0.408370 0.091620 0.385360 -0.628466
O14   O     O_R   0.908370 0.408380 0.385360 -0.632476
O15   O     O_R   0.908370 0.591620 0.385360 -0.625390
O16   O     O_R   0.591620 0.091610 0.614640 -0.602593
Zn1   Zn    Zn3+2 0.500010 0.000000 0.653130 0.976154
Zn2   Zn    Zn3+2 0.000010 0.500000 0.653130 0.956532
Zn3   Zn    Zn3+2 0.499980 0.000000 0.346870 0.962065
Zn4   Zn    Zn3+2 0.999980 0.500000 0.346870 0.985927

loop_
_geom_bond_atom_site_label_1
_geom_bond_atom_site_label_2
_ccdc_geom_bond_type
C44   C49   A    
C33   C55   A    
C32   I2    S    
C13   H15   S    
C56   H12   S    
O12   Zn3   S    
C36   C42   A    
C4    C8    A    
C26   O2    A    
C23   O14   A    
C39   C41   A    
C22   C29   A    
C35   I4    S    
C28   O8    A    
C62   H22   S    
N1    Zn3   S    
C22   N1    A    
C19   C21   A    
O8    Zn4   S    
C3    C7    A    
C1    C59   S    
C11   C14   A    
C6    C25   S    
N4    Zn2   S    
C29   N3    A    
C60   C62   A    
C61   C63   A    
C62   C64   A    
C36   H18   S    
C43   H4    S    
C41   C46   A    
C1    O12   A    
C43   C48   A    
C8    C52   A    
C40   C44   A    
C18   C20   A    
C25   O5    A    
C18   N3    A    
C12   C58   S    
C27   O7    A    
O11   Zn2   S    
O15   Zn4   S    
C55   C60   A    
C4    C56   A    
C34   C60   S    
C5    C49   A    
C2    C6    A    
C48   H8    S    
N2    Zn4   S    
C33   I3    S    
C32   C54   A    
C29   H26   S    
C10   H13   S    
C52   C54   A    
C54   C59   A    
C10   C21   A    
C45   C58   A    
O5    Zn3   S    
C47   C51   A    
C20   N1    A    
C34   O11   A    
C31   I1    S    
C3    C45   A    
C40   H28   S    
C7    C28   S    
C12   O13   A    
C5    C64   A    
C16   H16   S    
C37   C43   A    
C35   C39   A    
C11   H14   S    
O6    Zn3   S    
C15   H25   S    
C24   N2    A    
C19   N4    A    
C9    C20   A    
C27   O3    A    
O16   Zn1   S    
O1    Zn1   S    
C44   H5    S    
O14   Zn4   S    
C32   C37   A    
C31   C53   A    
C9    C11   A    
C47   H7    S    
C21   N2    A    
C64   I5    S    
C13   C15   A    
C45   H1    S    
C42   H3    S    
C14   C16   A    
C39   H21   S    
N3    Zn1   S    
C25   O16   A    
C2    C63   A    
C12   O9    A    
C7    C51   A    
C23   C61   S    
C34   O15   A    
C15   C17   A    
C26   O6    A    
C6    C50   A    
C63   H23   S    
O7    Zn4   S    
C50   C57   A    
O4    Zn2   S    
C30   H27   S    
C10   C13   A    
C53   C58   A    
C57   C61   A    
C41   H2    S    
C46   C50   A    
C33   C38   A    
O3    Zn2   S    
C56   C59   A    
C35   C57   A    
C4    I8    S    
O13   Zn3   S    
C38   H20   S    
C49   C55   A    
C23   O10   A    
C38   C40   A    
C24   H10   S    
C28   O4    A    
O2    Zn1   S    
C17   C19   A    
C17   H17   S    
C42   C47   A    
C24   C30   A    
C46   H6    S    
C14   H24   S    
C5    C26   S    
O10   Zn2   S    
C3    I7    S    
C48   C52   A    
O9    Zn1   S    
C2    I6    S    
C16   C18   A    
C30   N4    A    
C8    C27   S    
C31   C36   A    
C37   H19   S    
C9    H11   S    
C22   H9    S    
C51   C53   A    
C1    O1    A    
