data_mof_unit_43017.cif
_audit_creation_date              2012-12-10T20:28:46-0500
_audit_creation_method            fapswitch 2.2
_symmetry_space_group_name_H-M    P1
_symmetry_Int_Tables_number       1
_space_group_crystal_system       triclinic
_cell_length_a                    10.384184
_cell_length_b                    10.648847
_cell_length_c                    9.883379
_cell_angle_alpha                 89.68331
_cell_angle_beta                  90.141053
_cell_angle_gamma                 90.574955
_cell_volume                      1092.82508009

loop_
_atom_site_label
_atom_site_type_symbol
_atom_type_description
_atom_site_fract_x
_atom_site_fract_y
_atom_site_fract_z
_atom_type_partial_charge
C1    C     C_R   0.506672 0.260051 0.500290 0.911795
C2    C     C_R   0.561034 0.936224 0.380607 -0.236419
C3    C     C_R   0.530984 0.871491 0.500667 -0.082767
C4    C     C_R   0.264927 0.529987 0.499604 0.907131
C5    C     C_R   0.531159 0.935397 0.623143 0.131728
C6    C     C_3   0.439374 0.927653 0.739320 -0.496605
C7    C     C_3   0.440578 0.069825 0.738860 -0.500527
C8    C     C_R   0.449370 0.400067 0.072026 0.209617
C9    C     C_R   0.557747 0.594045 0.071563 -0.154627
C10   C     C_R   0.557137 0.594352 0.927993 -0.132352
C11   C     C_R   0.447895 0.401032 0.929098 0.174063
C12   C     C_R   0.071615 0.615376 0.617314 0.073000
C13   C     C_3   0.310660 0.357455 0.923071 -0.542628
C14   C     C_3   0.312358 0.355126 0.077186 -0.012811
C15   C     C_R   0.505711 0.740149 0.499764 0.843268
C16   C     C_R   0.741104 0.515880 0.500193 0.886693
C17   C     C_R   0.137057 0.669267 0.728129 -0.177455
C18   C     C_R   0.068139 0.720347 0.834733 -0.162032
C19   C     C_R   0.934328 0.715426 0.834786 -0.151517
C20   C     C_R   0.868482 0.661041 0.726575 -0.155350
C21   C     C_R   0.936161 0.608305 0.617113 0.109600
C22   C     C_3   0.183488 0.668816 0.169953 -0.804505
C23   C     C_R   0.135730 0.581045 0.498240 -0.185366
C24   C     C_3   0.367019 0.124755 0.092109 -0.782614
C25   C     C_R   0.070911 0.597373 0.375198 0.232227
C26   C     C_R   0.940570 0.566386 0.376208 -0.303553
C27   C     C_R   0.874831 0.558217 0.500197 -0.176871
C28   C     C_R   0.531993 0.063448 0.623247 0.141922
C29   C     C_R   0.533344 0.129245 0.501489 -0.108494
C30   C     C_R   0.563430 0.066435 0.381433 -0.223989
H1    H     H_    0.484166 0.886471 0.831459 0.198479
H2    H     H_    0.040013 0.762715 0.269695 0.226691
H3    H     H_    0.208729 0.757467 0.116606 0.222462
H4    H     H_    0.125308 0.607516 0.102287 0.230969
H5    H     H_    0.276262 0.625704 0.195717 0.283806
H6    H     H_    0.346357 0.110713 0.709611 0.203665
H7    H     H_    0.599830 0.672773 0.874376 0.130078
H8    H     H_    0.200737 0.210200 0.161771 0.229820
H9    H     H_    0.365618 0.050216 0.170985 0.244447
H10   H     H_    0.468811 0.150428 0.071034 0.231047
H11   H     H_    0.320394 0.085333 0.000432 0.232523
H12   H     H_    0.487697 0.111371 0.829245 0.207957
H13   H     H_    0.240375 0.682298 0.728186 0.160164
H14   H     H_    0.881281 0.758744 0.916030 0.127887
H15   H     H_    0.765666 0.671742 0.724738 0.155428
H16   H     H_    0.578603 0.116793 0.287363 0.177105
H17   H     H_    0.344355 0.886754 0.710656 0.202944
H18   H     H_    0.602489 0.671269 0.125274 0.143526
H19   H     H_    0.246072 0.430753 0.881110 0.204881
H20   H     H_    0.299254 0.264984 0.873965 0.210497
H21   H     H_    0.247013 0.424377 0.122585 0.143625
H22   H     H_    0.118481 0.770044 0.913639 0.138229
H23   H     H_    0.888909 0.562619 0.280908 0.178679
H24   H     H_    0.573133 0.887664 0.285521 0.162189
N1    N     N_R   0.499160 0.499140 0.142800 -0.134170
N2    N     N_R   0.499160 0.499180 0.857150 -0.101266
N3    N     N_2   0.111629 0.698612 0.289818 -0.299147
N4    N     N_2   0.295525 0.231760 0.140124 -0.258070
O1    O     O_R   0.500020 0.316790 0.614690 -0.606126
O2    O     O_R   0.500000 0.316760 0.385350 -0.595115
O3    O     O_R   0.316770 0.500020 0.614690 -0.622012
O4    O     O_R   0.316760 0.499980 0.385350 -0.609770
O5    O     O_R   0.500000 0.683240 0.614650 -0.647225
O6    O     O_R   0.499980 0.683210 0.385310 -0.633126
O7    O     O_R   0.683240 0.500020 0.614650 -0.620737
O8    O     O_R   0.683230 0.499980 0.385310 -0.614931
Zn1   Zn    Zn3+2 0.500010 0.500020 0.653130 0.927065
Zn2   Zn    Zn3+2 0.499990 0.499980 0.346870 0.936970

loop_
_geom_bond_atom_site_label_1
_geom_bond_atom_site_label_2
_ccdc_geom_bond_type
C12   C17   A    
C19   C20   A    
O8    Zn2   S    
C15   O6    A    
C17   H13   S    
C6    C7    S    
C22   H5    S    
C12   C21   A    
N2    Zn1   S    
C10   N2    A    
C9    C10   A    
O3    Zn1   S    
C20   H15   S    
O7    Zn1   S    
O4    Zn2   S    
C2    C30   A    
C7    C28   S    
C16   C27   S    
C1    C29   S    
C2    C3    A    
C21   C27   A    
C18   H22   S    
C13   C14   S    
C19   H14   S    
C13   H19   S    
C24   H11   S    
C11   C13   S    
C12   C23   A    
C26   C27   A    
C29   C30   A    
C25   N3    S    
H2    N3    S    
C22   N3    S    
C10   H7    S    
C9    N1    A    
O6    Zn2   S    
C8    N1    A    
C28   C29   A    
C24   H10   S    
C1    O1    A    
C17   C18   A    
C23   C25   A    
C2    H24   S    
C5    C6    S    
C22   H4    S    
O5    Zn1   S    
C7    H12   S    
C16   O8    A    
C6    H17   S    
C8    C11   A    
C13   H20   S    
C5    C28   A    
C26   H23   S    
C4    O4    A    
C24   H9    S    
C3    C15   S    
C20   C21   A    
O2    Zn2   S    
C9    H18   S    
C24   N4    S    
C18   C19   A    
C7    H6    S    
C1    O2    A    
C4    C23   S    
C22   H3    S    
C15   O5    A    
C6    H1    S    
C16   O7    A    
C8    C14   S    
O1    Zn1   S    
C25   C26   A    
H8    N4    S    
N1    Zn2   S    
C4    O3    A    
C30   H16   S    
C11   N2    A    
C14   H21   S    
C14   N4    S    
C3    C5    A    
