data_mof_unit_36232.cif
_audit_creation_date              2013-03-05T15:44:47-0500
_audit_creation_method            fapswitch 2.2
_symmetry_space_group_name_H-M    P1
_symmetry_Int_Tables_number       1
_space_group_crystal_system       triclinic
_cell_length_a                    13.116257
_cell_length_b                    13.104728
_cell_length_c                    15.314463
_cell_angle_alpha                 116.957671
_cell_angle_beta                  62.405782
_cell_angle_gamma                 97.817897
_cell_volume                      2070.27667054

loop_
_atom_site_label
_atom_site_type_symbol
_atom_site_description
_atom_site_fract_x
_atom_site_fract_y
_atom_site_fract_z
_atom_type_partial_charge
C1    C     C_R   0.008860 0.834483 0.044012 0.105979
N1    N     N_R   0.037310 0.720000 0.995790 -0.060907
C2    C     C_R   0.703164 0.400771 0.208936 -0.114894
H1    H     H_    0.654431 0.337742 0.173814 0.113256
N2    N     N_R   0.790790 0.446160 0.152010 -0.045338
C3    C     C_R   0.749674 0.537383 0.908447 -0.182620
H2    H     H_    0.767252 0.573355 0.852328 0.124840
N3    N     N_R   0.824890 0.517960 0.936420 -0.049108
C4    C     C_R   0.956423 0.721239 0.318552 0.024992
N4    N     N_R   0.003210 0.648190 0.211380 -0.057881
C5    C     C_R   0.668763 0.439056 0.006927 0.027475
N5    N     N_R   0.774330 0.457010 0.995840 -0.059232
C6    C     C_R   0.044430 0.819137 0.221350 -0.074868
H3    H     H_    0.091010 0.883753 0.198655 0.103450
N6    N     N_R   0.053760 0.709140 0.151960 -0.048800
C7    C     C_R   0.802269 0.484015 0.302941 -0.127110
H4    H     H_    0.843127 0.497854 0.353137 0.153397
N7    N     N_R   0.853860 0.498840 0.211410 -0.050456
C8    C     C_R   0.903202 0.747880 0.955553 -0.097808
H5    H     H_    0.841466 0.732985 0.924157 0.125087
N8    N     N_R   0.974240 0.667310 0.936390 -0.062418
C9    C     C_R   0.918384 0.852871 0.027383 0.174255
C10   C     C_R   0.707909 0.421844 0.304053 0.116106
C11   C     C_R   0.650526 0.492269 0.956123 0.149413
C12   C     C_R   0.974609 0.831099 0.326589 0.070756
C13   C     C_R   0.322941 0.577482 0.007067 -0.137228
H6    H     H_    0.373105 0.637646 0.977157 0.103246
N9    N     N_R   0.225670 0.542990 0.004160 -0.046323
C14   C     C_R   0.900638 0.204395 0.791581 -0.068488
H7    H     H_    0.839588 0.151997 0.823824 0.162711
N10   N     N_R   0.946240 0.290860 0.848040 -0.052923
C15   C     C_R   0.219660 0.435233 0.684122 -0.087838
H8    H     H_    0.192759 0.388923 0.620991 0.149763
N11   N     N_R   0.146140 0.501160 0.788590 -0.056785
C16   C     C_R   0.066608 0.249568 0.071003 0.018624
N12   N     N_R   0.025760 0.332690 0.063610 -0.074965
C17   C     C_R   0.970277 0.167068 0.974775 0.356632
N13   N     N_R   0.962690 0.280000 0.004210 -0.103045
C18   C     C_R   0.321074 0.517496 0.778524 -0.114202
H9    H     H_    0.389228 0.546323 0.801909 0.107919
N14   N     N_R   0.209210 0.553840 0.847990 -0.051935
C19   C     C_R   0.246365 0.475428 0.101565 -0.120190
H10   H     H_    0.228443 0.442103 0.159467 0.115871
N15   N     N_R   0.175110 0.482040 0.063580 -0.043734
C20   C     C_R   0.984593 0.304615 0.697558 -0.063592
H11   H     H_    0.002122 0.346884 0.646369 0.099111
N16   N     N_R   0.996790 0.351810 0.788620 -0.048523
Ni1   Ni    Ni4+2 0.130310 0.630310 0.999970 0.229464
Ni2   Ni    Ni4+2 0.869690 0.369690 0.000030 0.249131
Ni3   Ni    Ni4+2 0.985640 0.509470 0.863740 0.231774
Ni4   Ni    Ni4+2 0.014360 0.490530 0.136260 0.220714
C21   C     C_R   0.340191 0.532100 0.063479 0.141635
C22   C     C_R   0.922087 0.212542 0.697964 0.020698
C23   C     C_R   0.330980 0.438442 0.674927 0.107763
C24   C     C_R   0.034997 0.142739 0.015000 -0.092489
C25   C     C_R   0.963936 0.042962 0.417891 -0.032188
H12   H     H_    0.016230 0.046761 0.340639 0.114673
C26   C     C_R   0.942312 0.142384 0.512612 -0.072835
H13   H     H_    0.981842 0.217343 0.503969 0.137026
C27   C     C_R   0.888304 0.137453 0.613533 0.080479
C28   C     C_R   0.828454 0.042871 0.621755 -0.146144
H14   H     H_    0.777418 0.040408 0.699935 0.133759
C29   C     C_R   0.847449 0.943862 0.526571 -0.105097
H15   H     H_    0.805371 0.869807 0.534379 0.127608
C30   C     C_R   0.927642 0.940080 0.424736 0.132181
C31   C     C_R   0.645290 0.398106 0.477667 0.352986
C32   C     C_R   0.548264 0.399724 0.572287 -0.115107
C33   C     C_R   0.439754 0.380355 0.572148 -0.048384
C34   C     C_R   0.438410 0.323091 0.469360 0.341403
C35   C     C_R   0.531132 0.330003 0.378694 -0.307898
H16   H     H_    0.523491 0.298305 0.303700 0.183817
C36   C     C_R   0.630236 0.379887 0.386001 -0.078135
C37   C     C_2   0.448539 0.524951 0.059435 -0.169184
H17   H     H_    0.451814 0.522759 0.128109 0.138982
C38   C     C_2   0.541855 0.510380 0.965709 -0.182312
H18   H     H_    0.538814 0.513390 0.897176 0.128857
C39   C     C_2   0.842735 0.958855 0.081375 -0.392175
H19   H     H_    0.811448 0.972280 0.033378 0.225911
C40   C     C_2   0.796727 0.032200 0.189018 0.384012
N17   N     N_3   0.087344 0.918305 0.064330 -0.230000
H20   H     H_    0.131552 0.933625 0.995106 0.117880
H21   H     H_    0.039422 0.995209 0.130196 0.113285
N18   N     N_3   0.118954 0.270890 0.140491 -0.209200
H22   H     H_    0.135537 0.192984 0.137053 0.125005
H23   H     H_    0.057976 0.321590 0.221141 0.155205
N19   N     N_R   0.903226 0.088097 0.928019 0.203802
O1    O     O_R   0.948401 0.984394 0.852798 -0.413961
O2    O     O_R   0.792196 0.112899 0.974153 -0.493330
N20   N     N_R   0.757834 0.407069 0.472907 0.218134
O3    O     O_R   0.777454 0.493391 0.548376 -0.453236
O4    O     O_R   0.841945 0.329032 0.391635 -0.410833
N21   N     N_3   0.560526 0.412731 0.665030 -0.205296
H24   H     H_    0.622267 0.348752 0.638357 0.173197
H25   H     H_    0.589793 0.492920 0.697327 0.143147
N22   N     N_R   0.347016 0.254572 0.454970 0.224883
O5    O     O_R   0.302013 0.191420 0.506903 -0.390785
O6    O     O_R   0.320026 0.241983 0.379094 -0.420118
N23   N     N_R   0.806505 0.014458 0.270659 0.230633
O7    O     O_R   0.778047 0.101014 0.366888 -0.372779
O8    O     O_R   0.811679 0.911060 0.260661 -0.422173
N24   N     N_3   0.939960 0.690438 0.402272 -0.207393
H26   H     H_    0.852592 0.680407 0.442217 0.120411
H27   H     H_    0.988506 0.612317 0.365458 0.124342
N25   N     N_3   0.609176 0.344236 0.022669 -0.209739
H28   H     H_    0.552904 0.373516 0.106333 0.100020
H29   H     H_    0.669396 0.281004 0.999657 0.146307

loop_
_geom_bond_atom_site_label_1
_geom_bond_atom_site_label_2
_geom_bond_distance
_ccdc_geom_bond_type
C29   C30   1.401935 A    
N24   H26   1.042678 S    
C37   H17   1.085510 S    
C40   N23   1.433168 S    
C2    C10   1.384407 A    
C8    H5    1.075917 S    
N16   Ni3   1.839809 S    
C6    C12   1.379631 A    
N25   H29   1.044100 S    
N5    Ni2   1.846148 S    
C4    C12   1.384875 A    
C18   N14   1.340168 A    
N13   Ni2   1.845027 S    
C20   H11   1.079970 S    
C13   H6    1.082340 S    
C14   H7    1.071478 S    
N21   H24   1.045637 S    
C8    N8    1.342563 A    
N4    N6    1.364417 A    
N19   O2    1.301151 A    
C18   C23   1.400957 A    
C23   C33   1.490351 S    
C26   C27   1.399476 A    
C25   C30   1.400945 A    
C5    C11   1.363288 A    
C25   H12   1.079343 S    
C1    N1    1.351995 A    
C28   C29   1.380976 A    
N25   H28   1.043487 S    
C31   C36   1.416603 A    
N22   O5    1.301862 A    
C33   C34   1.411552 A    
C5    N25   1.430320 S    
N20   O4    1.301107 A    
C4    N4    1.337534 A    
C20   N16   1.323132 A    
C31   C32   1.410971 A    
C20   C22   1.364194 A    
C1    C9    1.394490 A    
N24   H27   1.045381 S    
N10   N16   1.364415 A    
C6    H3    1.067933 S    
C37   C38   1.335040 D    
N2    Ni2   1.851600 S    
C34   C35   1.391001 A    
N11   N14   1.400297 A    
C19   N15   1.338202 A    
N6    Ni1   1.852074 S    
N10   Ni2   1.852076 S    
N4    Ni4   1.839809 S    
C15   C23   1.397029 A    
N8    Ni3   1.839073 S    
C22   C27   1.447443 S    
N7    Ni4   1.863416 S    
C31   N20   1.434940 S    
C39   C40   1.343556 D    
N11   Ni3   1.863414 S    
C16   C24   1.396529 A    
C32   C33   1.412127 A    
C17   N19   1.421651 S    
C8    C9    1.378009 A    
C12   C30   1.453837 S    
N17   H21   1.044749 S    
C21   C37   1.407701 S    
C18   H9    1.073365 S    
C16   N18   1.427241 S    
N19   O1    1.300893 A    
C7    H4    1.067623 S    
C3    N3    1.334283 A    
N2    N7    1.400297 A    
N1    Ni1   1.845025 S    
C26   H13   1.080303 S    
C39   H19   1.075172 S    
N9    N15   1.364429 A    
C27   C28   1.397709 A    
C16   N12   1.346551 A    
C15   N11   1.334202 A    
C38   H18   1.086930 S    
C17   N13   1.340519 A    
C13   C21   1.354530 A    
N18   H22   1.045691 S    
N3    N5    1.364428 A    
C3    C11   1.369811 A    
N1    N8    1.400312 A    
N21   H25   1.044614 S    
C35   H16   1.079065 S    
N12   Ni4   1.839072 S    
N15   Ni4   1.863923 S    
C7    N7    1.339006 A    
N18   H23   1.044995 S    
C7    C10   1.383694 A    
N23   O8    1.300523 A    
C6    N6    1.326941 A    
C19   H10   1.078124 S    
C2    H1    1.073406 S    
N3    Ni3   1.863924 S    
N9    Ni1   1.846149 S    
C10   C36   1.484590 S    
C9    C39   1.473385 S    
N17   H20   1.045091 S    
C2    N2    1.338167 A    
C5    N5    1.315759 A    
N22   O6    1.301588 A    
C11   C38   1.405742 S    
C3    H2    1.080815 S    
C13   N9    1.308254 A    
C15   H8    1.073931 S    
N12   N13   1.400312 A    
C14   N10   1.340041 A    
C14   C22   1.379477 A    
C32   N21   1.434186 S    
N14   Ni1   1.851600 S    
C25   C26   1.374047 A    
C28   H14   1.081347 S    
C29   H15   1.076607 S    
C17   C24   1.392079 A    
C4    N24   1.429135 S    
N23   O7    1.299117 A    
C34   N22   1.436776 S    
C1    N17   1.429113 S    
C35   C36   1.402420 A    
N20   O3    1.301014 A    
C19   C21   1.373094 A    
