data_mof_unit_45970.cif
_audit_creation_date              2012-12-11T14:08:17-0500
_audit_creation_method            fapswitch 2.2
_symmetry_space_group_name_H-M    P1
_symmetry_Int_Tables_number       1
_space_group_crystal_system       triclinic
_cell_length_a                    11.113068
_cell_length_b                    10.99739
_cell_length_c                    18.657748
_cell_angle_alpha                 89.915448
_cell_angle_beta                  89.947235
_cell_angle_gamma                 59.751034
_cell_volume                      1969.78107432

loop_
_atom_site_label
_atom_site_type_symbol
_atom_type_description
_atom_site_fract_x
_atom_site_fract_y
_atom_site_fract_z
_atom_type_partial_charge
C1    C     C_R   0.229913 0.646471 0.606559 0.590438
C2    C     C_3   0.643407 0.635632 0.800971 -0.192343
C3    C     C_3   0.743542 0.693207 0.805550 -0.024089
C4    C     C_3   0.698976 0.652338 0.670872 0.057248
C5    C     C_3   0.862710 0.585221 0.684975 -0.040938
C6    C     C_3   0.656978 0.575230 0.726961 -0.052634
C7    C     C_2   0.670588 0.170827 0.674568 -0.093191
C8    C     C_2   0.684046 0.175758 0.830565 -0.107059
C9    C     C_2   0.793379 0.141478 0.787443 -0.141803
C10   C     C_2   0.773155 0.174890 0.710592 -0.138477
C11   C     C_2   0.163899 0.658536 0.676848 -0.044284
C12   C     C_R   0.659942 0.624657 0.598548 0.617468
C13   C     C_2   0.184329 0.677007 0.838058 0.075208
C14   C     C_2   0.193854 0.568123 0.801569 -0.141913
C15   C     C_2   0.209816 0.547034 0.723647 -0.007755
C16   C     C_2   0.654487 0.653388 0.319796 0.097964
C17   C     C_2   0.631168 0.661845 0.156504 -0.088024
C18   C     C_2   0.709055 0.552024 0.198424 -0.152168
C19   C     C_2   0.671757 0.552429 0.272834 -0.140728
C20   C     C_2   0.632832 0.197913 0.318836 -0.073031
C21   C     C_2   0.637280 0.200627 0.163858 -0.104606
C22   C     C_2   0.524464 0.228772 0.201185 -0.148587
C23   C     C_R   0.625840 0.232819 0.603282 0.603031
C24   C     C_2   0.518299 0.257732 0.276916 -0.142004
C25   C     C_2   0.120962 0.683474 0.345968 -0.086507
C26   C     C_2   0.111351 0.691307 0.191337 -0.083912
C27   C     C_2   0.041689 0.805121 0.234029 -0.125173
C28   C     C_2   0.074929 0.801790 0.309197 -0.145084
C29   C     C_R   0.702258 0.103441 0.898413 0.533871
C30   C     C_R   0.760555 0.713668 0.883378 0.548053
C31   C     C_R   0.117903 0.708033 0.907717 0.546251
C32   C     C_R   0.673499 0.112794 0.101364 0.563228
C33   C     C_R   0.692485 0.687517 0.093870 0.576550
C34   C     C_R   0.215334 0.652219 0.405003 0.546000
C35   C     C_R   0.085686 0.713267 0.115526 0.554622
C36   C     C_R   0.642612 0.624087 0.394107 0.575574
C37   C     C_R   0.613437 0.234902 0.393554 0.566263
C38   C     C_3   0.679909 0.834251 0.761761 -0.260169
C39   C     C_3   0.633380 0.813906 0.685493 0.115446
C40   C     C_3   0.886246 0.585668 0.768194 -0.026400
Cr1   Cr    Cr6+3 0.393010 0.398050 0.501480 1.067168
Cr2   Cr    Cr6+3 0.398820 0.707980 0.501630 1.113896
Cr3   Cr    Cr6+3 0.708140 0.393940 0.496850 1.075917
Cr4   Cr    Cr6+3 0.937950 0.938450 0.008940 1.051183
Cr5   Cr    Cr6+3 0.626180 0.937030 0.994750 1.050786
Cr6   Cr    Cr6+3 0.937790 0.625760 0.001410 1.051564
H1    H     H_    0.758711 0.867717 0.756557 0.107935
H2    H     H_    0.740967 0.462978 0.728475 0.186631
H3    H     H_    0.899267 0.081075 0.807429 0.200056
H4    H     H_    0.841478 0.204911 0.684223 0.200837
H5    H     H_    0.578390 0.238756 0.810569 0.121595
H6    H     H_    0.607733 0.134207 0.701197 0.127740
H7    H     H_    0.184013 0.488588 0.831313 0.160898
H8    H     H_    0.590451 0.919985 0.791121 0.177284
H9    H     H_    0.093244 0.764328 0.695328 0.123853
H10   H     H_    0.808025 0.464853 0.180357 0.159406
H11   H     H_    0.674239 0.457472 0.291622 0.127508
H12   H     H_    0.530274 0.745425 0.175059 0.139517
H13   H     H_    0.441991 0.214921 0.178698 0.168773
H14   H     H_    0.414697 0.323013 0.299287 0.155410
H15   H     H_    0.715514 0.221822 0.185824 0.095427
H16   H     H_    0.737372 0.132319 0.297853 0.101546
H17   H     H_    0.970098 0.908269 0.211707 0.159878
H18   H     H_    0.080156 0.890820 0.330666 0.158637
H19   H     H_    0.184325 0.586851 0.211434 0.081177
H20   H     H_    0.107265 0.598560 0.325613 0.121121
H21   H     H_    0.955178 0.628307 0.777144 0.112793
H22   H     H_    0.898746 0.653494 0.661317 0.140255
H23   H     H_    0.667644 0.551570 0.841295 0.176822
H24   H     H_    0.534924 0.721557 0.810887 0.200914
O1    O     O_R   0.507110 0.256280 0.580300 -0.490052
O2    O     O_R   0.524640 0.695370 0.425100 -0.483755
O3    O     O_R   0.735890 0.504390 0.415980 -0.514339
O4    O     O_R   0.690560 0.277820 0.422350 -0.509429
O5    O     O_3   0.499990 0.499990 0.499980 -0.280695
O6    O     O_R   0.089190 0.825870 0.932320 -0.478010
O7    O     O_R   0.819070 0.053960 0.931440 -0.488493
O8    O     O_R   0.607070 0.076440 0.916460 -0.521102
O9    O     O_R   0.647110 0.806550 0.917690 -0.497589
O10   O     O_R   0.837080 0.593860 0.915300 -0.475317
O11   O     O_R   0.064770 0.636080 0.932550 -0.526354
O12   O     O_R   0.280830 0.527190 0.577940 -0.504399
O13   O     O_R   0.068250 0.829200 0.092940 -0.512141
O14   O     O_R   0.799650 0.057040 0.080330 -0.507491
O15   O     O_R   0.586130 0.079760 0.077080 -0.501995
O16   O     O_R   0.627700 0.809630 0.066580 -0.482583
O17   O     O_R   0.816140 0.597180 0.075920 -0.505117
O18   O     O_R   0.045360 0.639170 0.081440 -0.491138
O19   O     O_3   0.833980 0.833750 0.001700 -0.287789
O20   O     O_R   0.261360 0.738990 0.584270 -0.455125
O21   O     O_R   0.532590 0.694780 0.574370 -0.437336
O22   O     O_R   0.744470 0.503750 0.577000 -0.483664
O23   O     O_R   0.698520 0.277230 0.571620 -0.478481
O24   O     O_R   0.498530 0.256920 0.419280 -0.488073
O25   O     O_R   0.272880 0.527780 0.428680 -0.510597
O26   O     O_R   0.252780 0.739630 0.423250 -0.510595
I1    I     I_    0.989964 0.370419 0.814189 -0.349942
I2    I     I_    0.014571 0.389159 0.630840 -0.323053
C41   C     C_3   0.288187 0.391232 0.704581 -0.301820
H25   H     H_    0.398502 0.342985 0.719836 0.139184
H26   H     H_    0.246998 0.334864 0.736265 0.170362
H27   H     H_    0.280020 0.365003 0.648799 0.220196
I3    I     I_    0.221655 0.838374 0.798684 -0.308727
I4    I     I_    0.665868 0.836283 0.295362 -0.381756
I5    I     I_    0.410011 0.943340 0.677940 -0.228728
I6    I     I_    0.700996 0.895704 0.598004 -0.374023
I7    I     I_    0.500583 0.533132 0.708379 -0.362902

loop_
_geom_bond_atom_site_label_1
_geom_bond_atom_site_label_2
_ccdc_geom_bond_type
Cr3   O3    S    
C39   I6    S    
C37   O4    A    
C1    O20   A    
C7    C10   D    
C12   O21   A    
C1    C11   S    
Cr4   O13   S    
Cr6   O19   S    
C19   H11   S    
C25   C28   D    
Cr2   O5    S    
C6    H2    S    
Cr2   O26   S    
C8    C29   S    
Cr4   O7    S    
C34   O26   A    
C7    H6    S    
Cr2   O21   S    
C38   C39   S    
Cr1   O12   S    
C18   C19   S    
Cr4   O6    S    
C20   C24   D    
C11   C15   D    
C16   I4    S    
C29   O8    A    
Cr1   O24   S    
C3    C38   S    
C8    C9    D    
C40   H21   S    
C6    I7    S    
Cr5   O8    S    
C13   I3    S    
C2    H23   S    
Cr5   O19   S    
C9    C10   S    
C21   H15   S    
C18   H10   S    
C25   C34   S    
Cr1   O1    S    
C30   O10   A    
Cr3   O4    S    
C13   C14   D    
C2    C6    S    
C17   C33   S    
C5    H22   S    
C12   O22   A    
Cr6   O18   S    
Cr3   O5    S    
C32   O14   A    
C21   C32   S    
C23   O1    A    
C9    H3    S    
C34   O25   A    
C4    C6    S    
C40   I1    S    
C35   O13   A    
C1    O12   A    
C23   O23   A    
Cr2   O20   S    
C3    C30   S    
Cr5   O15   S    
C33   O16   A    
Cr1   O5    S    
Cr6   O11   S    
C35   O18   A    
C41   H25   S    
C38   H8    S    
C4    C39   S    
C24   H14   S    
C14   H7    S    
Cr2   O2    S    
C17   C18   D    
C26   C27   D    
Cr5   O9    S    
C8    H5    S    
C38   H1    S    
C27   H17   S    
C30   O9    A    
C28   H18   S    
C41   H26   S    
C3    C40   S    
C22   C24   S    
C4    C12   S    
C10   H4    S    
C22   H13   S    
C11   H9    S    
Cr6   O17   S    
C39   I5    S    
C26   H19   S    
C13   C31   S    
C25   H20   S    
C15   C41   S    
C4    C5    S    
Cr4   O14   S    
C17   H12   S    
Cr3   O22   S    
C31   O11   A    
C2    C3    S    
C33   O17   A    
C2    H24   S    
C16   C36   S    
Cr6   O10   S    
C20   C37   S    
C31   O6    A    
Cr1   O25   S    
C16   C19   D    
C7    C23   S    
C32   O15   A    
Cr3   O23   S    
C37   O24   A    
Cr5   O16   S    
C20   H16   S    
C36   O3    A    
C26   C35   S    
C41   H27   S    
C29   O7    A    
C5    I2    S    
C5    C40   S    
C27   C28   S    
C14   C15   S    
C21   C22   D    
Cr4   O19   S    
C36   O2    A    
