data_mof_unit_49337.cif
_audit_creation_date              2013-03-05T16:03:00-0500
_audit_creation_method            fapswitch 2.2
_symmetry_space_group_name_H-M    P1
_symmetry_Int_Tables_number       1
_space_group_crystal_system       triclinic
_cell_length_a                    14.901773
_cell_length_b                    14.038676
_cell_length_c                    10.643119
_cell_angle_alpha                 89.99932
_cell_angle_beta                  90.02675
_cell_angle_gamma                 89.999274
_cell_volume                      2226.55262946

loop_
_atom_site_label
_atom_site_type_symbol
_atom_site_description
_atom_site_fract_x
_atom_site_fract_y
_atom_site_fract_z
_atom_type_partial_charge
O1    O     O_R   0.367850 0.580280 0.500030 -0.644433
O2    O     O_R   0.632150 0.419720 0.499970 -0.643454
O3    O     O_R   0.632150 0.580280 0.499970 -0.644441
O4    O     O_R   0.367850 0.419720 0.500030 -0.643337
C1    C     C_R   0.326551 0.500428 0.498432 1.025133
C2    C     C_R   0.673448 0.500429 0.501592 1.025136
O5    O     O_R   0.499970 0.580260 0.313950 -0.626062
O6    O     O_R   0.500030 0.419740 0.686050 -0.621396
O7    O     O_R   0.500030 0.580260 0.686050 -0.626032
O8    O     O_R   0.499970 0.419740 0.313950 -0.621383
C3    C     C_R   0.500099 0.499700 0.256958 0.959174
C4    C     C_R   0.499890 0.499698 0.743040 0.959170
Zn1   Zn    Zn3+2 0.500000 0.607200 0.500000 0.951675
Zn2   Zn    Zn3+2 0.500000 0.392800 0.500000 0.955393
C5    C     C_3   0.456844 0.577028 0.040880 -0.309186
C6    C     C_3   0.542242 0.418411 0.958309 -0.307858
C7    C     C_3   0.543225 0.576960 0.959098 -0.309485
C8    C     C_3   0.457619 0.418481 0.041703 -0.308071
C9    C     C_3   0.416360 0.497008 0.959539 0.557069
C10   C     C_3   0.583607 0.496883 0.040448 0.556999
H1    H     H_    0.420683 0.640299 0.077648 0.163880
H2    H     H_    0.570604 0.351945 0.919217 0.157357
H3    H     H_    0.579453 0.640178 0.922304 0.163885
H4    H     H_    0.429182 0.352081 0.080874 0.157360
C11   C     C_3   0.500303 0.498146 0.878108 -0.097337
C12   C     C_3   0.499667 0.498157 0.121887 -0.097503
C13   C     C_R   0.817415 0.484785 0.393366 0.366092
C14   C     C_R   0.182573 0.484726 0.606626 0.366548
C15   C     C_R   0.769656 0.503988 0.503889 -0.322213
C16   C     C_R   0.230342 0.503988 0.496130 -0.322336
C17   C     C_R   0.813732 0.537469 0.611833 0.335384
C18   C     C_R   0.186271 0.537498 0.388198 0.335548
C19   C     C_R   0.907116 0.534637 0.614915 0.040928
C20   C     C_R   0.092887 0.534665 0.385107 0.041012
C21   C     C_R   0.953472 0.526463 0.500328 -0.031607
C22   C     C_R   0.046529 0.526473 0.499690 -0.031598
C23   C     C_R   0.907224 0.511612 0.386922 0.015226
C24   C     C_R   0.092777 0.511595 0.613089 0.015021
C25   C     C_R   0.955104 0.536880 0.728404 -0.219438
C26   C     C_R   0.044902 0.536913 0.271617 -0.219689
C27   C     C_R   0.046965 0.518305 0.727818 -0.192424
C28   C     C_R   0.953039 0.518350 0.272196 -0.192416
H5    H     H_    0.921095 0.544885 0.817597 0.172773
H6    H     H_    0.078912 0.544936 0.182428 0.172863
H7    H     H_    0.082079 0.510660 0.816227 0.168255
H8    H     H_    0.917932 0.510733 0.183777 0.168112
C29   C     C_R   0.579590 0.798528 0.503544 -0.075806
C30   C     C_R   0.420543 0.201493 0.492322 -0.075226
C31   C     C_R   0.420412 0.798531 0.496471 -0.075624
C32   C     C_R   0.579458 0.201492 0.507691 -0.075289
N1    N     N_R   0.500000 0.750030 0.500000 -0.106747
N2    N     N_R   0.500000 0.249970 0.500000 -0.103823
C33   C     C_R   0.418518 0.898993 0.494994 0.023147
C34   C     C_R   0.581423 0.101012 0.506886 0.019641
C35   C     C_R   0.581484 0.898990 0.505040 0.023080
C36   C     C_R   0.418579 0.101014 0.493143 0.019590
C37   C     C_R   0.500001 0.949487 0.500015 0.084081
C38   C     C_R   0.500001 0.050521 0.500014 0.084790
C39   C     C_R   0.337396 0.949933 0.488776 -0.206250
C40   C     C_R   0.662546 0.050044 0.512838 -0.206532
C41   C     C_R   0.662605 0.949928 0.511289 -0.206223
C42   C     C_R   0.337456 0.050049 0.487217 -0.206523
H9    H     H_    0.641834 0.759254 0.505011 0.127569
H10   H     H_    0.358487 0.240816 0.485432 0.127870
H11   H     H_    0.358171 0.759257 0.495005 0.127557
H12   H     H_    0.641513 0.240814 0.514582 0.127880
H13   H     H_    0.273955 0.912375 0.484737 0.137303
H14   H     H_    0.725915 0.087578 0.518405 0.136069
H15   H     H_    0.726045 0.912366 0.515365 0.137409
H16   H     H_    0.274087 0.087584 0.481666 0.136186
O9    O     O_3   0.329851 0.493822 0.905599 -0.618431
C43   C     C_3   0.263499 0.483821 0.999719 0.129946
H17   H     H_    0.203491 0.523812 0.967625 0.163752
H18   H     H_    0.284236 0.516201 0.089541 0.168149
C44   C     C_3   0.238568 0.378627 0.021258 -0.333285
H19   H     H_    0.244333 0.338398 0.932626 0.249480
H20   H     H_    0.285082 0.345770 0.089594 0.193024
C45   C     C_3   0.144108 0.366187 0.073945 -0.967027
H21   H     H_    0.142539 0.389887 0.173211 0.285142
H22   H     H_    0.125465 0.289622 0.071602 0.263708
H23   H     H_    0.094107 0.406661 0.017911 0.249695
O10   O     O_3   0.670118 0.493547 0.094356 -0.618342
C46   C     C_3   0.736456 0.483657 0.000195 0.130015
H24   H     H_    0.796521 0.523477 0.032455 0.163978
H25   H     H_    0.715767 0.516301 0.910519 0.168047
C47   C     C_3   0.761233 0.378472 0.978191 -0.333663
H26   H     H_    0.755338 0.337992 0.066619 0.249092
H27   H     H_    0.714718 0.345914 0.909602 0.193135
C48   C     C_3   0.855712 0.365995 0.925581 -0.966468
H28   H     H_    0.857366 0.389846 0.826381 0.285075
H29   H     H_    0.874266 0.289401 0.927739 0.263734
H30   H     H_    0.905731 0.406320 0.981771 0.249598
O11   O     O_3   0.778037 0.435852 0.295130 -0.602915
C49   C     C_3   0.780292 0.336793 0.322663 0.127218
H31   H     H_    0.724178 0.302465 0.271071 0.168468
H32   H     H_    0.768344 0.320389 0.423771 0.117425
C50   C     C_3   0.869763 0.291845 0.282344 -0.402487
H33   H     H_    0.888284 0.316185 0.186714 0.248746
H34   H     H_    0.923729 0.314458 0.347949 0.222121
C51   C     C_3   0.864550 0.183345 0.283344 -0.961641
H35   H     H_    0.848129 0.157333 0.379152 0.259072
H36   H     H_    0.930331 0.153143 0.254848 0.270235
H37   H     H_    0.812521 0.158253 0.216262 0.266203
O12   O     O_3   0.221875 0.435553 0.704718 -0.603043
C52   C     C_3   0.219496 0.336545 0.676849 0.126365
H38   H     H_    0.275549 0.302021 0.728347 0.168159
H39   H     H_    0.231437 0.320327 0.575686 0.117811
C53   C     C_3   0.129968 0.291633 0.717004 -0.402274
H40   H     H_    0.111662 0.315474 0.812934 0.248506
H41   H     H_    0.075951 0.314759 0.651802 0.222397
C54   C     C_3   0.134900 0.183128 0.714881 -0.961939
H42   H     H_    0.150941 0.157635 0.618705 0.259028
H43   H     H_    0.069131 0.152952 0.743476 0.270247
H44   H     H_    0.187079 0.157487 0.781370 0.266304
O13   O     O_3   0.765827 0.566160 0.716001 -0.686240
C55   C     C_3   0.747056 0.665031 0.708244 0.088406
H45   H     H_    0.673004 0.673946 0.709884 0.180169
H46   H     H_    0.772309 0.700404 0.620911 0.127125
C56   C     C_3   0.786310 0.716625 0.822212 -0.386769
H47   H     H_    0.760164 0.684090 0.909984 0.217859
H48   H     H_    0.860548 0.709667 0.821647 0.225721
C57   C     C_3   0.761685 0.822155 0.820896 -0.942681
H49   H     H_    0.789356 0.857137 0.735679 0.259423
H50   H     H_    0.790283 0.857546 0.905195 0.267992
H51   H     H_    0.687601 0.831083 0.822218 0.266649
O14   O     O_3   0.234188 0.566132 0.284017 -0.686349
C58   C     C_3   0.253003 0.664994 0.291708 0.088710
H52   H     H_    0.327049 0.673885 0.289389 0.180103
H53   H     H_    0.228202 0.700303 0.379334 0.126958
C59   C     C_3   0.213180 0.716679 0.178194 -0.387013
H54   H     H_    0.238603 0.683973 0.090116 0.218024
H55   H     H_    0.138923 0.710039 0.179770 0.225698
C60   C     C_3   0.238201 0.822103 0.179051 -0.942542
H56   H     H_    0.211440 0.857212 0.264744 0.259413
H57   H     H_    0.208970 0.857608 0.095259 0.267941
H58   H     H_    0.312300 0.830714 0.176397 0.266621

loop_
_geom_bond_atom_site_label_1
_geom_bond_atom_site_label_2
_geom_bond_distance
_ccdc_geom_bond_type
O14   C58   1.418293 S    
C10   O10   1.411621 S    
C13   C15   1.401302 A    
C9    O9    1.411650 S    
C21   C22   1.386728 A    
C8    C12   1.540001 S    
O3    C2    1.278927 A    
C50   H33   1.108651 S    
C33   C39   1.406074 A    
C25   C27   1.393529 A    
C34   C40   1.406153 A    
C55   H45   1.110712 S    
O5    C3    1.283353 A    
C52   H39   1.114875 S    
O11   C49   1.421593 S    
C31   H11   1.079124 S    
C8    H4    1.105664 S    
C21   C23   1.405165 A    
C30   N2    1.368111 A    
C29   H9    1.079161 S    
C47   H27   1.105370 S    
C30   H10   1.079443 S    
O13   C55   1.418324 S    
C7    C10   1.541095 S    
C53   H40   1.108662 S    
C42   H16   1.082973 S    
C5    C7    1.554233 S    
C8    C9    1.535435 S    
C28   H8    1.081788 S    
C18   O14   1.379008 S    
C23   C28   1.402422 A    
O7    Zn1   2.015942 S    
C39   H13   1.083327 S    
C5    C9    1.541088 S    
C19   C25   1.403756 A    
Zn2   N2    2.005145 S    
C54   H42   1.110513 S    
C55   H46   1.119142 S    
C31   N1    1.368050 A    
C60   H58   1.111177 S    
C32   N2    1.368120 A    
C17   C19   1.392527 A    
C14   C24   1.392006 A    
C48   H29   1.110484 S    
C20   C22   1.406576 A    
O3    Zn1   2.005200 S    
C6    C10   1.535375 S    
C36   C42   1.406142 A    
C26   C28   1.393521 A    
Zn1   N1    2.005144 S    
O2    C2    1.289504 A    
C43   C44   1.539989 S    
O2    Zn2   2.005209 S    
C17   O13   1.379045 S    
O12   C52   1.421675 S    
C50   H34   1.111091 S    
C56   H48   1.110602 S    
C52   C53   1.536428 S    
C24   C27   1.402394 A    
C43   H18   1.102620 S    
O8    Zn2   2.015943 S    
C33   C37   1.407019 A    
C45   H21   1.107916 S    
C43   H17   1.109609 S    
C5    C12   1.541426 S    
C25   H5    1.082160 S    
O6    Zn2   2.015951 S    
C49   C50   1.536389 S    
C51   H37   1.111064 S    
C40   C41   1.405600 A    
C18   C20   1.392529 A    
C59   H55   1.110612 S    
C44   H19   1.102851 S    
C58   H53   1.119106 S    
O7    C4    1.283364 A    
C44   H20   1.105305 S    
C14   O12   1.381637 S    
C46   H24   1.109623 S    
C7    H3    1.110250 S    
O5    Zn1   2.015952 S    
O6    C4    1.275904 A    
C2    C15   1.434750 S    
C51   H36   1.110366 S    
C54   H43   1.110372 S    
C32   C34   1.410937 A    
C48   H30   1.110556 S    
C49   H32   1.114859 S    
C32   H12   1.079451 S    
C46   H25   1.102601 S    
C35   C37   1.407020 A    
C60   H56   1.110909 S    
O1    C1    1.278952 A    
C13   O11   1.381606 S    
C59   C60   1.526299 S    
O1    Zn1   2.005211 S    
C57   H50   1.110452 S    
C58   H52   1.110745 S    
C50   C51   1.525206 S    
C29   C35   1.410719 A    
C1    C16   1.434763 S    
C34   C38   1.407088 A    
C56   C57   1.526321 S    
C41   H15   1.083336 S    
C6    C11   1.540023 S    
C30   C36   1.410930 A    
C39   C42   1.405588 A    
C6    H2    1.105685 S    
C47   H26   1.102954 S    
C53   H41   1.111033 S    
O4    C1    1.289488 A    
C47   C48   1.525492 S    
C29   N1    1.368071 A    
C56   H47   1.110589 S    
C55   C56   1.528886 S    
C52   H38   1.110220 S    
C3    C12   1.437758 S    
C53   C54   1.525202 S    
C4    C11   1.437717 S    
C7    C11   1.541384 S    
C57   H51   1.111180 S    
C22   C24   1.405152 A    
C59   H54   1.110601 S    
C48   H28   1.107898 S    
C58   C59   1.528899 S    
O9    C43   1.414829 S    
C15   C17   1.404102 A    
C16   C18   1.404088 A    
C45   H23   1.110516 S    
C37   C38   1.418378 A    
C5    H1    1.110257 S    
C10   C12   1.522238 S    
C13   C23   1.392025 A    
C31   C33   1.410714 A    
C35   C41   1.406080 A    
C14   C16   1.401294 A    
C51   H35   1.110511 S    
C19   C21   1.406583 A    
C36   C38   1.407089 A    
C54   H44   1.111040 S    
C45   H22   1.110482 S    
O4    Zn2   2.005201 S    
C49   H31   1.110207 S    
C9    C11   1.522224 S    
C44   C45   1.525481 S    
O8    C3    1.275934 A    
C26   H6    1.082159 S    
C46   C47   1.540048 S    
C40   H14   1.082984 S    
C6    C8    1.542415 S    
O10   C46   1.414837 S    
C60   H57   1.110462 S    
C27   H7    1.081780 S    
C20   C26   1.403737 A    
C57   H49   1.110925 S    
