data_mof_unit_32426.cif
_audit_creation_date              2012-12-11T15:29:19-0500
_audit_creation_method            fapswitch 2.2
_symmetry_space_group_name_H-M    P1
_symmetry_Int_Tables_number       1
_space_group_crystal_system       triclinic
_cell_length_a                    13.484667
_cell_length_b                    13.507031
_cell_length_c                    27.579462
_cell_angle_alpha                 90.481045
_cell_angle_beta                  89.80726
_cell_angle_gamma                 59.963776
_cell_volume                      4348.36515966

loop_
_atom_site_label
_atom_site_type_symbol
_atom_type_description
_atom_site_fract_x
_atom_site_fract_y
_atom_site_fract_z
_atom_type_partial_charge
C1    C     C_R   0.620022 0.101088 0.569952 0.546397
C2    C     C_1   0.630919 0.732222 0.616010 -0.019432
C3    C     C_3   0.685329 0.567395 0.767563 -0.103480
C4    C     C_3   0.680501 0.655725 0.804495 0.054093
C5    C     C_3   0.581199 0.664547 0.741342 -0.105208
C6    C     C_3   0.664070 0.684212 0.710076 0.053514
C7    C     C_3   0.576592 0.752462 0.778968 -0.101539
C8    C     C_3   0.659333 0.772612 0.746964 -0.099286
C9    C     C_1   0.689087 0.634478 0.856682 -0.060358
C10   C     C_1   0.649596 0.705284 0.657923 -0.062384
C11   C     C_3   0.065005 0.217304 0.737054 -0.098696
C12   C     C_R   0.599629 0.779381 0.568493 0.545103
C13   C     C_3   0.102273 0.113980 0.771049 -0.089701
C14   C     C_1   0.099368 0.199435 0.900571 -0.016461
C15   C     C_1   0.231074 0.137237 0.617419 -0.027868
C16   C     C_3   0.113796 0.270080 0.773174 -0.102474
C17   C     C_3   0.151492 0.166617 0.806400 0.047186
C18   C     C_3   0.231801 0.205945 0.747285 -0.100970
C19   C     C_3   0.182603 0.153297 0.711883 0.055179
C20   C     C_3   0.269161 0.102680 0.781268 -0.106629
C21   C     C_3   0.220472 0.049704 0.745041 -0.093934
C22   C     C_1   0.128255 0.179943 0.858616 -0.059720
C23   C     C_R   0.277920 0.121602 0.569454 0.545221
C24   C     C_1   0.204316 0.145898 0.659592 -0.068813
C25   C     C_3   0.602822 0.278879 0.741184 0.017574
C26   C     C_3   0.547372 0.238568 0.779652 -0.094112
C27   C     C_1   0.690948 0.205799 0.901808 -0.015498
C28   C     C_1   0.633631 0.132488 0.618130 -0.019350
C29   C     C_3   0.715776 0.225511 0.770065 -0.107743
C30   C     C_3   0.660611 0.183447 0.807755 0.034902
C31   C     C_3   0.758102 0.112173 0.741624 0.017601
C32   C     C_3   0.646329 0.166405 0.712763 0.052068
C33   C     C_3   0.704540 0.069536 0.779931 -0.109205
C34   C     C_R   0.622259 0.100139 0.431567 0.541219
C35   C     C_3   0.591309 0.124641 0.750737 -0.123431
C36   C     C_1   0.673277 0.194248 0.859931 -0.057821
C37   C     C_1   0.640217 0.151252 0.660392 -0.064523
C38   C     C_R   0.639525 0.725333 0.382289 0.025025
C39   C     C_R   0.717953 0.745250 0.356642 -0.126042
C40   C     C_R   0.729475 0.728979 0.306948 -0.125484
C41   C     C_R   0.665901 0.688657 0.282304 0.036306
C42   C     C_R   0.596185 0.657736 0.308582 -0.119147
C43   C     C_R   0.582066 0.677172 0.358360 -0.125770
C44   C     C_R   0.573060 0.704542 0.202747 -0.126946
C45   C     C_R   0.601973 0.777294 0.430275 0.541684
C46   C     C_R   0.582107 0.680478 0.153378 -0.134481
C47   C     C_R   0.783401 0.624295 0.155426 -0.134713
C48   C     C_R   0.775224 0.645031 0.204918 -0.128627
C49   C     C_R   0.671144 0.680498 0.229277 0.036870
C50   C     C_R   0.688984 0.633996 0.130107 0.023608
C51   C     C_R   0.239819 0.134762 0.380656 0.016137
C52   C     C_R   0.191343 0.072239 0.361713 -0.133833
C53   C     C_R   0.164971 0.079673 0.312555 -0.133032
C54   C     C_R   0.189758 0.147192 0.282056 0.018965
C55   C     C_R   0.243754 0.205915 0.300582 -0.008119
C56   C     C_R   0.281892 0.119224 0.430243 0.542650
C57   C     C_R   0.265352 0.201359 0.349871 -0.122027
C58   C     C_R   0.076769 0.279929 0.217901 -0.102851
C59   C     C_R   0.050573 0.304125 0.169589 -0.113994
C60   C     C_R   0.157851 0.101282 0.149709 -0.130659
C61   C     C_R   0.187901 0.077092 0.198347 -0.129792
C62   C     C_R   0.148436 0.166985 0.232283 0.028766
C63   C     C_R   0.091210 0.215339 0.135189 0.033500
C64   C     C_R   0.643013 0.139011 0.385261 0.024077
C65   C     C_R   0.553476 0.235610 0.363160 -0.132286
C66   C     C_R   0.561550 0.256733 0.314573 -0.122107
C67   C     C_3   0.768099 0.587430 0.735535 -0.102042
C68   C     C_R   0.659562 0.182251 0.287595 0.036758
C69   C     C_R   0.753011 0.091572 0.310718 -0.123623
C70   C     C_R   0.744794 0.069935 0.359287 -0.130851
C71   C     C_R   0.710043 0.100106 0.204128 -0.122678
C72   C     C_R   0.721360 0.112463 0.154766 -0.132307
C73   C     C_R   0.628752 0.318227 0.166249 -0.135990
C74   C     C_R   0.619837 0.305664 0.215680 -0.119980
C75   C     C_R   0.662789 0.196337 0.235092 0.039240
C76   C     C_R   0.683313 0.221364 0.135824 0.020795
C77   C     C_R   0.050247 0.234707 0.948067 0.544799
C78   C     C_3   0.763591 0.675356 0.773319 -0.099883
C79   C     C_R   0.712101 0.561862 0.946398 0.545322
C80   C     C_R   0.722519 0.223959 0.949211 0.544638
C81   C     C_R   0.046924 0.244254 0.086348 0.537843
C82   C     C_R   0.708569 0.573159 0.084007 0.538691
C83   C     C_R   0.719741 0.233711 0.087560 0.540881
C84   C     C_1   0.697759 0.607831 0.898668 -0.017726
Cr1   Cr    Cr6+3 0.417550 0.169090 0.500530 1.014962
Cr2   Cr    Cr6+3 0.669180 0.913420 0.499920 1.021016
Cr3   Cr    Cr6+3 0.413260 0.917540 0.499520 1.018348
Cr4   Cr    Cr6+3 0.909770 0.175810 0.018240 1.024510
Cr5   Cr    Cr6+3 0.913300 0.427650 0.016090 1.019263
Cr6   Cr    Cr6+3 0.657770 0.431010 0.016900 1.018336
H1    H     H_    0.838280 0.680271 0.787100 0.100296
H2    H     H_    0.352877 0.055757 0.799875 0.098811
H3    H     H_    0.285089 0.244027 0.736930 0.100322
H4    H     H_    0.069904 0.360928 0.785323 0.105465
H5    H     H_    0.460505 0.290405 0.795862 0.101604
H6    H     H_    0.539607 0.083605 0.742323 0.100312
H7    H     H_    0.744155 0.983933 0.796821 0.097286
H8    H     H_    0.767603 0.266507 0.778319 0.092820
H9    H     H_    0.763369 0.782817 0.374116 0.133633
H10   H     H_    0.846459 0.519450 0.717201 0.099649
H11   H     H_    0.490606 0.736945 0.220491 0.098897
H12   H     H_    0.507508 0.690887 0.134242 0.122439
H13   H     H_    0.783421 0.754008 0.287690 0.098530
H14   H     H_    0.852242 0.626193 0.224346 0.098562
H15   H     H_    0.866388 0.590679 0.138041 0.124695
H16   H     H_    0.549678 0.622188 0.290475 0.098562
H17   H     H_    0.521954 0.660341 0.377581 0.123494
H18   H     H_    0.173791 0.018326 0.384856 0.118589
H19   H     H_    0.044107 0.349796 0.244049 0.116444
H20   H     H_    0.995236 0.392214 0.159345 0.122978
H21   H     H_    0.648850 0.857202 0.737804 0.103720
H22   H     H_    0.123472 0.034616 0.298431 0.110459
H23   H     H_    0.243373 0.989463 0.209322 0.104061
H24   H     H_    0.186861 0.031882 0.123518 0.110623
H25   H     H_    0.308092 0.245564 0.363670 0.130752
H26   H     H_    0.474152 0.290783 0.382413 0.121778
H27   H     H_    0.740851 0.015154 0.218288 0.105566
H28   H     H_    0.763835 0.036922 0.131753 0.122566
H29   H     H_    0.488810 0.327698 0.297580 0.123026
H30   H     H_    0.583329 0.381023 0.238881 0.103722
H31   H     H_    0.498092 0.820345 0.797253 0.100125
H32   H     H_    0.600383 0.403123 0.152500 0.133766
H33   H     H_    0.830946 0.035222 0.290820 0.101857
H34   H     H_    0.815523 0.995548 0.375615 0.123115
H35   H     H_    0.506293 0.660194 0.727555 0.099622
H36   H     H_    0.696566 0.482604 0.776820 0.096025
H37   H     H_    0.049083 0.075973 0.781576 0.122890
H38   H     H_    0.981265 0.264555 0.718489 0.096631
H39   H     H_    0.264419 0.958906 0.732840 0.105476
O1    O     O_R   0.301780 0.195490 0.553940 -0.506048
O2    O     O_R   0.658840 0.818280 0.449970 -0.507574
O3    O     O_R   0.503160 0.801780 0.445740 -0.516340
O4    O     O_R   0.319320 0.022190 0.450230 -0.497956
O5    O     O_3   0.499990 0.000010 0.499990 -0.243818
O6    O     O_R   0.819250 0.149410 0.965240 -0.508633
O7    O     O_R   0.006940 0.180310 0.968270 -0.495734
O8    O     O_R   0.028420 0.332670 0.963010 -0.506544
O9    O     O_R   0.810130 0.520390 0.966030 -0.494418
O10   O     O_R   0.636050 0.541380 0.962520 -0.507175
O11   O     O_R   0.666480 0.323610 0.968170 -0.494153
O12   O     O_R   0.522450 0.158840 0.550250 -0.498139
O13   O     O_R   0.817280 0.156800 0.072180 -0.511778
O14   O     O_R   0.005110 0.187160 0.067410 -0.497475
O15   O     O_R   0.026450 0.340060 0.069950 -0.521359
O16   O     O_R   0.808300 0.527240 0.065170 -0.507208
O17   O     O_R   0.634070 0.548770 0.069460 -0.523872
O18   O     O_R   0.664650 0.330470 0.067300 -0.506130
O19   O     O_3   0.826940 0.344820 0.017080 -0.245036
O20   O     O_R   0.694460 0.003360 0.553820 -0.502515
O21   O     O_R   0.657750 0.819520 0.549120 -0.492230
O22   O     O_R   0.501990 0.803120 0.552700 -0.511907
O23   O     O_R   0.318230 0.023430 0.549370 -0.496951
O24   O     O_R   0.302950 0.194150 0.446980 -0.525153
O25   O     O_R   0.523540 0.157600 0.451100 -0.507188
O26   O     O_R   0.695630 0.002030 0.446860 -0.523750
C85   C     C_3   0.546138 0.399438 0.720465 -0.261781
C86   C     C_3   0.433069 0.431044 0.695269 -0.290374
C87   C     C_3   0.373537 0.554345 0.677748 -0.455842
H40   H     H_    0.350535 0.614395 0.709045 0.139545
H41   H     H_    0.430282 0.567198 0.652437 0.158587
H42   H     H_    0.293731 0.573843 0.658461 0.147042
H43   H     H_    0.449646 0.373321 0.663604 0.175002
H44   H     H_    0.374736 0.421210 0.720825 0.156193
H45   H     H_    0.529376 0.460544 0.750825 0.140745
H46   H     H_    0.606264 0.404634 0.694344 0.138627
C88   C     C_R   0.875357 0.045312 0.718849 0.030876
C89   C     C_R   0.952568 0.932936 0.733133 -0.097914
C90   C     C_R   0.060584 0.871704 0.711017 -0.119772
C91   C     C_R   0.091862 0.921790 0.674349 -0.103714
C92   C     C_R   0.015400 0.033438 0.659918 -0.102056
C93   C     C_R   0.907883 0.095361 0.682295 -0.098499
H47   H     H_    0.929843 0.892404 0.761273 0.096218
H48   H     H_    0.119941 0.785250 0.722209 0.101573
H49   H     H_    0.175396 0.874225 0.657218 0.110078
H50   H     H_    0.039498 0.072179 0.631472 0.114160
H51   H     H_    0.849642 0.182044 0.670925 0.098569
C94   C     C_R   0.279557 0.271403 0.269084 0.028138
C95   C     C_R   0.350793 0.218740 0.228501 -0.074592
C96   C     C_R   0.379264 0.282214 0.197499 -0.097457
C97   C     C_R   0.337822 0.398263 0.206967 -0.106867
C98   C     C_R   0.268667 0.450805 0.247699 -0.131783
C99   C     C_R   0.239805 0.387696 0.278778 -0.119740
H52   H     H_    0.383425 0.128899 0.220702 0.114120
H53   H     H_    0.433573 0.241407 0.166147 0.120093
H54   H     H_    0.359922 0.447296 0.182909 0.108370
H55   H     H_    0.237071 0.540565 0.255098 0.101017
H56   H     H_    0.184712 0.429901 0.309810 0.101928

loop_
_geom_bond_atom_site_label_1
_geom_bond_atom_site_label_2
_ccdc_geom_bond_type
C44   C49   A    
C58   C62   A    
Cr5   O19   S    
C66   C68   A    
C23   O23   A    
C8    C78   S    
C86   C87   S    
C58   H19   S    
C73   C74   A    
Cr3   O4    S    
C79   O10   A    
C12   O22   A    
C72   C76   A    
C2    C12   S    
C17   C20   S    
C95   C96   A    
C3    H36   S    
C7    C8    S    
C57   H25   S    
C98   C99   A    
C97   C98   A    
C68   C75   S    
Cr5   O16   S    
C46   H12   S    
C11   C19   S    
Cr6   O18   S    
C80   O6    A    
C29   H8    S    
C63   C81   S    
C60   C63   A    
C28   C37   T    
C85   C86   S    
C19   C21   S    
C77   O8    A    
C18   C19   S    
Cr2   O21   S    
C5    C6    S    
Cr2   O2    S    
C92   C93   A    
C69   H33   S    
C94   C99   A    
C48   H14   S    
C59   H20   S    
C51   C56   S    
C41   C42   A    
C14   C77   S    
C41   C49   S    
C38   C45   S    
Cr6   O19   S    
C87   H42   S    
C60   H24   S    
Cr2   O5    S    
C81   O15   A    
Cr6   O10   S    
C31   C32   S    
C16   C17   S    
C47   H15   S    
C1    C28   S    
C91   H49   S    
C31   C33   S    
C35   H6    S    
C51   C57   A    
C77   O7    A    
C64   C70   A    
C86   H44   S    
Cr4   O14   S    
C18   C20   S    
C95   H52   S    
Cr1   O5    S    
C99   H56   S    
C61   C62   A    
C25   C32   S    
C15   C23   S    
C88   C93   A    
Cr3   O22   S    
C25   C85   S    
C87   H41   S    
C55   C94   S    
Cr3   O5    S    
Cr1   O24   S    
C67   C78   S    
C7    H31   S    
C4    C7    S    
C76   C83   S    
Cr4   O13   S    
C82   O17   A    
C44   C46   A    
C56   O4    A    
C47   C50   A    
C92   H50   S    
C34   O25   A    
C25   C29   S    
C90   H48   S    
C74   C75   A    
C71   H27   S    
C51   C52   A    
Cr5   O9    S    
C32   C35   S    
C90   C91   A    
C38   C39   A    
Cr4   O7    S    
C27   C80   S    
C8    H21   S    
Cr1   O12   S    
C89   C90   A    
C5    C7    S    
C68   C69   A    
C6    C8    S    
C54   C62   S    
C58   C59   A    
C34   O26   A    
C23   O1    A    
C60   C61   A    
Cr3   O3    S    
Cr2   O26   S    
C4    C78   S    
C29   C30   S    
C12   O21   A    
Cr1   O1    S    
C20   H2    S    
C11   C16   S    
C39   H9    S    
C47   C48   A    
C31   C88   S    
C44   H11   S    
C34   C64   S    
Cr4   O19   S    
C13   C21   S    
C91   C92   A    
C43   H17   S    
C32   C37   S    
C20   C21   S    
C1    O20   A    
C42   H16   S    
C21   H39   S    
C67   H10   S    
C83   O18   A    
C53   H22   S    
C16   C18   S    
C15   C24   T    
C45   O2    A    
Cr5   O8    S    
Cr3   O23   S    
C55   C57   A    
C87   H40   S    
C61   H23   S    
C88   C89   A    
C27   C36   T    
C65   H26   S    
Cr2   O20   S    
C42   C43   A    
C72   H28   S    
C3    C4    S    
C2    C10   T    
C6    C67   S    
C39   C40   A    
C82   O16   A    
C52   C53   A    
C50   C82   S    
C96   H53   S    
C26   H5    S    
C54   C55   A    
C40   C41   A    
C30   C33   S    
C59   C63   A    
C73   H32   S    
C3    C67   S    
Cr4   O6    S    
C56   O24   A    
C3    C5    S    
C6    C10   S    
C83   O13   A    
Cr6   O11   S    
C98   H55   S    
C53   C54   A    
C89   H47   S    
C13   C17   S    
C78   H1    S    
Cr5   O15   S    
C74   H30   S    
C93   H51   S    
C46   C50   A    
C16   H4    S    
C17   C22   S    
C30   C36   S    
C66   H29   S    
C64   C65   A    
C14   C22   T    
C19   C24   S    
C25   C26   S    
C38   C43   A    
Cr6   O17   S    
C80   O11   A    
C40   H13   S    
C71   C75   A    
C11   C13   S    
C79   C84   S    
C85   H46   S    
C48   C49   A    
C33   C35   S    
C11   H38   S    
C33   H7    S    
Cr1   O25   S    
C65   C66   A    
C69   C70   A    
C85   H45   S    
C1    O12   A    
C97   H54   S    
C9    C84   T    
C96   C97   A    
C13   H37   S    
C70   H34   S    
C26   C35   S    
C81   O14   A    
C79   O9    A    
C71   C72   A    
C73   C76   A    
C52   H18   S    
C45   O3    A    
C29   C31   S    
C94   C95   A    
C5    H35   S    
C18   H3    S    
C4    C9    S    
C86   H43   S    
C26   C30   S    
