data_mof_unit_6201.cif
_audit_creation_date              2012-12-10T20:31:07-0500
_audit_creation_method            fapswitch 2.2
_symmetry_space_group_name_H-M    P1
_symmetry_Int_Tables_number       1
_space_group_crystal_system       triclinic
_cell_length_a                    14.859685
_cell_length_b                    10.63758
_cell_length_c                    9.957538
_cell_angle_alpha                 88.194913
_cell_angle_beta                  90.230902
_cell_angle_gamma                 91.694232
_cell_volume                      1572.52248674

loop_
_atom_site_label
_atom_site_type_symbol
_atom_type_description
_atom_site_fract_x
_atom_site_fract_y
_atom_site_fract_z
_atom_type_partial_charge
C1    C     C_R   0.498037 0.260204 0.501934 0.845024
C2    C     C_R   0.184462 0.376909 0.500540 0.438599
C3    C     C_R   0.232286 0.492892 0.498924 -0.129464
C4    C     C_R   0.327533 0.498781 0.499867 0.843397
C5    C     C_R   0.190222 0.606740 0.489511 -0.216073
C6    C     C_R   0.427383 0.056090 0.563079 0.036088
C7    C     C_R   0.497912 0.127488 0.503211 -0.127053
C8    C     C_R   0.558997 0.070707 0.418424 -0.163869
C9    C     C_R   0.558147 0.941039 0.411518 -0.207564
C10   C     C_R   0.496615 0.870415 0.490406 -0.042042
C11   C     C_R   0.428420 0.927844 0.557208 -0.005394
C12   C     C_R   0.910291 0.617856 0.474669 -0.095534
C13   C     C_3   0.391054 0.901837 0.693451 -0.628731
C14   C     C_3   0.389623 0.044768 0.704201 0.850036
C15   C     C_R   0.421190 0.502598 0.070030 -0.055060
C16   C     C_R   0.500977 0.739154 0.497719 0.865520
C17   C     C_R   0.577436 0.520142 0.071052 0.350627
C18   C     C_R   0.578525 0.508815 0.928931 0.485382
C19   C     C_R   0.421467 0.506762 0.928263 -0.143673
C20   C     C_3   0.340665 0.419952 0.923224 0.710166
C21   C     C_3   0.341014 0.413635 0.077590 0.742673
C22   C     C_R   0.672477 0.502126 0.500086 0.853213
C23   C     C_R   0.943864 0.269344 0.518985 0.269378
C24   C     C_R   0.816595 0.620999 0.490367 0.427315
C25   C     C_R   0.767749 0.506076 0.499797 -0.146098
C26   C     C_R   0.808852 0.391270 0.503431 -0.278303
C27   C     C_R   0.901790 0.386211 0.504589 0.011356
C28   C     C_R   0.953019 0.499777 0.487248 -0.100375
C29   C     C_3   0.258824 0.057413 0.832573 0.198968
C30   C     C_3   0.169106 0.122236 0.839164 -0.737086
C31   C     C_3   0.709164 0.410988 0.883053 0.168038
C32   C     C_3   0.809264 0.443281 0.869690 -0.785822
C33   C     C_3   0.189800 0.384504 0.136377 0.141464
C34   C     C_R   0.037707 0.264276 0.507715 0.416124
C35   C     C_3   0.104347 0.459734 0.130252 -0.858108
C36   C     C_3   0.142876 0.844942 0.299162 0.100543
C37   C     C_3   0.156320 0.982783 0.256248 -0.743328
C38   C     C_3   0.896593 0.859979 0.292723 0.163694
C39   C     C_3   0.849762 0.984473 0.273061 -0.724131
C40   C     C_R   0.089875 0.377789 0.498051 -0.017407
C41   C     C_R   0.046831 0.495622 0.486279 -0.131727
C42   C     C_R   0.097936 0.609826 0.474854 -0.053419
C43   C     C_R   0.056300 0.725229 0.448443 0.358950
C44   C     C_R   0.962565 0.729475 0.447735 0.411987
H1    H     H_    0.608443 0.896213 0.352357 0.155659
H2    H     H_    0.122650 0.084954 0.761519 0.291583
H3    H     H_    0.138080 0.104192 0.939417 0.166401
H4    H     H_    0.178991 0.225304 0.821610 0.290762
H5    H     H_    0.509048 0.059729 0.788866 0.311559
H6    H     H_    0.637473 0.629115 0.191247 0.353422
H7    H     H_    0.689440 0.342619 0.805231 0.144441
H8    H     H_    0.698747 0.363810 0.983730 0.135003
H9    H     H_    0.831548 0.503889 0.953076 0.264914
H10   H     H_    0.848223 0.355735 0.873948 0.195193
H11   H     H_    0.823143 0.494344 0.772881 0.265723
H12   H     H_    0.323974 0.853528 0.686469 0.206927
H13   H     H_    0.261336 0.563235 0.893916 0.329010
H14   H     H_    0.354582 0.317283 0.768870 0.397669
H15   H     H_    0.189458 0.325018 0.229917 0.174041
H16   H     H_    0.188586 0.320992 0.049530 0.171398
H17   H     H_    0.099467 0.510394 0.031388 0.266884
H18   H     H_    0.044531 0.395545 0.143648 0.213585
H19   H     H_    0.105097 0.529598 0.210484 0.255776
H20   H     H_    0.359964 0.301784 0.232215 0.352580
H21   H     H_    0.850022 0.175701 0.616145 0.338485
H22   H     H_    0.035166 0.079359 0.506017 0.409777
H23   H     H_    0.439227 0.855894 0.763708 0.209275
H24   H     H_    0.293723 0.275550 0.499784 0.312747
H25   H     H_    0.099681 0.798012 0.222617 0.099856
H26   H     H_    0.209697 0.801110 0.298109 0.158769
H27   H     H_    0.201153 0.031558 0.328799 0.304222
H28   H     H_    0.187792 0.990164 0.155262 0.181915
H29   H     H_    0.090464 0.029491 0.251969 0.249557
H30   H     H_    0.848798 0.783067 0.263007 0.151062
H31   H     H_    0.955466 0.861396 0.224494 0.101335
H32   H     H_    0.897578 0.063720 0.293943 0.263733
H33   H     H_    0.825583 0.994965 0.167754 0.181105
H34   H     H_    0.766747 0.306217 0.505723 0.160660
H35   H     H_    0.791242 0.987722 0.341820 0.276628
H36   H     H_    0.230824 0.693025 0.492044 0.170968
H37   H     H_    0.609284 0.126224 0.362305 0.160887
H38   H     H_    0.711026 0.724372 0.520941 0.317968
H39   H     H_    0.300103 0.085216 0.920794 0.219147
H40   H     H_    0.244760 0.954328 0.840398 0.103386
N1    N     N_R   0.499390 0.499140 0.142800 -0.162736
N2    N     N_R   0.499390 0.499180 0.857150 -0.153153
O1    O     O_R   0.500010 0.316790 0.614690 -0.601552
O2    O     O_3   0.301686 0.092521 0.709549 -0.564043
O3    O     O_3   0.448460 0.094248 0.802170 -0.738954
O4    O     O_3   0.655217 0.560590 0.132517 -0.736214
O5    O     O_3   0.659859 0.522098 0.863061 -0.562164
O6    O     O_3   0.264178 0.475165 0.864246 -0.788232
O7    O     O_3   0.359990 0.305143 0.867427 -0.689678
O8    O     O_3   0.265577 0.468480 0.137013 -0.651364
O9    O     O_3   0.362391 0.294816 0.133326 -0.766457
O10   O     O_3   0.895301 0.158890 0.546697 -0.763533
O11   O     O_3   0.079868 0.149837 0.511529 -0.684273
O12   O     O_R   0.500000 0.316760 0.385350 -0.610268
O13   O     O_3   0.227709 0.263101 0.505470 -0.688314
O14   O     O_3   0.106049 0.836962 0.430431 -0.572680
O15   O     O_3   0.923643 0.845465 0.428554 -0.509689
O16   O     O_R   0.367850 0.499990 0.614680 -0.601653
O17   O     O_R   0.367840 0.499950 0.385340 -0.602239
O18   O     O_R   0.500000 0.683240 0.614650 -0.607351
O19   O     O_R   0.499990 0.683210 0.385310 -0.633279
O20   O     O_R   0.632160 0.500050 0.614660 -0.573259
O21   O     O_R   0.632150 0.500010 0.385320 -0.592405
O22   O     O_3   0.775364 0.735869 0.497446 -0.733632
Zn1   Zn    Zn3+2 0.500010 0.500020 0.653130 1.000279
Zn2   Zn    Zn3+2 0.499990 0.499980 0.346870 0.974550

loop_
_geom_bond_atom_site_label_1
_geom_bond_atom_site_label_2
_ccdc_geom_bond_type
C1    O1    A    
O19   Zn2   S    
C9    H1    S    
O12   Zn2   S    
H13   O6    S    
C41   C42   A    
C19   C20   S    
C31   H8    S    
C20   O7    S    
C19   N2    A    
C33   O8    S    
C7    C8    A    
C15   C19   A    
C20   O6    S    
C26   C27   A    
C18   N2    A    
C12   C28   A    
O17   Zn2   S    
C17   N1    A    
C18   O5    S    
C39   H33   S    
H22   O11   S    
C30   H4    S    
C36   C37   S    
H14   O7    S    
C29   H39   S    
C38   O15   S    
C13   H23   S    
C38   C39   S    
C21   O8    S    
C22   O21   A    
C4    O17   A    
C28   C41   A    
C34   O11   S    
C23   O10   S    
C29   O2    S    
C16   O18   A    
H21   O10   S    
C8    C9    A    
C22   C25   S    
H6    O4    S    
C24   O22   S    
C23   C27   A    
C9    C10   A    
C32   H11   S    
C15   N1    A    
C13   H12   S    
C33   H15   S    
C13   C14   S    
C32   H10   S    
C36   H26   S    
C38   H31   S    
C8    H37   S    
C30   H3    S    
N2    Zn1   S    
C24   C25   A    
C29   H40   S    
C36   O14   S    
N1    Zn2   S    
H5    O3    S    
C6    C11   A    
C21   O9    S    
C25   C26   A    
C22   O20   A    
C4    O16   A    
C39   H35   S    
C43   C44   A    
C14   O3    S    
C29   C30   S    
C6    C14   S    
C31   C32   S    
C23   C34   A    
C17   C18   A    
C35   H17   S    
C26   H34   S    
C39   H32   S    
C43   O14   S    
C5    H36   S    
C16   O19   A    
C40   C41   A    
C2    O13   S    
C33   H16   S    
H38   O22   S    
C37   H27   S    
O21   Zn2   S    
C34   C40   A    
C42   C43   A    
C3    C4    S    
C32   H9    S    
C36   H25   S    
C5    C42   A    
C38   H30   S    
C37   H29   S    
C1    C7    S    
C30   H2    S    
C17   O4    S    
H20   O9    S    
C31   H7    S    
C3    C5    A    
C1    O12   A    
C44   O15   S    
C6    C7    A    
O1    Zn1   S    
C12   C24   A    
C31   O5    S    
C2    C3    A    
H24   O13   S    
C14   O2    S    
C12   C44   A    
C10   C16   S    
C11   C13   S    
O18   Zn1   S    
C33   C35   S    
C35   H18   S    
C10   C11   A    
C2    C40   A    
C15   C21   S    
C20   C21   S    
C37   H28   S    
C27   C28   A    
O16   Zn1   S    
C35   H19   S    
O20   Zn1   S    
