data_mof_unit_37870.cif
_audit_creation_date              2013-03-05T16:22:52-0500
_audit_creation_method            fapswitch 2.2
_symmetry_space_group_name_H-M    P1
_symmetry_Int_Tables_number       1
_space_group_crystal_system       triclinic
_cell_length_a                    13.932449
_cell_length_b                    13.924913
_cell_length_c                    15.141017
_cell_angle_alpha                 91.742798
_cell_angle_beta                  91.009224
_cell_angle_gamma                 86.086675
_cell_volume                      2928.92037029

loop_
_atom_site_label
_atom_site_type_symbol
_atom_site_description
_atom_site_fract_x
_atom_site_fract_y
_atom_site_fract_z
_atom_type_partial_charge
O1    O     O_R   0.581430 0.500010 0.371450 -0.573691
O2    O     O_R   0.418570 0.499990 0.628550 -0.579928
O3    O     O_R   0.418560 0.500010 0.371460 -0.580591
O4    O     O_R   0.581440 0.499990 0.628540 -0.580017
C1    C     C_R   0.499483 0.498076 0.330135 0.797416
C2    C     C_R   0.500506 0.495727 0.670129 0.789484
O5    O     O_R   0.592950 0.362150 0.500010 -0.588479
O6    O     O_R   0.407050 0.637850 0.499990 -0.583401
O7    O     O_R   0.430080 0.362150 0.500020 -0.581084
O8    O     O_R   0.569920 0.637850 0.499980 -0.574562
C3    C     C_R   0.514472 0.317351 0.499467 0.816488
C4    C     C_R   0.485269 0.682504 0.500051 0.833564
Cu1   Cu    Cu3+1 0.596430 0.500000 0.499990 0.949912
Cu2   Cu    Cu3+1 0.403570 0.500000 0.500010 0.947969
C5    C     C_1   0.477420 0.784679 0.501100 -0.165404
C6    C     C_1   0.520456 0.215019 0.492768 -0.195145
C7    C     C_2   0.460788 0.974102 0.505436 -0.039275
C8    C     C_2   0.529817 0.025924 0.471989 -0.036407
C9    C     C_1   0.524476 0.128973 0.484247 -0.061421
C10   C     C_1   0.469951 0.870859 0.502669 -0.043735
C11   C     C_R   0.567389 0.443430 0.093608 -0.195890
C12   C     C_R   0.421098 0.465911 0.905691 -0.199776
C13   C     C_R   0.568983 0.439681 0.185292 -0.006499
C14   C     C_R   0.419996 0.459737 0.813531 -0.000999
C15   C     C_R   0.498387 0.495477 0.233697 -0.069642
C16   C     C_R   0.500369 0.489122 0.767250 -0.095424
C17   C     C_R   0.426661 0.551803 0.189307 -0.260517
C18   C     C_R   0.581185 0.516724 0.815140 -0.254147
C19   C     C_R   0.424884 0.555237 0.097108 0.011049
C20   C     C_R   0.582136 0.523933 0.907146 0.017934
C21   C     C_R   0.497504 0.501386 0.049330 0.034186
C22   C     C_R   0.499903 0.499783 0.952548 0.042926
C23   C     C_R   0.105900 0.552142 0.564591 -0.281105
C24   C     C_R   0.895872 0.419711 0.463014 -0.290314
C25   C     C_R   0.206970 0.553404 0.561936 0.098331
C26   C     C_R   0.794242 0.423674 0.462551 0.069633
N1    N     N_R   0.258690 0.500000 0.500020 -0.186636
N2    N     N_R   0.741310 0.500000 0.499980 -0.188857
C27   C     C_R   0.210602 0.443796 0.439325 0.186540
C28   C     C_R   0.789598 0.575168 0.537454 0.187767
C29   C     C_R   0.109772 0.443027 0.439139 -0.319607
C30   C     C_R   0.890338 0.575010 0.535154 -0.310128
C31   C     C_R   0.054977 0.496779 0.501911 0.119130
C32   C     C_R   0.946113 0.496562 0.499944 0.120893
C33   C     C_R   0.613825 0.980688 0.422843 0.124707
C34   C     C_R   0.707595 0.004980 0.445809 -0.190799
C35   C     C_R   0.786636 0.963243 0.399622 -0.150734
C36   C     C_R   0.772883 0.897560 0.329708 -0.116068
C37   C     C_R   0.679992 0.874012 0.305432 -0.145873
C38   C     C_R   0.600707 0.915751 0.351280 -0.139299
H1    H     H_    0.719550 0.055522 0.500037 0.130316
H2    H     H_    0.858595 0.981834 0.418091 0.125338
H3    H     H_    0.834167 0.865211 0.294092 0.121453
H4    H     H_    0.669357 0.823673 0.250816 0.122567
H5    H     H_    0.529133 0.897893 0.330559 0.124100
C39   C     C_R   0.374889 0.018488 0.550580 0.155471
C40   C     C_R   0.290361 0.041474 0.501729 -0.157046
C41   C     C_R   0.205273 0.071586 0.545119 -0.168948
C42   C     C_R   0.203987 0.077998 0.637431 -0.126407
C43   C     C_R   0.288281 0.056113 0.686407 -0.145359
C44   C     C_R   0.373566 0.026221 0.643189 -0.152277
H6    H     H_    0.289794 0.033532 0.430369 0.118466
H7    H     H_    0.140113 0.088916 0.507240 0.127026
H8    H     H_    0.138004 0.100980 0.670965 0.124930
H9    H     H_    0.287311 0.061639 0.757849 0.129092
H10   H     H_    0.437900 0.007068 0.681736 0.119806
H11   H     H_    0.620019 0.399007 0.055903 0.146106
H12   H     H_    0.360735 0.442250 0.941651 0.139079
C45   C     C_R   0.641507 0.371758 0.226797 0.121077
C46   C     C_R   0.739988 0.378943 0.211627 -0.136786
C47   C     C_R   0.808006 0.309873 0.244305 -0.159136
C48   C     C_R   0.778171 0.232722 0.291407 -0.143453
C49   C     C_R   0.680395 0.225283 0.306785 -0.135090
C50   C     C_R   0.612220 0.294618 0.275013 -0.137940
H13   H     H_    0.763842 0.437504 0.173884 0.140696
H14   H     H_    0.883758 0.315791 0.232584 0.129259
H15   H     H_    0.830752 0.178945 0.316265 0.129111
H16   H     H_    0.657288 0.165423 0.342704 0.155084
H17   H     H_    0.536660 0.287056 0.286315 0.125133
C51   C     C_R   0.335692 0.418593 0.768955 0.120479
C52   C     C_R   0.241883 0.456957 0.787250 -0.176200
C53   C     C_R   0.162749 0.419386 0.743697 -0.147586
C54   C     C_R   0.176713 0.344487 0.680706 -0.115036
C55   C     C_R   0.269669 0.305787 0.662657 -0.112836
C56   C     C_R   0.348588 0.340563 0.708271 -0.083625
H18   H     H_    0.230174 0.516672 0.834247 0.141738
H19   H     H_    0.090742 0.449618 0.757486 0.127390
H20   H     H_    0.115657 0.316972 0.645427 0.125029
H21   H     H_    0.281060 0.249280 0.612867 0.146230
H22   H     H_    0.420043 0.308802 0.694217 0.098959
H23   H     H_    0.372691 0.594573 0.226824 0.150896
H24   H     H_    0.643516 0.535030 0.780689 0.159987
C57   C     C_R   0.346013 0.613895 0.052718 0.105527
C58   C     C_R   0.366074 0.683920 0.991847 -0.128963
C59   C     C_R   0.291109 0.735948 0.948165 -0.139643
C60   C     C_R   0.195568 0.719073 0.965118 -0.123107
C61   C     C_R   0.174804 0.650350 0.026031 -0.142485
C62   C     C_R   0.249550 0.598118 0.069818 -0.171672
H25   H     H_    0.439455 0.698046 0.977665 0.114818
H26   H     H_    0.307134 0.789280 0.901012 0.125447
H27   H     H_    0.137633 0.759252 0.931071 0.122189
H28   H     H_    0.100754 0.637183 0.039022 0.119794
H29   H     H_    0.232133 0.544241 0.115825 0.115226
C63   C     C_R   0.670023 0.556452 0.953261 0.095662
C64   C     C_R   0.664357 0.632850 0.016370 -0.137484
C65   C     C_R   0.747452 0.661936 0.059645 -0.137630
C66   C     C_R   0.836998 0.615761 0.039917 -0.121653
C67   C     C_R   0.843638 0.540477 0.976760 -0.145073
C68   C     C_R   0.760705 0.510940 0.933508 -0.176831
H30   H     H_    0.595955 0.670038 0.032261 0.116901
H31   H     H_    0.742419 0.720461 0.108409 0.119267
H32   H     H_    0.901253 0.638419 0.073460 0.115398
H33   H     H_    0.913080 0.504815 0.961438 0.123237
H34   H     H_    0.767086 0.451892 0.885269 0.124855
H35   H     H_    0.068852 0.593329 0.616866 0.125877
H36   H     H_    0.934053 0.355782 0.435558 0.126915
H37   H     H_    0.244050 0.596349 0.610632 0.128490
H38   H     H_    0.758005 0.364093 0.433648 0.155369
C69   C     C_R   0.260302 0.382217 0.370997 0.155074
C70   C     C_R   0.290496 0.286276 0.388368 -0.124677
C71   C     C_R   0.331126 0.225870 0.321510 -0.168421
C72   C     C_R   0.337607 0.259376 0.235934 -0.139690
C73   C     C_R   0.302461 0.352916 0.216889 -0.139713
C74   C     C_R   0.262764 0.413810 0.283893 -0.144707
H39   H     H_    0.283097 0.258483 0.453670 0.130189
H40   H     H_    0.357009 0.152896 0.335798 0.134006
H41   H     H_    0.368910 0.212532 0.184198 0.130146
H42   H     H_    0.305959 0.378117 0.150191 0.133635
H43   H     H_    0.234590 0.485810 0.268353 0.112835
C75   C     C_R   0.742697 0.653501 0.591998 0.153139
C76   C     C_R   0.742091 0.643546 0.683759 -0.157669
C77   C     C_R   0.708845 0.720293 0.739247 -0.150000
C78   C     C_R   0.680048 0.809106 0.703537 -0.129478
C79   C     C_R   0.687050 0.821762 0.612783 -0.137988
C80   C     C_R   0.720081 0.744848 0.557130 -0.127208
H44   H     H_    0.770825 0.576979 0.712152 0.113710
H45   H     H_    0.707294 0.711442 0.809983 0.145072
H46   H     H_    0.654628 0.868768 0.746381 0.122898
H47   H     H_    0.667457 0.891447 0.586012 0.146395
H48   H     H_    0.727211 0.756063 0.487130 0.144929
H49   H     H_    0.074762 0.400852 0.388368 0.131998
H50   H     H_    0.924551 0.636727 0.563137 0.135525

loop_
_geom_bond_atom_site_label_1
_geom_bond_atom_site_label_2
_geom_bond_distance
_ccdc_geom_bond_type
C19   C57   1.487037 S    
C64   H30   1.080475 S    
C57   C58   1.406871 A    
C17   C19   1.397980 A    
C66   H32   1.082450 S    
C13   C45   1.481158 S    
C59   C60   1.396927 A    
C31   C32   1.516716 S    
C61   C62   1.398093 A    
C73   H42   1.082127 S    
C73   C74   1.399137 A    
C27   C29   1.405531 A    
C69   C74   1.404635 A    
C39   C40   1.403128 A    
O5    C3    1.295072 A    
C11   C21   1.396933 A    
C42   H8    1.082467 S    
C48   H15   1.082422 S    
C12   C22   1.397925 A    
C54   C55   1.396650 A    
O1    C1    1.293674 A    
C58   H25   1.080649 S    
C25   N1    1.363578 A    
C14   C16   1.421275 A    
C45   C46   1.405925 A    
C47   H14   1.082371 S    
C65   C66   1.396816 A    
C24   H36   1.081154 S    
C62   H29   1.081469 S    
C72   H41   1.082336 S    
C7    C10   1.434003 S    
C67   C68   1.398204 A    
C5    C10   1.197005 T    
C8    C9    1.438311 S    
C49   C50   1.397411 A    
O4    Cu1   1.961210 S    
C44   H10   1.083325 S    
C14   C51   1.484513 S    
C75   C80   1.405794 A    
C77   C78   1.395737 A    
C30   H50   1.082571 S    
C66   C67   1.396748 A    
C17   H23   1.084484 S    
C46   C47   1.398548 A    
C20   C22   1.411627 A    
C26   H38   1.077983 S    
C37   H4    1.082474 S    
C52   H18   1.083507 S    
C63   C68   1.407061 A    
C28   C30   1.404456 A    
C54   H20   1.082497 S    
C42   C43   1.398657 A    
Cu1   Cu2   2.687016 S    
C11   H11   1.085173 S    
C29   C31   1.396666 A    
O2    C2    1.292568 A    
C30   C32   1.394515 A    
C63   C64   1.407262 A    
C52   C53   1.398673 A    
C65   H31   1.082433 S    
C80   H48   1.083279 S    
C23   H35   1.080831 S    
C23   C31   1.415908 A    
C35   C36   1.397039 A    
C40   H6    1.082707 S    
C24   C32   1.414190 A    
C55   C56   1.395013 A    
O4    C2    1.306901 A    
C76   H44   1.082499 S    
C79   H47   1.079022 S    
C59   H26   1.082393 S    
C48   C49   1.397357 A    
C77   H45   1.082571 S    
C33   C34   1.406872 A    
C49   H16   1.079161 S    
C34   H1    1.083177 S    
C71   H40   1.081678 S    
C43   C44   1.398808 A    
C67   H33   1.082487 S    
O7    Cu2   1.929853 S    
C29   H49   1.082678 S    
C51   C56   1.405542 A    
C3    C6    1.422340 S    
C21   C22   1.465804 S    
C4    C5    1.419143 S    
O5    Cu1   1.923476 S    
O6    C4    1.291006 A    
C60   C61   1.396757 A    
C7    C8    1.355087 D    
C71   C72   1.396899 A    
C45   C50   1.404030 A    
C18   H24   1.070288 S    
C69   C70   1.404183 A    
O7    C3    1.292907 A    
C7    C39   1.477721 S    
C12   H12   1.084970 S    
Cu1   N2    2.018536 S    
C35   H2    1.082364 S    
O3    Cu2   1.961208 S    
O8    C4    1.295185 A    
C68   H34   1.083151 S    
C1    C15   1.459348 S    
C36   C37   1.396925 A    
C43   H9    1.082355 S    
C53   C54   1.397696 A    
C50   H17   1.082223 S    
C11   C13   1.390484 A    
C78   C79   1.396615 A    
C12   C14   1.395304 A    
C25   H37   1.081688 S    
O1    Cu1   1.953754 S    
C55   H21   1.078766 S    
C76   C77   1.397862 A    
C8    C33   1.490629 S    
C70   C71   1.398622 A    
C41   H7    1.082370 S    
C28   C75   1.471646 S    
C34   C35   1.398058 A    
O6    Cu2   1.923476 S    
C70   H39   1.081803 S    
C61   H28   1.082540 S    
C51   C52   1.406703 A    
O3    C1    1.297333 A    
O8    Cu1   1.929853 S    
C56   H22   1.083339 S    
C79   C80   1.400148 A    
C36   H3    1.082450 S    
C15   C17   1.402485 A    
C64   C65   1.398140 A    
C16   C18   1.398086 A    
C38   H5    1.082938 S    
C26   N2    1.365924 A    
C75   C76   1.400674 A    
C41   C42   1.398188 A    
C47   C48   1.397698 A    
C19   C21   1.413703 A    
Cu2   N1    2.018537 S    
N2    C28   1.384446 A    
C40   C41   1.398436 A    
C2    C16   1.476212 S    
C33   C38   1.407522 A    
C6    C9    1.198799 T    
C27   C69   1.474877 S    
C18   C20   1.393527 A    
C23   C25   1.410766 A    
C74   H43   1.082603 S    
C24   C26   1.413159 A    
C13   C15   1.412328 A    
C58   C59   1.398121 A    
O2    Cu2   1.953756 S    
C78   H46   1.082407 S    
N1    C27   1.382775 A    
C37   C38   1.398133 A    
C20   C63   1.489377 S    
C46   H13   1.083524 S    
C39   C44   1.403399 A    
C72   C73   1.396541 A    
C60   H27   1.082374 S    
C57   C62   1.406252 A    
C53   H19   1.082438 S    
