data_mof_unit_36684.cif
_audit_creation_date              2012-12-10T20:26:30-0500
_audit_creation_method            fapswitch 2.2
_symmetry_space_group_name_H-M    P1
_symmetry_Int_Tables_number       1
_space_group_crystal_system       triclinic
_cell_length_a                    10.795138
_cell_length_b                    10.681913
_cell_length_c                    9.897074
_cell_angle_alpha                 89.339982
_cell_angle_beta                  89.202393
_cell_angle_gamma                 90.73166
_cell_volume                      1140.97685913

loop_
_atom_site_label
_atom_site_type_symbol
_atom_type_description
_atom_site_fract_x
_atom_site_fract_y
_atom_site_fract_z
_atom_type_partial_charge
C1    C     C_R   0.508400 0.259887 0.499715 0.873953
C2    C     C_R   0.604469 0.530646 0.068393 0.471270
C3    C     C_R   0.605365 0.524169 0.925311 -0.144721
C4    C     C_R   0.262879 0.497687 0.500494 0.984684
C5    C     C_R   0.391087 0.496072 0.931142 0.073686
C6    C     C_3   0.289472 0.399130 0.930713 0.267290
C7    C     C_3   0.290805 0.398283 0.085097 -0.516289
C8    C     C_R   0.506574 0.739829 0.499230 0.880887
C9    C     C_R   0.736981 0.503168 0.498930 0.974108
C10   C     C_2   0.936160 0.498977 0.387338 0.375693
C11   C     C_2   0.866937 0.525023 0.495790 -0.386397
C12   C     C_R   0.537366 0.128654 0.497229 -0.155525
C13   C     C_2   0.067542 0.527154 0.396020 0.266386
C14   C     C_2   0.132295 0.477918 0.498879 -0.250935
C15   C     C_R   0.541979 0.061942 0.618881 0.110170
C16   C     C_1   0.080477 0.389177 0.597659 0.110492
C17   C     C_1   0.585197 0.126106 0.245647 0.243227
C18   C     C_R   0.563400 0.064414 0.374899 -0.020799
C19   C     C_R   0.560267 0.934283 0.376621 -0.262917
C20   C     C_R   0.534178 0.870442 0.498132 -0.109220
C21   C     C_R   0.540752 0.934176 0.619206 0.132900
C22   C     C_3   0.460706 0.924098 0.742905 -0.477864
C23   C     C_3   0.461681 0.065644 0.742715 -0.421898
C24   C     C_R   0.391394 0.494296 0.073084 0.095870
H1    H     H_    0.512742 0.104529 0.829666 0.212354
H2    H     H_    0.369078 0.105285 0.722233 0.254117
H3    H     H_    0.956363 0.428889 0.208789 0.335182
H4    H     H_    0.677799 0.636209 0.198698 0.350695
H5    H     H_    0.402996 0.259218 0.920325 0.338950
H6    H     H_    0.059289 0.637718 0.238978 0.343913
H7    H     H_    0.690208 0.544366 0.869495 0.180553
H8    H     H_    0.202076 0.434519 0.887230 0.149323
H9    H     H_    0.204775 0.436600 0.130187 0.211519
H10   H     H_    0.322445 0.309533 0.132436 0.215478
H11   H     H_    0.907709 0.566509 0.585055 0.113103
H12   H     H_    0.569557 0.884029 0.282447 0.169591
H13   H     H_    0.367806 0.882530 0.723097 0.213226
H14   H     H_    0.510349 0.882348 0.829826 0.211411
N1    N     N_R   0.499170 0.499140 0.142800 -0.152464
N2    N     N_R   0.499170 0.499180 0.857150 -0.130194
N3    N     N_1   0.039457 0.318461 0.676226 -0.158882
N4    N     N_1   0.602641 0.175173 0.142102 -0.206297
O1    O     O_R   0.500020 0.316790 0.614690 -0.582305
O2    O     O_3   0.708005 0.578356 0.128477 -0.717257
O3    O     O_3   0.326282 0.285494 0.874431 -0.733424
O4    O     O_3   0.123138 0.608654 0.302849 -0.757831
O5    O     O_R   0.500000 0.316760 0.385350 -0.621009
O6    O     O_R   0.319080 0.500020 0.614640 -0.620412
O7    O     O_R   0.319070 0.499980 0.385300 -0.560587
O8    O     O_R   0.500000 0.683240 0.614650 -0.624046
O9    O     O_R   0.499980 0.683210 0.385310 -0.641429
O10   O     O_R   0.680930 0.500020 0.614700 -0.648522
O11   O     O_R   0.680920 0.499980 0.385360 -0.545176
O12   O     O_3   0.887447 0.443704 0.273748 -0.686015
Zn1   Zn    Zn3+2 0.500010 0.500020 0.653130 0.970954
Zn2   Zn    Zn3+2 0.499990 0.499980 0.346870 1.001431

loop_
_geom_bond_atom_site_label_1
_geom_bond_atom_site_label_2
_ccdc_geom_bond_type
O6    Zn1   S    
C6    H8    S    
C12   C15   A    
C6    C7    S    
C6    O3    S    
C13   C14   D    
O7    Zn2   S    
C9    C11   S    
O8    Zn1   S    
O10   Zn1   S    
H6    O4    S    
C4    O7    A    
N2    Zn1   S    
C19   C20   A    
C15   C23   S    
C2    C3    A    
H3    O12   S    
C9    O10   A    
C21   C22   S    
C3    H7    S    
C7    H9    S    
C8    O9    A    
C8    C20   S    
C5    C24   A    
C2    N1    A    
C11   H11   S    
C1    O1    A    
C3    N2    A    
C17   C18   S    
C19   H12   S    
C23   H1    S    
C4    C14   S    
C5    C6    S    
C10   O12   S    
C7    H10   S    
C14   C16   S    
O11   Zn2   S    
H5    O3    S    
C9    O11   A    
C10   C11   D    
C12   C18   A    
C7    C24   S    
C22   H14   S    
C8    O8    A    
C15   C21   A    
C24   N1    A    
C20   C21   A    
C18   C19   A    
C4    O6    A    
C5    N2    A    
O1    Zn1   S    
C23   H2    S    
C13   O4    S    
C1    O5    A    
C17   N4    T    
C22   H13   S    
C16   N3    T    
H4    O2    S    
C22   C23   S    
C1    C12   S    
N1    Zn2   S    
C2    O2    S    
O5    Zn2   S    
C10   C13   S    
O9    Zn2   S    
