data_mof_unit_24809.cif
_audit_creation_date              2012-12-11T16:52:29-0500
_audit_creation_method            fapswitch 2.2
_symmetry_space_group_name_H-M    P1
_symmetry_Int_Tables_number       1
_space_group_crystal_system       monoclinic
_cell_length_a                    7.363221
_cell_length_b                    25.820261
_cell_length_c                    28.729855
_cell_angle_alpha                 90.0
_cell_angle_beta                  89.999989
_cell_angle_gamma                 90.0
_cell_volume                      5462.12830739

loop_
_atom_site_label
_atom_site_type_symbol
_atom_type_description
_atom_site_fract_x
_atom_site_fract_y
_atom_site_fract_z
_atom_type_partial_charge
O1    O     O_R   0.601030 0.796770 0.202460 -0.531346
O2    O     O_R   0.398970 0.203230 0.797540 -0.533951
O3    O     O_R   0.398970 0.203230 0.702460 -0.531346
O4    O     O_R   0.601030 0.796770 0.297540 -0.533950
O5    O     O_R   0.101030 0.703230 0.297540 -0.531345
O6    O     O_R   0.898970 0.296770 0.702460 -0.533950
O7    O     O_R   0.898970 0.296770 0.797540 -0.531346
O8    O     O_R   0.101030 0.703230 0.202460 -0.533951
O9    O     O_R   0.271290 0.802910 0.297210 -0.535633
O10   O     O_R   0.728710 0.197090 0.702790 -0.537397
O11   O     O_R   0.728710 0.197090 0.797210 -0.535634
O12   O     O_R   0.271290 0.802910 0.202790 -0.537397
O13   O     O_R   0.771290 0.697090 0.202790 -0.535634
O14   O     O_R   0.228710 0.302910 0.797210 -0.537396
O15   O     O_R   0.228710 0.302910 0.702790 -0.535633
O16   O     O_R   0.771290 0.697090 0.297210 -0.537397
C1    C     C_R   0.439172 0.815033 0.312289 0.669624
C2    C     C_R   0.560915 0.185178 0.687586 0.668887
C3    C     C_R   0.560828 0.184967 0.812289 0.669624
C4    C     C_R   0.439085 0.814821 0.187587 0.668886
C5    C     C_R   0.939172 0.684967 0.187711 0.669623
C6    C     C_R   0.060915 0.314821 0.812413 0.668887
C7    C     C_R   0.060828 0.315033 0.687711 0.669624
C8    C     C_R   0.939085 0.685179 0.312413 0.668884
O17   O     O_3   0.434520 0.717290 0.250000 -0.375731
O18   O     O_3   0.565480 0.282710 0.750000 -0.375731
O19   O     O_3   0.934520 0.782710 0.250000 -0.375731
O20   O     O_3   0.065480 0.217290 0.750000 -0.375731
V1    V     V_3+5 0.159680 0.756060 0.250000 1.403473
V2    V     V_3+5 0.840320 0.243940 0.750000 1.403471
V3    V     V_3+5 0.659680 0.743940 0.250000 1.403472
V4    V     V_3+5 0.340320 0.256060 0.750000 1.403472
C9    C     C_R   0.936167 0.347415 0.612021 -0.162038
C10   C     C_R   0.065437 0.605439 0.350096 -0.166354
C11   C     C_R   0.063835 0.652585 0.112021 -0.162036
C12   C     C_R   0.934564 0.394561 0.850096 -0.166365
C13   C     C_R   0.436166 0.152585 0.887979 -0.162039
C14   C     C_R   0.565438 0.894560 0.149903 -0.166362
C15   C     C_R   0.563834 0.847415 0.387979 -0.162036
C16   C     C_R   0.434561 0.105440 0.649903 -0.166363
H1    H     H_    0.848580 0.313771 0.610102 0.110822
H2    H     H_    0.154805 0.599848 0.320573 0.115301
H3    H     H_    0.151422 0.686229 0.110102 0.110822
H4    H     H_    0.845197 0.400153 0.820573 0.115304
H5    H     H_    0.348579 0.186229 0.889898 0.110822
H6    H     H_    0.654807 0.900152 0.179426 0.115304
H7    H     H_    0.651421 0.813771 0.389898 0.110822
H8    H     H_    0.345191 0.099849 0.679426 0.115304
C17   C     C_R   0.931904 0.383843 0.575942 -0.135799
C18   C     C_R   0.070029 0.569922 0.386929 -0.134254
C19   C     C_R   0.068098 0.616156 0.075943 -0.135800
C20   C     C_R   0.929973 0.430078 0.886929 -0.134258
C21   C     C_R   0.431903 0.116156 0.924057 -0.135798
C22   C     C_R   0.570029 0.930077 0.113071 -0.134256
C23   C     C_R   0.568097 0.883844 0.424057 -0.135799
C24   C     C_R   0.429970 0.069923 0.613071 -0.134257
H9    H     H_    0.842044 0.377254 0.546713 0.102022
H10   H     H_    0.161538 0.537203 0.384746 0.102454
H11   H     H_    0.157959 0.622745 0.046714 0.102022
H12   H     H_    0.838464 0.462797 0.884746 0.102460
H13   H     H_    0.342042 0.122745 0.953286 0.102022
H14   H     H_    0.661540 0.962796 0.115253 0.102458
H15   H     H_    0.657958 0.877255 0.453286 0.102022
H16   H     H_    0.338459 0.037204 0.615253 0.102458
C25   C     C_R   0.039875 0.428774 0.577852 0.110141
C26   C     C_R   0.960355 0.577002 0.426574 0.109362
C27   C     C_R   0.960126 0.571226 0.077852 0.110141
C28   C     C_R   0.039648 0.422998 0.926574 0.109370
C29   C     C_R   0.539875 0.071226 0.922148 0.110142
C30   C     C_R   0.460354 0.922997 0.073426 0.109367
C31   C     C_R   0.460125 0.928774 0.422148 0.110141
C32   C     C_R   0.539647 0.077003 0.573426 0.109368
C33   C     C_R   0.162918 0.434360 0.614949 -0.159254
C34   C     C_R   0.834986 0.618089 0.426767 -0.159304
C35   C     C_R   0.837082 0.565640 0.114949 -0.159255
C36   C     C_R   0.165014 0.381911 0.926767 -0.159290
C37   C     C_R   0.662918 0.065640 0.885050 -0.159253
C38   C     C_R   0.334985 0.881911 0.073233 -0.159294
C39   C     C_R   0.337082 0.934360 0.385050 -0.159254
C40   C     C_R   0.665016 0.118088 0.573233 -0.159294
H17   H     H_    0.248543 0.468350 0.617295 0.116415
H18   H     H_    0.748013 0.624463 0.456609 0.116246
H19   H     H_    0.751456 0.531650 0.117295 0.116416
H20   H     H_    0.251986 0.375536 0.956609 0.116244
H21   H     H_    0.748544 0.031650 0.882705 0.116415
H22   H     H_    0.248011 0.875537 0.043391 0.116245
H23   H     H_    0.251456 0.968350 0.382705 0.116415
H24   H     H_    0.751991 0.124463 0.543392 0.116245
C41   C     C_R   0.171443 0.397023 0.650326 -0.165133
C42   C     C_R   0.825887 0.652583 0.389168 -0.162123
C43   C     C_R   0.828557 0.602977 0.150326 -0.165132
C44   C     C_R   0.174112 0.347416 0.889168 -0.162128
C45   C     C_R   0.671443 0.102977 0.849674 -0.165134
C46   C     C_R   0.325887 0.847417 0.110832 -0.162127
C47   C     C_R   0.328557 0.897023 0.349674 -0.165132
C48   C     C_R   0.674115 0.152583 0.610833 -0.162126
H25   H     H_    0.265551 0.402631 0.678861 0.119801
H26   H     H_    0.730224 0.684427 0.390515 0.112596
H27   H     H_    0.734447 0.597369 0.178861 0.119801
H28   H     H_    0.269774 0.315573 0.890516 0.112598
H29   H     H_    0.765552 0.097369 0.821139 0.119801
H30   H     H_    0.230223 0.815574 0.109485 0.112599
H31   H     H_    0.234447 0.902631 0.321139 0.119801
H32   H     H_    0.769779 0.184426 0.609485 0.112598
C49   C     C_R   0.054907 0.353851 0.649763 -0.037317
C50   C     C_R   0.944300 0.647317 0.351057 -0.035164
C51   C     C_R   0.945093 0.646148 0.149763 -0.037317
C52   C     C_R   0.055700 0.352683 0.851057 -0.035169
C53   C     C_R   0.554907 0.146148 0.850237 -0.037317
C54   C     C_R   0.444300 0.852683 0.148943 -0.035169
C55   C     C_R   0.445093 0.853852 0.350237 -0.037317
C56   C     C_R   0.555700 0.147317 0.648943 -0.035169
C57   C     C_R   0.170853 0.492897 0.521368 -0.240646
C58   C     C_R   0.829527 0.522454 0.490689 -0.240605
C59   C     C_R   0.829149 0.507104 0.021367 -0.240652
C60   C     C_R   0.170475 0.477545 0.990691 -0.240613
C61   C     C_R   0.670852 0.007103 0.978632 -0.240652
C62   C     C_R   0.329525 0.977545 0.009309 -0.240612
C63   C     C_R   0.329148 0.992897 0.478632 -0.240651
C64   C     C_R   0.670475 0.022455 0.509309 -0.240612
H33   H     H_    0.302411 0.479607 0.532075 0.110365
H34   H     H_    0.697749 0.532350 0.477390 0.110041
H35   H     H_    0.697590 0.520394 0.032074 0.110366
H36   H     H_    0.302254 0.467647 0.977393 0.110042
H37   H     H_    0.802411 0.020393 0.967925 0.110366
H38   H     H_    0.197747 0.967648 0.022607 0.110042
H39   H     H_    0.197589 0.979607 0.467925 0.110366
H40   H     H_    0.802253 0.032352 0.522607 0.110042
C65   C     C_R   0.154897 0.532762 0.487986 0.156784
C66   C     C_R   0.845486 0.490731 0.530495 0.156392
C67   C     C_R   0.845104 0.467239 0.987985 0.156775
C68   C     C_R   0.154515 0.509268 0.030496 0.156395
C69   C     C_R   0.654896 0.967238 0.012014 0.156778
C70   C     C_R   0.345485 0.009268 0.969504 0.156392
C71   C     C_R   0.345104 0.032762 0.512014 0.156778
C72   C     C_R   0.654515 0.990732 0.469504 0.156393
C73   C     C_R   0.982752 0.542979 0.468333 0.050924
C74   C     C_R   0.017695 0.470626 0.542311 0.050930
C75   C     C_R   0.017250 0.457021 0.968333 0.050934
C76   C     C_R   0.982306 0.529374 0.042312 0.050930
C77   C     C_R   0.482751 0.957020 0.031667 0.050932
C78   C     C_R   0.517694 0.029373 0.957688 0.050931
C79   C     C_R   0.517249 0.042980 0.531667 0.050932
C80   C     C_R   0.482305 0.970626 0.457688 0.050931
C81   C     C_3   0.318556 0.566358 0.477309 -0.371085
C82   C     C_3   0.287623 0.623294 0.489768 -0.730762
H41   H     H_    0.192618 0.642145 0.465154 0.235675
H42   H     H_    0.233476 0.626750 0.525732 0.226543
H43   H     H_    0.418693 0.644476 0.487920 0.205160
H44   H     H_    0.432451 0.553946 0.499032 0.168235
H45   H     H_    0.362813 0.562535 0.440647 0.175765
C83   C     C_3   0.681573 0.482907 0.561611 -0.370557
C84   C     C_3   0.711181 0.503874 0.610843 -0.731140
H46   H     H_    0.805778 0.479119 0.630916 0.235601
H47   H     H_    0.765163 0.544028 0.609471 0.226448
H48   H     H_    0.579631 0.504458 0.629744 0.205388
H49   H     H_    0.567850 0.505209 0.547655 0.168012
H50   H     H_    0.638061 0.441882 0.562746 0.176186
C85   C     C_3   0.681440 0.433645 0.977307 -0.371080
C86   C     C_3   0.712377 0.376706 0.989753 -0.730751
H51   H     H_    0.807299 0.357854 0.965117 0.235673
H52   H     H_    0.766627 0.373240 0.025706 0.226547
H53   H     H_    0.581289 0.355530 0.987926 0.205153
H54   H     H_    0.567558 0.446051 0.999036 0.168239
H55   H     H_    0.637165 0.437478 0.940646 0.175758
C87   C     C_3   0.318427 0.517091 0.061613 -0.370557
C88   C     C_3   0.288818 0.496123 0.110844 -0.731143
H56   H     H_    0.194212 0.520875 0.130916 0.235601
H57   H     H_    0.234846 0.455967 0.109471 0.226447
H58   H     H_    0.420365 0.495541 0.129746 0.205389
H59   H     H_    0.432153 0.494791 0.047657 0.168010
H60   H     H_    0.361935 0.558117 0.062749 0.176187
C89   C     C_3   0.818559 0.933643 0.022691 -0.371082
C90   C     C_3   0.787621 0.876705 0.010242 -0.730756
H61   H     H_    0.692676 0.857854 0.034872 0.235674
H62   H     H_    0.733400 0.873242 0.974287 0.226546
H63   H     H_    0.918703 0.855527 0.012075 0.205155
H64   H     H_    0.932444 0.946051 0.000964 0.168238
H65   H     H_    0.862830 0.937474 0.059352 0.175760
C91   C     C_3   0.181573 0.017092 0.938388 -0.370553
C92   C     C_3   0.211181 0.996126 0.889156 -0.731138
H66   H     H_    0.305777 0.020881 0.869083 0.235600
H67   H     H_    0.265164 0.955971 0.890527 0.226446
H68   H     H_    0.079631 0.995542 0.870255 0.205388
H69   H     H_    0.067849 0.994790 0.952343 0.168009
H70   H     H_    0.138061 0.058118 0.937253 0.176185
C93   C     C_3   0.181441 0.066356 0.522691 -0.371081
C94   C     C_3   0.212380 0.123295 0.510244 -0.730755
H71   H     H_    0.307319 0.142146 0.534875 0.235674
H72   H     H_    0.266608 0.126759 0.474288 0.226546
H73   H     H_    0.081297 0.144473 0.512075 0.205154
H74   H     H_    0.067556 0.053950 0.500963 0.168238
H75   H     H_    0.137168 0.062525 0.559353 0.175759
C95   C     C_3   0.818426 0.982908 0.438388 -0.370556
C96   C     C_3   0.788818 0.003875 0.389156 -0.731141
H76   H     H_    0.694218 0.979121 0.369083 0.235600
H77   H     H_    0.734839 0.044030 0.390528 0.226447
H78   H     H_    0.920367 0.004458 0.370254 0.205389
H79   H     H_    0.932152 0.005209 0.452343 0.168009
H80   H     H_    0.861937 0.941883 0.437252 0.176186

loop_
_geom_bond_atom_site_label_1
_geom_bond_atom_site_label_2
_ccdc_geom_bond_type
O17   V3    S    
C32   C79   S    
C22   C30   A    
C57   H33   S    
O18   V4    S    
C7    C49   S    
O12   V1    S    
C12   C52   A    
C29   C37   A    
C10   H2    S    
C62   C77   A    
C21   C29   A    
C36   H20   S    
C39   H23   S    
C81   C82   S    
C25   C33   A    
O15   V4    S    
C16   C56   A    
C59   C67   A    
C92   H66   S    
O16   V3    S    
C87   H60   S    
C48   C56   A    
O11   C3    A    
C17   C25   A    
C94   H73   S    
O8    V1    S    
C94   H72   S    
C2    C56   S    
C11   C51   A    
C30   C38   A    
C89   H65   S    
C9    C17   A    
C26   C34   A    
O1    V3    S    
C32   C40   A    
C17   H9    S    
O19   V1    S    
O3    C2    A    
O2    V4    S    
C58   C73   A    
C71   C93   S    
C90   H61   S    
C20   H12   S    
C61   C69   A    
C21   H13   S    
C44   C52   A    
C15   C23   A    
C68   C76   A    
C95   H79   S    
O11   V2    S    
C16   C24   A    
C23   H15   S    
C14   C54   A    
C24   H16   S    
C40   C48   A    
C11   H3    S    
C13   C53   A    
C81   H44   S    
C12   C20   A    
O9    V1    S    
C96   H78   S    
C13   C21   A    
C38   H22   S    
O15   C7    A    
C95   C96   S    
C37   H21   S    
C87   H59   S    
O16   C8    A    
O7    V2    S    
C93   H75   S    
O14   C6    A    
C63   C80   A    
C58   C66   A    
C64   C79   A    
C34   H18   S    
C1    C55   S    
C33   H17   S    
C47   H31   S    
C88   H58   S    
C82   H42   S    
C3    C53   S    
C19   H11   S    
C95   H80   S    
C35   C43   A    
C10   C18   A    
C59   H35   S    
C10   C50   A    
C86   H53   S    
C43   C51   A    
C9    C49   A    
C20   C28   A    
C42   C50   A    
C88   H57   S    
C92   H67   S    
C45   H29   S    
C88   H56   S    
C22   H14   S    
C24   C32   A    
C29   C78   S    
C89   C90   S    
C46   C54   A    
C60   C75   A    
C63   C71   A    
C31   C39   A    
C85   H55   S    
C41   H25   S    
C94   H71   S    
C64   C72   A    
C86   H52   S    
C39   C47   A    
C70   C78   A    
C82   H43   S    
O10   V2    S    
C85   C86   S    
C60   C68   A    
C8    C50   S    
O12   C4    A    
O8    C5    A    
C93   H74   S    
C18   H10   S    
O13   C5    A    
C19   C27   A    
C59   C76   A    
C84   H48   S    
C67   C85   S    
C27   C76   S    
C18   C26   A    
C90   H63   S    
C84   H47   S    
C5    C51   S    
C91   H70   S    
C36   C44   A    
C83   H50   S    
C4    C54   S    
O4    C1    A    
O9    C1    A    
O6    V2    S    
C48   H32   S    
C11   C19   A    
C87   C88   S    
C12   H4    S    
C27   C35   A    
C25   C74   S    
C13   H5    S    
C66   C74   A    
O5    V1    S    
C91   C92   S    
C44   H28   S    
C15   H7    S    
C82   H41   S    
C92   H68   S    
C16   H8    S    
C83   H49   S    
C30   C77   S    
C60   H36   S    
O2    C3    A    
C57   C74   A    
C65   C81   S    
O13   V3    S    
O14   V4    S    
O1    C4    A    
C62   C70   A    
C64   H40   S    
C38   C46   A    
C81   H45   S    
C28   C36   A    
O7    C6    A    
C69   C77   A    
C9    H1    S    
C86   H51   S    
C34   C42   A    
O20   V2    S    
C61   C78   A    
C84   H46   S    
C33   C41   A    
C93   C94   S    
C72   C80   A    
C47   C55   A    
C14   H6    S    
C66   C83   S    
C15   C55   A    
C35   H19   S    
O5    C8    A    
C61   H37   S    
C89   H64   S    
O10   C2    A    
C6    C52   S    
O6    C7    A    
C37   C45   A    
C71   C79   A    
O3    V4    S    
C90   H62   S    
C72   C95   S    
O4    V3    S    
C67   C75   A    
C91   H69   S    
C96   H76   S    
C58   H34   S    
C14   C22   A    
C68   C87   S    
C65   C73   A    
C83   C84   S    
C46   H30   S    
C40   H24   S    
C28   C75   S    
C41   C49   A    
C85   H54   S    
C26   C73   S    
C62   H38   S    
C70   C91   S    
C43   H27   S    
C57   C65   A    
C69   C89   S    
C42   H26   S    
C23   C31   A    
C45   C53   A    
C31   C80   S    
C96   H77   S    
C63   H39   S    
