data_mof_unit_43633.cif
_audit_creation_date              2013-03-05T15:55:19-0500
_audit_creation_method            fapswitch 2.2
_symmetry_space_group_name_H-M    P1
_symmetry_Int_Tables_number       1
_space_group_crystal_system       triclinic
_cell_length_a                    14.707621
_cell_length_b                    14.707759
_cell_length_c                    33.359421
_cell_angle_alpha                 95.914646
_cell_angle_beta                  96.036277
_cell_angle_gamma                 61.393319
_cell_volume                      6288.66848982

loop_
_atom_site_label
_atom_site_type_symbol
_atom_site_description
_atom_site_fract_x
_atom_site_fract_y
_atom_site_fract_z
_atom_type_partial_charge
O1    O     O_R   0.679450 0.499830 0.463150 -0.543465
O2    O     O_R   0.480650 0.664000 0.464630 -0.545117
C1    C     C_R   0.391273 0.699398 0.445851 0.843734
O3    O     O_R   0.323930 0.675950 0.455370 -0.507204
O4    O     O_R   0.354700 0.475360 0.451930 -0.534670
C2    C     C_R   0.406102 0.386602 0.433896 0.790149
O5    O     O_R   0.494470 0.320860 0.448390 -0.549352
O6    O     O_R   0.662580 0.357570 0.460050 -0.538313
C3    C     C_R   0.700534 0.410186 0.447425 0.807396
O7    O     O_R   0.680900 0.502040 0.551870 -0.534366
O8    O     O_R   0.481990 0.666040 0.546870 -0.515871
C4    C     C_R   0.392973 0.701946 0.561171 0.862393
O9    O     O_R   0.325370 0.678160 0.544080 -0.539411
O10   O     O_R   0.356040 0.477400 0.534170 -0.507604
C5    C     C_R   0.406784 0.388752 0.548903 0.813936
O11   O     O_R   0.495910 0.323070 0.537100 -0.533022
O12   O     O_R   0.663920 0.359620 0.542290 -0.495979
C6    C     C_R   0.658526 0.437058 0.566389 0.851225
Cr1   Cr    Cr6+3 0.576280 0.580550 0.506370 1.013087
Cr2   Cr    Cr6+3 0.346780 0.572400 0.496520 1.002333
Cr3   Cr    Cr6+3 0.576960 0.347070 0.497150 0.982303
O13   O     O_3   0.500010 0.500010 0.500010 -0.376915
H1    H     H_    0.448899 0.170348 0.109424 0.186622
H2    H     H_    0.464904 0.203926 0.182375 0.160297
H3    H     H_    0.463482 0.196931 0.311196 0.154114
H4    H     H_    0.498450 0.211882 0.384149 0.160106
C7    C     C_R   0.371052 0.367787 0.392262 -0.084383
C8    C     C_R   0.285642 0.448771 0.372602 -0.260468
C9    C     C_R   0.265995 0.440880 0.330543 0.416411
C10   C     C_R   0.332025 0.350359 0.308472 0.070488
C11   C     C_R   0.412699 0.266991 0.328243 -0.200991
C12   C     C_R   0.432152 0.275471 0.369881 -0.138337
C13   C     C_R   0.393554 0.253454 0.165567 -0.195344
C14   C     C_R   0.384409 0.234774 0.123929 -0.117175
C15   C     C_R   0.208615 0.377154 0.121787 -0.244873
C16   C     C_R   0.217244 0.396081 0.163867 0.438305
C17   C     C_R   0.309439 0.331618 0.185642 0.062097
C18   C     C_1   0.316122 0.340049 0.228926 0.078086
C19   C     C_1   0.322302 0.344966 0.265194 0.071537
C20   C     C_R   0.290647 0.294096 0.101834 -0.098377
H5    H     H_    0.237804 0.520432 0.389473 0.155611
H6    H     H_    0.135890 0.423611 0.105118 0.151803
N1    N     N_R   0.753144 0.382028 0.221183 -0.230346
N2    N     N_R   0.741887 0.389480 0.260584 -0.257033
C21   C     C_R   0.752788 0.374798 0.409342 -0.127586
C22   C     C_R   0.764805 0.445143 0.387993 -0.154784
C23   C     C_R   0.788495 0.421895 0.347782 -0.149138
C24   C     C_R   0.801664 0.327735 0.328244 -0.062521
C25   C     C_R   0.797173 0.252677 0.350344 0.379726
C26   C     C_R   0.773884 0.277042 0.390855 -0.131696
N3    N     N_R   0.894599 0.232458 0.268107 -0.246144
N4    N     N_R   0.905976 0.225139 0.228678 -0.187697
C27   C     C_R   0.835751 0.300057 0.204607 0.627487
C28   C     C_R   0.812412 0.314988 0.284668 0.473741
C29   C     C_R   0.845636 0.383781 0.144656 0.332315
C30   C     C_R   0.872290 0.374764 0.104934 -0.197829
C31   C     C_R   0.911464 0.194420 0.098780 -0.233144
C32   C     C_R   0.883587 0.201866 0.138399 0.366148
C33   C     C_R   0.853588 0.295923 0.161848 -0.151175
C34   C     C_R   0.910007 0.279341 0.082545 -0.149666
H7    H     H_    0.749166 0.521044 0.401453 0.154751
H8    H     H_    0.765220 0.221703 0.407034 0.158708
H9    H     H_    0.871195 0.440761 0.092706 0.194677
H10   H     H_    0.792667 0.479490 0.331333 0.166177
H11   H     H_    0.939602 0.120577 0.081508 0.171153
N5    N     N_R   0.344449 0.742086 0.217926 -0.183546
N6    N     N_R   0.345366 0.736636 0.257467 -0.200877
C35   C     C_R   0.373773 0.750933 0.407826 -0.106447
C36   C     C_R   0.281083 0.779323 0.383200 0.265764
C37   C     C_R   0.279634 0.795906 0.341914 0.306749
C38   C     C_R   0.366558 0.794951 0.327309 -0.036307
C39   C     C_R   0.451905 0.781634 0.353562 -0.213151
C40   C     C_R   0.456381 0.757918 0.393250 -0.219700
N7    N     N_R   0.402612 0.861029 0.269400 -0.276040
N8    N     N_R   0.400835 0.867128 0.229725 -0.255174
C41   C     C_R   0.370484 0.808595 0.203307 0.587268
C42   C     C_R   0.372390 0.797436 0.283862 0.582139
C43   C     C_R   0.253210 0.849035 0.141129 0.283517
C44   C     C_R   0.226056 0.883375 0.101570 0.265949
C45   C     C_R   0.398544 0.868328 0.098732 0.304166
C46   C     C_R   0.425643 0.833229 0.138053 0.303499
C47   C     C_R   0.351071 0.828171 0.159983 -0.300825
C48   C     C_R   0.296876 0.898845 0.081045 -0.328444
H12   H     H_    0.527360 0.739141 0.411824 0.171096
H13   H     H_    0.518750 0.781266 0.342484 0.166720
N9    N     N_R   0.252210 0.424517 0.766080 -0.194594
N10   N     N_R   0.257410 0.426915 0.726710 -0.257318
C49   C     C_R   0.368241 0.368287 0.584255 -0.075007
C50   C     C_R   0.278942 0.446586 0.602686 0.358023
C51   C     C_R   0.259319 0.433291 0.641324 -0.208871
C52   C     C_R   0.326343 0.343479 0.661399 -0.011158
C53   C     C_R   0.408174 0.262053 0.641186 -0.138486
C54   C     C_R   0.428818 0.274323 0.602952 -0.194647
N11   N     N_R   0.369776 0.248408 0.722883 -0.244457
N12   N     N_R   0.364255 0.245929 0.762236 -0.212304
C55   C     C_R   0.305098 0.333862 0.784499 0.562505
C56   C     C_R   0.315767 0.338871 0.704319 0.521474
C57   C     C_R   0.205396 0.392908 0.847439 0.405597
C58   C     C_R   0.201598 0.378923 0.887933 -0.188014
C59   C     C_R   0.380048 0.242561 0.889497 -0.120727
C60   C     C_R   0.385751 0.257544 0.849595 -0.116630
C61   C     C_R   0.298144 0.329665 0.827763 -0.122289
C62   C     C_R   0.286555 0.299961 0.908404 -0.125165
H14   H     H_    0.496103 0.212154 0.589068 0.185571
H15   H     H_    0.128497 0.423187 0.902038 0.180830
H16   H     H_    0.193810 0.495079 0.656321 0.151914
H17   H     H_    0.460091 0.191087 0.655779 0.172170
H18   H     H_    0.447024 0.181638 0.904684 0.175063
H19   H     H_    0.457960 0.209648 0.835252 0.197559
H20   H     H_    0.936167 0.131702 0.875918 0.195234
C63   C     C_R   0.687291 0.415959 0.609842 -0.139470
C64   C     C_R   0.718372 0.479743 0.635332 -0.194477
C65   C     C_R   0.742740 0.463381 0.676345 -0.195468
C66   C     C_R   0.732820 0.385575 0.693007 0.021426
C67   C     C_R   0.697856 0.323415 0.668851 0.329961
C68   C     C_R   0.679122 0.335366 0.626591 0.244787
C69   C     C_R   0.860394 0.226642 0.825252 0.401255
C70   C     C_R   0.900430 0.209544 0.865573 -0.219718
C71   C     C_R   0.855911 0.390822 0.877935 -0.111586
C72   C     C_R   0.815046 0.409277 0.838315 -0.143371
C73   C     C_R   0.819129 0.327925 0.811584 -0.030573
C74   C     C_1   0.785019 0.350521 0.770142 0.089638
C75   C     C_1   0.759818 0.368351 0.735182 0.123314
C76   C     C_R   0.901613 0.290322 0.891652 -0.124633
H21   H     H_    0.724951 0.542023 0.623518 0.218880
H22   H     H_    0.783160 0.486972 0.828098 0.164594
H23   H     H_    0.855226 0.454791 0.897394 0.170316
H24   H     H_    0.768628 0.512183 0.695209 0.180782
H25   H     H_    0.385150 0.994919 0.888300 0.198842
C77   C     C_R   0.373510 0.755220 0.602004 -0.222383
C78   C     C_R   0.295777 0.753566 0.622670 -0.297793
C79   C     C_R   0.286977 0.780816 0.663960 0.328219
C80   C     C_R   0.355250 0.812765 0.684852 -0.031312
C81   C     C_R   0.428382 0.823495 0.664570 0.260396
C82   C     C_R   0.438504 0.793639 0.622690 0.272460
C83   C     C_R   0.373040 0.926868 0.829718 0.412935
C84   C     C_R   0.355140 0.947719 0.870789 -0.274846
C85   C     C_R   0.252905 0.856212 0.865089 0.385806
C86   C     C_R   0.271205 0.834894 0.823869 -0.211570
C87   C     C_R   0.328895 0.871230 0.806085 -0.101994
C88   C     C_1   0.341369 0.850391 0.763527 0.116692
C89   C     C_1   0.349333 0.833931 0.727732 0.204095
C90   C     C_R   0.292069 0.917022 0.888574 -0.225608
H26   H     H_    0.244930 0.725133 0.607245 0.188443
H27   H     H_    0.240305 0.789543 0.805464 0.203397
O14   O     O_R   0.170070 0.978950 0.027680 -0.498859
O15   O     O_R   0.001760 0.175230 0.026640 -0.534922
C91   C     C_R   0.963742 0.263852 0.045672 0.820685
O16   O     O_R   0.984760 0.333570 0.037150 -0.545884
O17   O     O_R   0.183410 0.309240 0.041890 -0.537475
C92   C     C_R   0.272553 0.259358 0.060079 0.799145
O18   O     O_R   0.340240 0.172500 0.045430 -0.532495
O19   O     O_R   0.309670 0.000990 0.032050 -0.516615
C93   C     C_R   0.259087 0.959146 0.044009 0.930373
O20   O     O_R   0.168330 0.982130 0.939200 -0.510084
O21   O     O_R   0.000140 0.178170 0.944610 -0.537301
C94   C     C_R   0.961603 0.268215 0.931021 0.798435
O22   O     O_R   0.983010 0.336750 0.948660 -0.544374
O23   O     O_R   0.181800 0.312190 0.959860 -0.536341
C95   C     C_R   0.270674 0.263859 0.945216 0.796921
O24   O     O_R   0.338500 0.175680 0.956950 -0.545470
O25   O     O_R   0.308050 0.003930 0.950020 -0.538714
C96   C     C_R   0.256807 0.964489 0.929096 0.880066
Cr4   Cr    Cr6+3 0.087320 0.083240 0.984860 1.034027
Cr5   Cr    Cr6+3 0.087720 0.316210 0.996740 0.973668
Cr6   Cr    Cr6+3 0.317350 0.090340 0.995890 1.034899
O26   O     O_3   0.164130 0.163270 0.992500 -0.362550
O27   O     O_3   0.807729 0.158495 0.333542 -0.624772
H28   H     H_    0.808206 0.156165 0.303877 0.319925
N13   N     N_R   0.819782 0.479820 0.167963 0.117812
O28   O     O_R   0.762148 0.567591 0.151337 -0.326049
O29   O     O_R   0.868264 0.479944 0.202912 -0.339361
O30   O     O_3   0.887327 0.117852 0.155113 -0.594648
H29   H     H_    0.910457 0.058134 0.134859 0.325375
O31   O     O_3   0.194830 0.788004 0.399753 -0.628193
H30   H     H_    0.131691 0.839091 0.385008 0.310764
O32   O     O_3   0.128929 0.907687 0.083012 -0.602997
H31   H     H_    0.084801 0.899304 0.101109 0.342167
O33   O     O_3   0.196420 0.810011 0.315019 -0.597287
H32   H     H_    0.161155 0.773760 0.324262 0.318798
N14   N     N_R   0.178054 0.842911 0.163302 0.115543
O34   O     O_R   0.156980 0.766264 0.155399 -0.329315
O35   O     O_R   0.129677 0.914740 0.190988 -0.318835
N15   N     N_R   0.476229 0.870064 0.076534 0.160063
O36   O     O_R   0.496316 0.822481 0.040912 -0.348899
O37   O     O_R   0.532564 0.912010 0.093022 -0.313994
O38   O     O_3   0.526269 0.803046 0.153633 -0.550414
H33   H     H_    0.541840 0.760327 0.176973 0.336361
O39   O     O_3   0.214592 0.536829 0.583513 -0.627438
H34   H     H_    0.157143 0.583301 0.600843 0.292058
N16   N     N_R   0.111650 0.463462 0.826074 0.115651
O40   O     O_R   0.051146 0.553335 0.843277 -0.316771
O41   O     O_R   0.076506 0.430478 0.793546 -0.351339
N17   N     N_R   0.865071 0.140315 0.798988 0.120523
O42   O     O_R   0.872866 0.058727 0.814254 -0.317175
O43   O     O_R   0.869745 0.138478 0.760166 -0.328345
O44   O     O_3   0.681584 0.253070 0.687395 -0.603963
H35   H     H_    0.626200 0.242573 0.671523 0.301341
O45   O     O_3   0.654016 0.269153 0.601338 -0.629790
H36   H     H_    0.686940 0.200286 0.612903 0.308054
N18   N     N_R   0.433118 0.965567 0.812688 0.112870
O46   O     O_R   0.502846 0.980863 0.835289 -0.354958
O47   O     O_R   0.411636 0.995914 0.776001 -0.330270
O48   O     O_3   0.488015 0.863068 0.686591 -0.583990
H37   H     H_    0.520681 0.885354 0.668015 0.360777
N19   N     N_R   0.514948 0.800673 0.601659 0.089531
O49   O     O_R   0.612514 0.752549 0.613997 -0.371634
O50   O     O_R   0.487368 0.853338 0.569518 -0.362555
N20   N     N_R   0.196277 0.814604 0.882483 0.128487
O51   O     O_R   0.125618 0.799291 0.860611 -0.305906
O52   O     O_R   0.225204 0.778043 0.918169 -0.343622
O53   O     O_3   0.214088 0.774120 0.684786 -0.615204
H38   H     H_    0.172796 0.749534 0.665781 0.311701
O54   O     O_3   0.135760 0.473684 0.184380 -0.588881
H39   H     H_    0.076705 0.510854 0.164701 0.332527
O55   O     O_3   0.186098 0.521680 0.310331 -0.605682
H40   H     H_    0.148153 0.579693 0.330188 0.303835

loop_
_geom_bond_atom_site_label_1
_geom_bond_atom_site_label_2
_geom_bond_distance
_ccdc_geom_bond_type
O6    C3    1.272058 A    
C58   C62   1.403830 A    
C29   C30   1.396577 A    
C3    C21   1.470220 S    
C94   O22   1.266545 A    
C55   C61   1.467195 S    
O19   Cr6   1.921545 S    
N18   O46   1.301597 A    
N17   O43   1.300925 A    
N12   C55   1.357078 A    
C79   O53   1.383276 S    
C39   H13   1.083544 S    
C83   C87   1.407447 A    
H20   C70   1.083124 S    
C66   C67   1.400296 A    
C27   C33   1.467220 S    
C48   C93   1.493748 S    
C71   C76   1.403337 A    
C72   C73   1.397483 A    
C24   C28   1.461861 S    
C4    O9    1.268379 A    
C67   O44   1.382244 S    
O8    Cr1   1.924496 S    
C80   C89   1.434973 S    
C60   C61   1.403175 A    
C4    C77   1.482788 S    
C14   C20   1.404560 A    
C53   C54   1.390289 A    
C16   C17   1.403172 A    
C30   C34   1.400302 A    
C1    C35   1.480696 S    
C65   C66   1.395652 A    
C29   C33   1.416420 A    
C85   C90   1.414017 A    
O23   C95   1.274942 A    
C10   C11   1.398288 A    
C45   C46   1.406621 A    
C72   H22   1.084158 S    
C37   O33   1.382095 S    
N13   O28   1.301330 A    
C60   H19   1.083547 S    
C67   C68   1.420300 A    
C57   C58   1.398001 A    
C8    H5    1.083310 S    
N15   O36   1.301396 A    
O22   Cr5   2.042151 S    
C15   H6    1.083284 S    
C69   C73   1.418202 A    
C64   C65   1.392975 A    
C69   N17   1.443681 S    
C16   O54   1.381630 S    
O25   Cr6   1.922766 S    
N1    C27   1.355237 A    
O15   C91   1.273141 A    
N15   O37   1.301282 A    
C79   C80   1.397132 A    
C44   C48   1.419358 A    
N7    C42   1.356953 A    
N6    C42   1.355512 A    
C92   O18   1.271874 A    
C44   O32   1.386455 S    
C37   C38   1.408692 A    
C29   N13   1.437292 S    
O24   Cr6   2.038262 S    
C52   C53   1.400516 A    
C81   C82   1.421808 A    
C45   N15   1.436732 S    
N17   O42   1.301672 A    
C7    C12   1.404388 A    
O45   H36   0.990374 S    
Cr5   O26   1.972294 S    
O30   H29   0.991752 S    
Cr3   O13   1.972427 S    
C57   N16   1.435795 S    
N18   O47   1.301171 A    
O39   H34   0.991760 S    
C45   C48   1.418397 A    
C54   H14   1.082839 S    
C90   C96   1.479874 S    
C83   N18   1.442661 S    
C46   C47   1.414833 A    
C31   C32   1.402855 A    
N14   O35   1.301031 A    
C87   C88   1.433330 S    
C18   C19   1.200997 T    
C58   H15   1.083575 S    
O1    Cr1   2.042792 S    
C59   H18   1.083182 S    
N7    N8    1.332437 A    
C22   H7    1.083169 S    
C15   C20   1.407455 A    
N3    N4    1.330227 A    
C23   C24   1.401377 A    
O10   Cr2   1.921401 S    
Cr1   O13   1.969038 S    
O16   Cr5   2.040511 S    
O55   H40   0.991767 S    
C51   H16   1.083352 S    
C25   O27   1.381819 S    
N20   O51   1.301480 A    
C41   C47   1.474271 S    
C23   H10   1.084011 S    
O4    Cr2   1.924302 S    
C68   O45   1.379946 S    
C49   C54   1.405151 A    
N19   O49   1.301048 A    
C35   C36   1.413412 A    
C9    O55   1.381681 S    
N11   C56   1.356100 A    
O20   C96   1.274824 A    
C35   C40   1.406131 A    
N14   O34   1.300972 A    
O17   Cr5   1.925521 S    
O14   Cr4   2.042733 S    
C59   C62   1.400829 A    
C52   C56   1.468261 S    
O23   Cr5   1.922608 S    
C20   C92   1.475694 S    
C15   C16   1.407142 A    
O21   C94   1.277334 A    
C17   C18   1.433495 S    
N8    C41   1.358672 A    
N16   O41   1.301398 A    
C9    C10   1.402856 A    
C80   C81   1.406139 A    
C43   C47   1.409878 A    
C53   H17   1.082959 S    
C77   C78   1.406693 A    
C2    C7    1.475827 S    
O14   C93   1.270117 A    
O7    Cr1   2.042904 S    
C71   C72   1.390125 A    
H1    C14   1.083065 S    
N5    C41   1.355577 A    
C76   C94   1.476003 S    
O10   C5    1.273424 A    
O12   C6    1.299213 A    
C73   C74   1.436149 S    
C30   H9    1.083566 S    
O1    C3    1.268799 A    
N11   N12   1.329077 A    
C70   C76   1.404363 A    
O48   H37   0.988715 S    
C64   H21   1.082137 S    
C63   C68   1.420793 A    
N9    C55   1.354834 A    
C82   N19   1.434995 S    
C66   C75   1.435596 S    
C36   C37   1.419491 A    
O27   H28   0.987310 S    
C77   C82   1.416827 A    
Cr2   O13   1.974522 S    
O32   H31   0.987559 S    
N1    N2    1.328787 A    
Cr6   O26   1.974420 S    
C26   H8    1.083663 S    
C21   C22   1.400833 A    
C32   O30   1.382459 S    
C1    O3    1.271451 A    
C8    C9    1.406695 A    
C38   C42   1.466093 S    
C65   H24   1.083697 S    
N4    C27   1.357885 A    
N9    N10   1.328613 A    
C13   C17   1.397961 A    
O25   C96   1.271323 A    
N16   O40   1.301204 A    
C22   C23   1.388303 A    
C86   H27   1.084253 S    
C40   H12   1.083103 S    
C63   C64   1.405910 A    
O2    Cr1   1.926328 S    
O54   H39   0.991761 S    
H3    C11   1.083800 S    
O9    Cr2   2.040426 S    
C11   C12   1.393438 A    
C31   H11   1.083317 S    
C39   C40   1.390617 A    
C31   C34   1.401836 A    
C78   C79   1.395954 A    
O6    Cr3   1.922171 S    
O18   Cr6   2.041004 S    
C86   C87   1.401040 A    
O11   Cr3   2.038552 S    
C81   O48   1.383068 S    
C2    O5    1.272282 A    
H4    C12   1.083011 S    
O20   Cr4   2.041894 S    
C34   C91   1.470990 S    
C6    C63   1.488139 S    
C85   N20   1.437974 S    
H2    C13   1.083821 S    
O15   Cr4   1.925230 S    
C43   N14   1.434609 S    
C95   O24   1.270416 A    
N3    C28   1.355361 A    
O2    C1    1.276772 A    
C32   C33   1.409023 A    
C38   C39   1.396317 A    
O31   H30   0.990375 S    
C57   C61   1.415726 A    
C69   C70   1.407339 A    
O5    Cr3   2.042048 S    
C43   C44   1.410487 A    
C51   C52   1.400580 A    
O4    C2    1.275296 A    
N13   O29   1.301414 A    
C21   C26   1.405028 A    
O7    C6    1.298606 A    
C24   C25   1.419285 A    
C59   C60   1.388917 A    
N20   O52   1.301418 A    
C13   C14   1.392976 A    
C10   C19   1.433524 S    
N5    N6    1.327973 A    
N19   O50   1.301154 A    
C91   O16   1.268827 A    
Cr4   O26   1.969157 S    
C84   C90   1.410083 A    
O44   H35   0.990252 S    
C62   C95   1.469046 S    
O12   Cr3   1.923834 S    
C85   C86   1.403483 A    
O33   H32   0.990313 S    
O3    Cr2   2.039752 S    
N2    C28   1.356359 A    
O38   H33   0.989439 S    
H25   C84   1.083307 S    
C49   C50   1.415903 A    
O21   Cr4   1.925181 S    
C25   C26   1.397164 A    
C7    C8    1.407759 A    
C74   C75   1.202229 T    
C50   O39   1.382467 S    
O17   C92   1.276209 A    
C83   C84   1.397298 A    
C36   O31   1.381384 S    
N10   C56   1.357443 A    
C50   C51   1.402552 A    
C88   C89   1.200356 T    
C46   O38   1.383518 S    
C78   H26   1.083089 S    
C5    O11   1.274397 A    
O8    C4    1.279814 A    
O53   H38   0.991767 S    
C5    C49   1.476435 S    
O19   C93   1.281737 A    
C71   H23   1.083105 S    
