data_mof_unit_50274.cif
_audit_creation_date              2012-12-10T17:43:20-0500
_audit_creation_method            fapswitch 2.2
_symmetry_space_group_name_H-M    P1
_symmetry_Int_Tables_number       1
_space_group_crystal_system       triclinic
_cell_length_a                    15.099261
_cell_length_b                    13.807965
_cell_length_c                    10.761484
_cell_angle_alpha                 89.727701
_cell_angle_beta                  87.066021
_cell_angle_gamma                 89.253454
_cell_volume                      2240.51252577

loop_
_atom_site_label
_atom_site_type_symbol
_atom_type_description
_atom_site_fract_x
_atom_site_fract_y
_atom_site_fract_z
_atom_type_partial_charge
C1    C     C_R   0.328913 0.500627 0.501543 0.876856
C2    C     C_R   0.671343 0.499102 0.499836 0.900135
C3    C     C_R   0.954405 0.491866 0.501654 0.041529
C4    C     C_R   0.047558 0.492823 0.500448 0.041659
C5    C     C_R   0.911137 0.527874 0.397896 0.044319
C6    C     C_R   0.092032 0.450994 0.600441 0.063582
C7    C     C_R   0.949125 0.419512 0.709410 -0.182962
C8    C     C_R   0.053301 0.556195 0.287090 -0.095632
C9    C     C_R   0.042811 0.414702 0.705574 -0.107888
C10   C     C_R   0.960488 0.546481 0.286052 -0.100321
C11   C     C_R   0.435141 0.794720 0.566681 0.479466
C12   C     C_R   0.565119 0.205499 0.433311 0.479950
C13   C     C_R   0.564632 0.793265 0.432566 0.495372
C14   C     C_R   0.434973 0.206405 0.566158 0.500179
C15   C     C_R   0.572797 0.895715 0.445181 -0.120925
C16   C     C_R   0.426826 0.104175 0.552203 -0.119143
C17   C     C_R   0.427110 0.897533 0.553775 -0.119613
C18   C     C_R   0.573077 0.102596 0.445546 -0.119457
C19   C     C_R   0.500006 0.948400 0.499413 0.028590
C20   C     C_R   0.500034 0.051582 0.499165 0.028417
C21   C     C_R   0.651034 0.946652 0.407057 -0.047556
C22   C     C_R   0.347991 0.053462 0.587624 -0.062284
C23   C     C_R   0.348591 0.950527 0.590350 -0.055652
C24   C     C_R   0.651241 0.049530 0.407547 -0.060771
C25   C     C_R   0.494358 0.500645 0.260274 0.871095
C26   C     C_R   0.501243 0.499648 0.740450 0.861910
C27   C     C_3   0.445310 0.576874 0.040348 -0.121685
C28   C     C_3   0.546416 0.425104 0.961380 -0.125537
C29   C     C_3   0.531038 0.583654 0.956586 -0.106497
C30   C     C_3   0.460214 0.418336 0.044516 -0.103063
C31   C     C_3   0.413722 0.492438 0.960363 -0.097730
C32   C     C_3   0.577510 0.509992 0.040617 -0.092787
C33   C     C_3   0.499752 0.498996 0.877232 -0.199545
C34   C     C_3   0.491858 0.502622 0.123768 -0.206634
C35   C     C_R   0.818462 0.537582 0.404575 -0.154354
C36   C     C_R   0.185098 0.449736 0.594172 -0.222961
C37   C     C_R   0.768351 0.495876 0.502293 -0.100227
C38   C     C_R   0.232384 0.501528 0.501903 -0.108611
C39   C     C_R   0.811079 0.444009 0.595118 0.334820
C40   C     C_R   0.187757 0.551658 0.410081 0.341832
C41   C     C_R   0.904380 0.451772 0.603786 0.008378
C42   C     C_R   0.096419 0.535855 0.398677 -0.026373
Cu1   Cu    Cu3+1 0.500000 0.597420 0.500000 1.112102
Cu2   Cu    Cu3+1 0.500000 0.402580 0.500000 1.117848
H1    H     H_    0.784786 0.572478 0.329748 0.177045
H2    H     H_    0.221988 0.413928 0.665002 0.216594
N1    N     N_R   0.500000 0.743810 0.500000 -0.252079
N2    N     N_R   0.500000 0.256190 0.500000 -0.255824
O1    O     O_R   0.370260 0.582280 0.500030 -0.512224
O2    O     O_R   0.629740 0.417720 0.499970 -0.505047
O3    O     O_R   0.629740 0.582280 0.499970 -0.558582
O4    O     O_R   0.370260 0.417720 0.500030 -0.557182
O5    O     O_R   0.499980 0.582260 0.316850 -0.523957
O6    O     O_R   0.500020 0.417740 0.683150 -0.526242
O7    O     O_R   0.500020 0.582260 0.683150 -0.552670
O8    O     O_R   0.499980 0.417740 0.316850 -0.550654
C43   C     C_2   0.323007 0.483600 0.911483 0.954210
O9    O     O_2   0.279265 0.411513 0.934999 -0.520161
O10   O     O_R   0.288963 0.558308 0.839496 -0.703375
H3    H     H_    0.225473 0.546941 0.817712 0.335279
C44   C     C_2   0.665346 0.525112 0.094864 0.942091
O11   O     O_2   0.692134 0.466994 0.170491 -0.548738
O12   O     O_R   0.712983 0.608686 0.064896 -0.673144
H4    H     H_    0.765109 0.617669 0.118633 0.357347
C45   C     C_2   0.392191 0.663808 0.084479 1.024283
O13   O     O_2   0.317088 0.677016 0.050270 -0.502462
O14   O     O_R   0.430012 0.730751 0.162300 -0.677840
H5    H     H_    0.388260 0.786610 0.185486 0.366491
C46   C     C_2   0.601372 0.338653 0.920698 1.020909
O15   O     O_2   0.676054 0.327584 0.957540 -0.479374
O16   O     O_R   0.565812 0.269695 0.843491 -0.676236
H6    H     H_    0.608688 0.214258 0.823043 0.367430
C47   C     C_2   0.572498 0.673793 0.901892 1.001217
O17   O     O_2   0.539343 0.753258 0.925081 -0.520914
O18   O     O_R   0.648611 0.665694 0.822922 -0.707403
H7    H     H_    0.669974 0.730794 0.790383 0.357835
C48   C     C_2   0.417959 0.328649 0.098961 0.975862
O19   O     O_2   0.450568 0.248906 0.075912 -0.523605
O20   O     O_R   0.341675 0.337461 0.177449 -0.710193
H8    H     H_    0.319648 0.272568 0.209803 0.358074
Cl1   Cl    Cl    0.748761 0.357776 0.683786 -0.538343
Cl2   Cl    Cl    0.244225 0.642481 0.321956 -0.533059
C49   C     C_2   0.898937 0.403965 0.829608 1.009751
O21   O     O_2   0.850260 0.468775 0.870763 -0.491548
O22   O     O_R   0.903825 0.316183 0.894422 -0.666149
H9    H     H_    0.940185 0.265000 0.846957 0.321778
C50   C     C_2   0.105235 0.567728 0.167029 1.011263
O23   O     O_2   0.161183 0.506769 0.135005 -0.508587
O24   O     O_R   0.090757 0.648570 0.091739 -0.658178
H10   H     H_    0.129861 0.647824 0.012292 0.375728
C51   C     C_2   0.088678 0.377681 0.815311 0.831604
O25   O     O_2   0.079146 0.419579 0.915009 -0.523819
O26   O     O_R   0.140930 0.293646 0.804727 -0.714605
H11   H     H_    0.165772 0.273057 0.886633 0.398713
C52   C     C_2   0.919244 0.521177 0.169099 0.847738
O27   O     O_2   0.926003 0.573525 0.077349 -0.509255
O28   O     O_R   0.874484 0.433355 0.165563 -0.670454
H12   H     H_    0.846973 0.421146 0.083964 0.415902
Cl3   Cl    Cl    0.369649 0.732927 0.681162 -0.478807
Cl4   Cl    Cl    0.630810 0.267487 0.318945 -0.452692
Cl5   Cl    Cl    0.628924 0.730867 0.316160 -0.532281
Cl6   Cl    Cl    0.370185 0.267467 0.683326 -0.508599
C53   C     C_2   0.736902 0.893662 0.388028 0.914177
O29   O     O_2   0.765314 0.844912 0.472798 -0.561911
O30   O     O_R   0.783972 0.897876 0.272931 -0.654955
H13   H     H_    0.840793 0.857860 0.271398 0.360397
C54   C     C_2   0.261271 0.106217 0.598249 0.929326
O31   O     O_2   0.241054 0.162489 0.515913 -0.553179
O32   O     O_R   0.202806 0.091212 0.701161 -0.671327
H14   H     H_    0.144205 0.126788 0.693510 0.371132
C55   C     C_2   0.262977 0.899565 0.609017 0.936566
O33   O     O_2   0.231835 0.857806 0.521628 -0.526956
O34   O     O_R   0.219536 0.897245 0.726838 -0.645256
H15   H     H_    0.162444 0.859346 0.727862 0.362429
C56   C     C_2   0.737384 0.099796 0.389657 0.930870
O35   O     O_2   0.765715 0.146356 0.475161 -0.524523
O36   O     O_R   0.784888 0.095447 0.274868 -0.649104
H16   H     H_    0.841964 0.133357 0.274208 0.369620

loop_
_geom_bond_atom_site_label_1
_geom_bond_atom_site_label_2
_ccdc_geom_bond_type
C7    C49   S    
C50   O23   D    
O26   H11   S    
C27   C29   S    
C52   O27   D    
C54   O32   S    
C47   O17   D    
C11   N1    A    
C28   C46   S    
C25   O8    A    
C12   N2    A    
C26   O7    A    
C9    C51   S    
C6    C9    A    
O28   H12   S    
C39   C41   A    
C48   O19   D    
C15   C19   A    
C17   C23   A    
C18   C24   A    
C35   C37   A    
C25   O5    A    
C32   C44   S    
C29   C32   S    
C30   C31   S    
C43   O10   S    
C29   C47   S    
C22   C54   S    
C29   C33   S    
C11   Cl3   S    
C46   O16   S    
C2    O2    A    
C30   C48   S    
Cu1   O5    S    
C3    C41   A    
C55   O34   S    
C19   C20   A    
C45   O14   S    
C1    O1    A    
C54   O31   D    
C31   C33   S    
C36   H2    S    
C25   C34   S    
Cu2   O4    S    
C40   C42   A    
O10   H3    S    
C47   O18   S    
C46   O15   D    
C26   O6    A    
C48   O20   S    
C27   C34   S    
C30   C34   S    
C27   C31   S    
O14   H5    S    
C40   Cl2   S    
C28   C32   S    
C39   Cl1   S    
C4    C6    A    
C51   O25   D    
C13   N1    A    
Cu1   O1    S    
C14   N2    A    
C56   O36   S    
O22   H9    S    
O12   H4    S    
C32   C34   S    
O18   H7    S    
C27   C45   S    
C51   O26   S    
Cu2   O8    S    
C26   C33   S    
C49   O21   D    
C16   C20   A    
C44   O12   S    
C53   O30   S    
C1    C38   S    
Cu1   O7    S    
C49   O22   S    
C28   C33   S    
C13   C15   A    
Cu1   Cu2   S    
C14   C16   A    
C13   Cl5   S    
C3    C4    A    
C35   H1    S    
O34   H15   S    
Cu2   O2    S    
C7    C9    A    
C11   C17   A    
C16   C22   A    
C55   O33   D    
C8    C42   A    
C3    C5    A    
C52   O28   S    
C23   C55   S    
O30   H13   S    
C8    C50   S    
C31   C43   S    
C28   C30   S    
C5    C10   A    
C37   C39   A    
Cu2   N2    S    
O36   H16   S    
C38   C40   A    
C2    C37   S    
Cu1   O3    S    
C43   O9    D    
C4    C42   A    
C10   C52   S    
C5    C35   A    
C36   C38   A    
C17   C19   A    
C6    C36   A    
C18   C20   A    
C7    C41   A    
C44   O11   D    
C1    O4    A    
C12   Cl4   S    
C14   Cl6   S    
C2    O3    A    
O20   H8    S    
C21   C53   S    
Cu2   O6    S    
C15   C21   A    
O16   H6    S    
C24   C56   S    
C8    C10   A    
C45   O13   D    
C21   C24   A    
C12   C18   A    
C53   O29   D    
C50   O24   S    
C22   C23   A    
O24   H10   S    
O32   H14   S    
Cu1   N1    S    
C56   O35   D    
