data_mof_unit_67059.cif
_audit_creation_date              2013-03-05T15:58:16-0500
_audit_creation_method            fapswitch 2.2
_symmetry_space_group_name_H-M    P1
_symmetry_Int_Tables_number       1
_space_group_crystal_system       triclinic
_cell_length_a                    8.220953
_cell_length_b                    12.725697
_cell_length_c                    14.269726
_cell_angle_alpha                 93.034606
_cell_angle_beta                  90.94183
_cell_angle_gamma                 98.645439
_cell_volume                      1473.37874417

loop_
_atom_site_label
_atom_site_type_symbol
_atom_site_description
_atom_site_fract_x
_atom_site_fract_y
_atom_site_fract_z
_atom_type_partial_charge
P1    P     P_3+3 0.054400 0.427280 0.286870 0.455025
O1    O     O_2   0.887370 0.460630 0.272300 -0.333546
O2    O     O_3   0.129410 0.451380 0.388510 -0.405910
O3    O     O_3   0.670210 0.653170 0.329170 -0.360420
O4    O     O_2   0.767533 0.575763 0.165536 -0.373345
O5    O     O_3   0.008833 0.289747 0.262568 -0.591037
O6    O     O_3   0.739823 0.775417 0.172486 -0.521152
H1    H     H_    0.775834 0.894957 0.276509 0.148436
C1    C     C_3   0.627877 0.936463 0.161536 -0.537886
H2    H     H_    0.593983 0.004334 0.204703 0.188248
P2    P     P_3+3 0.668300 0.742890 0.573060 0.448003
P3    P     P_3+3 0.133154 0.842305 0.375664 0.442392
O7    O     O_2   0.845380 0.761330 0.544970 -0.371239
O8    O     O_3   0.088930 0.704860 0.376040 -0.386844
O9    O     O_2   0.001305 0.888553 0.434190 -0.378507
O10   O     O_3   0.677682 0.764298 0.695347 -0.591571
O11   O     O_3   0.101824 0.879368 0.261220 -0.542821
C2    C     C_3   0.167756 0.808267 0.199174 0.510734
H3    H     H_    0.097628 0.726637 0.201357 0.138974
H4    H     H_    0.299410 0.807009 0.216526 -0.003724
C3    C     C_3   0.154487 0.843216 0.099605 -1.076301
H5    H     H_    0.023311 0.832874 0.077156 0.291576
H6    H     H_    0.209337 0.927974 0.095670 0.255926
C4    C     C_3   0.235086 0.761437 0.656174 0.380546
H7    H     H_    0.362955 0.747488 0.647469 0.106461
H8    H     H_    0.160786 0.733433 0.591475 0.140712
C5    C     C_3   0.232255 0.880282 0.671574 -0.933817
H9    H     H_    0.271997 0.907235 0.744498 0.273145
H10   H     H_    0.314970 0.925591 0.622549 0.231693
H11   H     H_    0.105733 0.897559 0.659828 0.264305
Ba1   Ba    Ba6+2 0.855630 0.555280 0.454520 1.548961
C6    C     C_3   0.964223 0.240255 0.345512 0.418467
H12   H     H_    0.860864 0.274239 0.377554 0.117574
H13   H     H_    0.069166 0.250649 0.396311 0.129809
C7    C     C_3   0.911982 0.122029 0.322532 -1.044826
H14   H     H_    0.000724 0.089959 0.275357 0.270603
H15   H     H_    0.789262 0.109819 0.287598 0.268638
H16   H     H_    0.905791 0.077545 0.387234 0.257355
C8    C     C_3   0.718487 0.674605 0.737565 0.346749
H17   H     H_    0.847714 0.667150 0.722769 0.098625
H18   H     H_    0.637445 0.600500 0.711802 0.104798
C9    C     C_3   0.697119 0.687482 0.843940 -0.438263
H19   H     H_    0.753788 0.626384 0.880041 0.163544
H20   H     H_    0.563639 0.673759 0.858423 0.163659
P4    P     P_3+3 0.135310 0.572810 0.713130 0.448686
O12   O     O_2   0.302330 0.539400 0.727760 -0.369327
O13   O     O_3   0.060300 0.548700 0.611500 -0.400626
O14   O     O_3   0.519500 0.346920 0.670840 -0.376875
O15   O     O_3   0.173476 0.710919 0.735735 -0.586154
P5    P     P_3+3 0.060432 0.156646 0.626424 0.440430
O16   O     O_3   0.614310 0.373510 0.452640 -0.351363
O17   O     O_3   0.100780 0.295230 0.623970 -0.386376
O18   O     O_2   0.191717 0.112365 0.566021 -0.379439
O19   O     O_3   0.103158 0.121517 0.740151 -0.520464
Ba2   Ba    Ba6+2 0.334200 0.444810 0.545490 1.537014
P6    P     P_3+3 0.653485 0.650925 0.207217 0.479750
C10   C     C_3   0.677592 0.855338 0.226750 0.345835
H21   H     H_    0.569213 0.826829 0.269299 0.014452
H22   H     H_    0.517661 0.899463 0.119026 0.202906
O20   O     O_3   0.575400 0.626570 0.547370 -0.396239
C11   C     C_3   0.362744 0.217735 0.262196 0.415903
H23   H     H_    0.271320 0.165856 0.301523 0.050284
H24   H     H_    0.331459 0.299569 0.265081 0.095558
C12   C     C_3   0.347772 0.169025 0.161433 -0.482630
H25   H     H_    0.216500 0.157663 0.137461 0.191813
H26   H     H_    0.384240 0.088739 0.160851 0.178259
P7    P     P_3+3 0.526316 0.241080 0.422079 0.429431
O21   O     O_2   0.344320 0.238700 0.455090 -0.399326
O22   O     O_3   0.523052 0.219687 0.298988 -0.594691
H27   H     H_    0.219902 0.793757 0.051171 0.237668
C13   C     C_3   0.047367 0.194792 0.804581 0.494832
H28   H     H_    0.104205 0.277842 0.793210 0.141917
H29   H     H_    0.911509 0.188384 0.799389 0.010227
C14   C     C_3   0.096086 0.170877 0.903390 -1.002668
H30   H     H_    0.230474 0.192153 0.914618 0.307988
H31   H     H_    0.034260 0.218497 0.955330 0.221374
H32   H     H_    0.062090 0.084872 0.914329 0.254830
P8    P     P_3+3 0.534947 0.343472 0.792387 0.433482
C15   C     C_3   0.540045 0.144267 0.751756 0.528473
H33   H     H_    0.657544 0.180192 0.721224 0.019225
O23   O     O_2   0.399087 0.401952 0.834862 -0.401160
O24   O     O_3   0.484252 0.211137 0.821932 -0.535323
H34   H     H_    0.444703 0.125752 0.694848 0.148320
H35   H     H_    0.685987 0.054865 0.835776 0.261274
C16   C     C_3   0.569786 0.041216 0.793664 -1.105287
H36   H     H_    0.580635 0.979839 0.736857 0.254058
H37   H     H_    0.467475 0.011753 0.839841 0.282897
C17   C     C_R   0.983184 0.446542 0.060678 -0.143561
C18   C     C_R   0.177533 0.503486 0.196862 0.229933
C19   C     C_R   0.330051 0.558519 0.227989 -0.493429
C20   C     C_R   0.441562 0.607047 0.165285 0.247943
C21   C     C_R   0.396608 0.611098 0.070956 -0.340973
C22   C     C_R   0.241261 0.560944 0.037039 0.084533
C23   C     C_R   0.131229 0.503804 0.099236 -0.005431
H38   H     H_    0.367880 0.556326 0.300770 0.185774
C24   C     C_R   0.051111 0.505932 0.902336 -0.000513
C25   C     C_R   0.941236 0.449240 0.964558 0.075908
C26   C     C_R   0.007060 0.502508 0.804206 0.240413
C27   C     C_R   0.853562 0.448552 0.773440 -0.541942
C28   C     C_R   0.741425 0.401266 0.836356 0.257922
C29   C     C_R   0.787626 0.397064 0.930421 -0.326832
C30   C     C_R   0.199800 0.562664 0.940626 -0.156768
H39   H     H_    0.485163 0.649934 0.023677 0.157145
H40   H     H_    0.703677 0.353822 0.977140 0.155271
H41   H     H_    0.817802 0.447535 0.700042 0.179519
H42   H     H_    0.898733 0.399195 0.104708 0.171114
H43   H     H_    0.285252 0.608066 0.895947 0.155888
C31   C     C_R   0.763279 0.176662 0.538012 -0.501488
C32   C     C_R   0.429661 0.813011 0.461803 -0.513545
C33   C     C_R   0.404676 0.994114 0.430882 -0.231347
C34   C     C_R   0.340602 0.886858 0.425125 0.220949
C35   C     C_R   0.576760 0.846249 0.512621 0.289822
C36   C     C_R   0.641394 0.957036 0.522378 -0.061645
C37   C     C_R   0.554955 0.031309 0.478645 -0.059617
C38   C     C_R   0.618645 0.141236 0.486065 0.259171
C39   C     C_R   0.852675 0.104990 0.577842 0.208154
C40   C     C_R   0.789883 0.996227 0.572873 -0.197351
H44   H     H_    0.331614 0.047337 0.400554 0.170018
H45   H     H_    0.859478 0.943834 0.607511 0.176738
H46   H     H_    0.811756 0.260714 0.542947 0.167087
H47   H     H_    0.378737 0.729370 0.455967 0.173147
N1    N     N_2   0.766594 0.792737 0.882540 -0.085887
H48   H     H_    0.700009 0.852163 0.866385 0.229057
C41   C     C_3   0.942517 0.822423 0.875687 -0.782387
H49   H     H_    0.973588 0.840562 0.802523 0.274841
H50   H     H_    0.008061 0.757669 0.898776 0.257262
H51   H     H_    0.983944 0.895161 0.921094 0.218793
C42   C     C_3   0.453705 0.235627 0.092283 -0.266261
C43   C     C_3   0.387331 0.337264 0.073340 -0.850528
H52   H     H_    0.252250 0.321129 0.061109 0.260417
H53   H     H_    0.419749 0.393854 0.134198 0.247698
H54   H     H_    0.443893 0.373684 0.010798 0.274334
H55   H     H_    0.581915 0.256722 0.120004 0.225643
H56   H     H_    0.453962 0.188504 0.024718 0.221859
C44   C     C_3   0.766937 0.973795 0.095234 -0.133040
C45   C     C_3   0.729755 0.067394 0.041841 -0.996827
H57   H     H_    0.602331 0.051438 0.012231 0.279104
H58   H     H_    0.749338 0.140151 0.089109 0.280203
H59   H     H_    0.814553 0.079456 0.983174 0.260060
H60   H     H_    0.885697 0.996756 0.134606 0.214927
H61   H     H_    0.779983 0.907545 0.043783 0.226033

loop_
_geom_bond_atom_site_label_1
_geom_bond_atom_site_label_2
_geom_bond_distance
_ccdc_geom_bond_type
O14   Ba2   2.790828 S    
O5    C6    1.398493 S    
C22   C23   1.425364 A    
C24   C30   1.408866 A    
C5    H10   1.106673 S    
C2    C3    1.518169 S    
C31   H46   1.082048 S    
O4    P6    1.541235 D    
C7    H14   1.108382 S    
C4    C5    1.520430 S    
O8    Ba1   2.784736 S    
C42   C43   1.512629 S    
C33   H44   1.073115 S    
C37   C38   1.415819 A    
C19   C20   1.391998 A    
C44   C45   1.513466 S    
C8    H18   1.111178 S    
C16   H36   1.109700 S    
P5    O19   1.749895 S    
C14   H31   1.110095 S    
C31   C38   1.393206 A    
C41   H50   1.111009 S    
C7    H15   1.103904 S    
C4    H8    1.110695 S    
C2    H3    1.111941 S    
P4    C26   1.866977 S    
C40   H45   1.075389 S    
C11   O22   1.406805 S    
P1    Ba1   3.400416 S    
C39   C40   1.400289 A    
P1    O1    1.511302 D    
O14   P8    1.740350 S    
C18   C23   1.438493 A    
C11   H24   1.108460 S    
P7    C38   1.847756 S    
C33   C34   1.384829 A    
C21   C22   1.405179 A    
C21   H39   1.082906 S    
O2    Ba2   2.792390 S    
P6    C20   1.828384 S    
O19   C13   1.405995 S    
C12   C42   1.531455 S    
C14   H32   1.108116 S    
C24   C26   1.437349 A    
O12   Ba2   2.840462 S    
P5    O17   1.747148 S    
C1    H2    1.106658 S    
C33   C37   1.406146 A    
C1    C10   1.521484 S    
C17   C25   1.412232 A    
O17   Ba2   2.785321 S    
C43   H54   1.104598 S    
P4    O13   1.563387 S    
P2    Ba1   3.420004 S    
Ba1   O13   2.791824 S    
Ba2   O20   2.809887 S    
O3    P6    1.741790 S    
C5    H11   1.106894 S    
C9    H20   1.109507 S    
O6    P6    1.736637 S    
C45   H59   1.100448 S    
C35   C36   1.428606 A    
Ba2   O21   2.874272 S    
C8    C9    1.533920 S    
C16   H37   1.109852 S    
C44   H60   1.110426 S    
C27   H41   1.082080 S    
C17   C23   1.408521 A    
P5    O18   1.545103 D    
C14   H30   1.104176 S    
P7    O21   1.572397 D    
C6    C7    1.518024 S    
C19   H38   1.082204 S    
C7    H16   1.106220 S    
C4    H7    1.100018 S    
C45   H58   1.106182 S    
C32   C35   1.397176 A    
C20   C21   1.395634 A    
C13   H29   1.108525 S    
O16   Ba2   2.912504 S    
P4    O12   1.511666 D    
P1    O5    1.748756 S    
O1    Ba1   2.839940 S    
P1    O2    1.563506 S    
C6    H13   1.105553 S    
Ba1   O20   2.913286 S    
P3    O11   1.749289 S    
C11   C12   1.530911 S    
C42   H56   1.108323 S    
H1    C10   1.109710 S    
C15   O24   1.406955 S    
C17   H42   1.080957 S    
P2    O10   1.750465 S    
P8    O24   1.748554 S    
C27   C28   1.391260 A    
P3    O9    1.545398 D    
P4    O15   1.749939 S    
C24   C25   1.422323 A    
P5    C39   1.845303 S    
O11   C2    1.405272 S    
C30   H43   1.079586 S    
O16   P7    1.760367 S    
H35   C16   1.106362 S    
O2    Ba1   2.921262 S    
C41   H51   1.107746 S    
C36   C40   1.417074 A    
C1    C44   1.532188 S    
P3    O8    1.732453 S    
C29   H40   1.078595 S    
C3    H6    1.109448 S    
P8    C28   1.832134 S    
C9    H19   1.109226 S    
N1    C41   1.445078 S    
P2    O20   1.581861 S    
C15   C16   1.520453 S    
C9    N1    1.450943 S    
O13   Ba2   2.922025 S    
C36   C37   1.427435 A    
P7    O22   1.762293 S    
C4    O15   1.398950 S    
P1    C18   1.869305 S    
P2    C35   1.853793 S    
O7    Ba1   2.874064 S    
Ba1   O16   2.810552 S    
C45   H57   1.108839 S    
C22   C30   1.414027 A    
C13   C14   1.518095 S    
C3    H27   1.109482 S    
Ba1   Ba2   4.563797 S    
C12   H25   1.112774 S    
C31   C39   1.392008 A    
C32   C34   1.392638 A    
C43   H52   1.107750 S    
C13   H28   1.110784 S    
C42   H55   1.108814 S    
C6    H12   1.104722 S    
C15   H34   1.110224 S    
P2    O7    1.503807 D    
P8    O23   1.546943 D    
C32   H47   1.081959 S    
C10   H21   1.112665 S    
C28   C29   1.394912 A    
C2    H4    1.108963 S    
C11   H23   1.104354 S    
O3    Ba1   2.791423 S    
O10   C8    1.399827 S    
C15   H33   1.110882 S    
C8    H17   1.103524 S    
C44   H61   1.107056 S    
P4    Ba2   3.400875 S    
C26   C27   1.394975 A    
C5    H9    1.106609 S    
N1    H48   1.031228 S    
C1    H22   1.110897 S    
C18   C19   1.394496 A    
C3    H5    1.106522 S    
O6    C10   1.407751 S    
P3    C34   1.831778 S    
C25   C29   1.402260 A    
C12   H26   1.106837 S    
C41   H49   1.106834 S    
C43   H53   1.101028 S    
