data_mof_unit_19396.cif
_audit_creation_date              2012-10-26T19:52:29-0400
_audit_creation_method            fapswitch 2.2
_symmetry_space_group_name_H-M    P1
_symmetry_Int_Tables_number       1
_space_group_crystal_system       triclinic
_cell_length_a                    9.559029
_cell_length_b                    10.826622
_cell_length_c                    13.48525
_cell_angle_alpha                 90.141547
_cell_angle_beta                  73.638431
_cell_angle_gamma                 89.832708
_cell_volume                      1339.08376965

loop_
_atom_site_label
_atom_site_type_symbol
_atom_type_description
_atom_site_fract_x
_atom_site_fract_y
_atom_site_fract_z
_atom_type_partial_charge
C1    C     C_R   0.500179 0.737577 0.499460 0.552759
C2    C     C_R   0.386553 0.451028 0.809410 -0.001234
C3    C     C_R   0.393376 0.936706 0.467824 0.020257
C4    C     C_R   0.424513 0.485017 0.698548 0.539884
C5    C     C_R   0.504347 0.870772 0.492972 0.009413
C6    C     C_R   0.624493 0.935336 0.507377 -0.167093
C7    C     C_R   0.623528 0.063752 0.509034 -0.170281
C8    C     C_R   0.504043 0.129122 0.494049 0.007524
C9    C     C_R   0.393442 0.063993 0.468061 0.018491
C10   C     C_3   0.231840 0.070944 0.513451 -0.266504
C11   C     C_3   0.231817 0.930673 0.513148 -0.270199
C12   C     C_R   0.449443 0.434604 0.973510 0.031523
C13   C     C_R   0.950523 0.419667 0.438231 0.150622
C14   C     C_R   0.898669 0.571220 0.567378 -0.033484
C15   C     C_R   0.047337 0.571022 0.567541 -0.020249
C16   C     C_R   0.500248 0.262402 0.499910 0.548466
C17   C     C_R   0.098804 0.420716 0.437446 0.105673
C18   C     C_3   0.150613 0.419500 0.322499 -0.252873
C19   C     C_3   0.992233 0.417940 0.322550 0.137893
C20   C     C_R   0.577574 0.499699 0.300289 0.554267
C21   C     C_R   0.807412 0.502139 0.022778 -0.134395
C22   C     C_R   0.622406 0.493389 0.186969 0.005716
C23   C     C_R   0.494422 0.437445 0.863933 0.029148
C24   C     C_R   0.239338 0.433171 0.862887 -0.144526
C25   C     C_R   0.198397 0.408617 0.968165 -0.144341
C26   C     C_R   0.300359 0.413778 0.023751 -0.120437
C27   C     C_3   0.960756 0.198346 0.319522 0.005564
C28   C     C_3   0.887718 0.100198 0.270583 -0.358367
C29   C     C_R   0.555706 0.453743 0.027865 0.029525
C30   C     C_R   0.704192 0.468545 0.972009 0.051251
C31   C     C_R   0.748470 0.447006 0.866295 -0.150900
C32   C     C_R   0.645557 0.425576 0.813886 -0.125998
C33   C     C_R   0.518625 0.464250 0.135648 -0.139175
C34   C     C_R   0.766862 0.514747 0.129709 -0.111449
Cu1   Cu    Cu3+1 0.359330 0.500020 0.500010 0.929926
Cu2   Cu    Cu3+1 0.640670 0.499980 0.499990 0.939226
H1    H     H_    0.848224 0.541647 0.167070 0.127062
H2    H     H_    0.215275 0.335689 0.291702 0.118176
H3    H     H_    0.961298 0.505598 0.291718 0.130717
H4    H     H_    0.863201 0.446036 0.823903 0.099738
H5    H     H_    0.918777 0.520779 0.979189 0.099863
H6    H     H_    0.409445 0.450456 0.181332 0.107496
H7    H     H_    0.155564 0.436412 0.823060 0.122834
H8    H     H_    0.259070 0.398130 0.105441 0.115500
H9    H     H_    0.086151 0.388183 0.008140 0.137160
H10   H     H_    0.688691 0.395873 0.734904 0.157400
H11   H     H_    0.715515 0.887241 0.522982 0.131256
H12   H     H_    0.712704 0.111122 0.527233 0.123884
H13   H     H_    0.906279 0.198223 0.403751 0.129831
H14   H     H_    0.076809 0.171515 0.305331 0.113688
H15   H     H_    0.941969 0.094412 0.186242 0.155937
H16   H     H_    0.895807 0.008940 0.306056 0.093711
H17   H     H_    0.770792 0.123667 0.283093 0.171443
H18   H     H_    0.199496 0.111774 0.592446 0.143290
H19   H     H_    0.176593 0.111634 0.458810 0.121216
H20   H     H_    0.199463 0.890001 0.591965 0.135940
H21   H     H_    0.176564 0.890478 0.458269 0.135132
H22   H     H_    0.821686 0.630890 0.620502 0.122902
H23   H     H_    0.081703 0.630512 0.620783 0.114185
H24   H     H_    0.202929 0.508429 0.292236 0.114670
N1    N     N_R   0.852320 0.499070 0.499340 -0.257228
N2    N     N_R   0.148230 0.499110 0.499340 -0.232622
O1    O     O_R   0.381190 0.680360 0.500000 -0.499364
O2    O     O_R   0.618780 0.680320 0.499990 -0.511300
O3    O     O_R   0.323230 0.500000 0.650990 -0.508447
O4    O     O_R   0.560820 0.499960 0.650980 -0.519884
O5    O     O_R   0.381220 0.319680 0.500010 -0.499493
O6    O     O_R   0.618810 0.319640 0.500000 -0.503021
O7    O     O_R   0.439180 0.500040 0.349020 -0.511849
O8    O     O_R   0.676770 0.500000 0.349010 -0.484689
O9    O     O_3   0.947596 0.313933 0.273838 -0.550759

loop_
_geom_bond_atom_site_label_1
_geom_bond_atom_site_label_2
_ccdc_geom_bond_type
C2    C4    S    
C28   H17   S    
Cu2   O6    S    
C29   C30   A    
C3    C9    A    
C13   C17   A    
C12   C29   A    
Cu2   O8    S    
C34   H1    S    
C21   C30   A    
C6    C7    A    
C19   O9    S    
Cu1   Cu2   S    
C27   H14   S    
Cu1   O5    S    
C30   C31   A    
C32   H10   S    
C23   C32   A    
C2    C23   A    
C17   C18   S    
C18   H2    S    
C26   H8    S    
C7    C8    A    
C8    C16   S    
C16   O5    A    
C11   H21   S    
C7    H12   S    
C17   N2    A    
C4    O4    A    
C10   H19   S    
C28   H16   S    
C12   C23   A    
C20   O8    A    
C4    O3    A    
C19   H3    S    
C16   O6    A    
C33   H6    S    
C1    O1    A    
C9    C10   S    
C18   H24   S    
C25   C26   A    
C15   N2    A    
C20   C22   S    
Cu1   N2    S    
Cu2   O4    S    
C2    C24   A    
C5    C6    A    
C22   C34   A    
C28   H15   S    
C21   H5    S    
C20   O7    A    
C3    C11   S    
C6    H11   S    
C13   C19   S    
C10   H18   S    
C27   H13   S    
Cu2   N1    S    
C1    O2    A    
C25   H9    S    
C1    C5    S    
C13   N1    A    
C24   C25   A    
Cu1   O7    S    
C18   C19   S    
C10   C11   S    
C27   C28   S    
C24   H7    S    
C22   C33   A    
Cu1   O3    S    
C14   C15   A    
Cu1   O1    S    
C21   C34   A    
C31   H4    S    
Cu2   O2    S    
C14   N1    A    
C15   H23   S    
C29   C33   A    
C11   H20   S    
C31   C32   A    
C27   O9    S    
C12   C26   A    
C8    C9    A    
C3    C5    A    
C14   H22   S    
