data_mof_unit_51260.cif
_audit_creation_date              2012-12-10T17:55:50-0500
_audit_creation_method            fapswitch 2.2
_symmetry_space_group_name_H-M    P1
_symmetry_Int_Tables_number       1
_space_group_crystal_system       triclinic
_cell_length_a                    11.458632
_cell_length_b                    10.860133
_cell_length_c                    9.698396
_cell_angle_alpha                 87.358296
_cell_angle_beta                  101.04509
_cell_angle_gamma                 95.684204
_cell_volume                      1178.25600368

loop_
_atom_site_label
_atom_site_type_symbol
_atom_type_description
_atom_site_fract_x
_atom_site_fract_y
_atom_site_fract_z
_atom_type_partial_charge
C1    C     C_R   0.506405 0.263010 0.504902 0.811384
C2    C     C_R   0.502472 0.737600 0.498127 0.824223
C3    C     C_R   0.265210 0.501428 0.444187 0.809889
C4    C     C_R   0.735116 0.508060 0.555361 0.811799
C5    C     C_R   0.437533 0.406506 0.065696 -0.020340
C6    C     C_R   0.562606 0.592298 0.935593 0.029659
C7    C     C_R   0.427614 0.411608 0.915357 -0.038559
C8    C     C_R   0.554150 0.596518 0.079986 0.045021
C9    C     C_2   0.134599 0.506677 0.413019 -0.261647
C10   C     C_2   0.866570 0.527586 0.586182 -0.238043
C11   C     C_2   0.068114 0.518357 0.515456 -0.144497
C12   C     C_2   0.935953 0.534626 0.483879 -0.283118
C13   C     C_R   0.606750 0.077552 0.455469 0.049962
C14   C     C_R   0.422875 0.928432 0.555874 0.021438
C15   C     C_R   0.608237 0.946804 0.462885 -0.092159
C16   C     C_R   0.450686 0.051804 0.595378 -0.098799
C17   C     C_R   0.507502 0.872982 0.496756 -0.118764
C18   C     C_R   0.521381 0.129518 0.517528 -0.116525
Cu1   Cu    Cu3+1 0.500000 0.500020 0.640660 1.061778
Cu2   Cu    Cu3+1 0.500000 0.499980 0.359340 1.034579
N1    N     N_R   0.500030 0.500030 0.852080 -0.226469
N2    N     N_R   0.499970 0.499970 0.147920 -0.252074
O1    O     O_R   0.499990 0.319660 0.618740 -0.522007
O2    O     O_R   0.500010 0.680340 0.381260 -0.575021
O3    O     O_R   0.499990 0.319630 0.381170 -0.602805
O4    O     O_R   0.500010 0.680370 0.618830 -0.576518
O5    O     O_R   0.320690 0.500020 0.575130 -0.548557
O6    O     O_R   0.679310 0.499980 0.424870 -0.581877
O7    O     O_R   0.320680 0.499990 0.337560 -0.533975
O8    O     O_R   0.679320 0.500010 0.662440 -0.532339
C19   C     C_2   0.885611 0.576173 0.338597 1.021722
O9    O     O_2   0.914958 0.681156 0.299773 -0.523344
O10   O     O_R   0.817566 0.494623 0.240733 -0.712840
H1    H     H_    0.809549 0.407524 0.281196 0.307778
C20   C     C_2   0.123396 0.501390 0.664722 0.936504
O11   O     O_2   0.096703 0.405495 0.726521 -0.573209
O12   O     O_R   0.197508 0.597332 0.736658 -0.741325
H2    H     H_    0.225564 0.575419 0.839627 0.345078
C21   C     C_2   0.378247 0.298456 0.131816 0.983733
O13   O     O_2   0.413562 0.196300 0.128303 -0.630536
O14   O     O_R   0.275321 0.309917 0.185336 -0.688343
H3    H     H_    0.241970 0.228599 0.224533 0.338555
C22   C     C_2   0.637873 0.691966 0.877232 0.921377
O15   O     O_2   0.737966 0.673692 0.862552 -0.534221
O16   O     O_R   0.597953 0.809836 0.849858 -0.733549
H4    H     H_    0.658483 0.871066 0.813518 0.345929
C23   C     C_2   0.914998 0.557883 0.735422 1.010515
O17   O     O_2   0.968000 0.659425 0.764437 -0.539195
O18   O     O_R   0.893589 0.472933 0.842503 -0.705912
H5    H     H_    0.924860 0.507440 0.939207 0.370409
C24   C     C_2   0.082156 0.487895 0.262878 0.932220
O19   O     O_2   0.093851 0.571221 0.175995 -0.530084
O20   O     O_R   0.028841 0.371323 0.220508 -0.772629
H6    H     H_    0.003286 0.366325 0.114877 0.360423
C25   C     C_2   0.328967 0.324944 0.832806 0.904033
O21   O     O_2   0.322484 0.307337 0.709454 -0.558449
O22   O     O_R   0.238232 0.263643 0.895700 -0.707848
H7    H     H_    0.181973 0.203370 0.831692 0.379937
C26   C     C_2   0.596903 0.710904 0.152764 0.916408
O23   O     O_2   0.685351 0.713768 0.244346 -0.534060
O24   O     O_R   0.535732 0.816129 0.115780 -0.717998
H8    H     H_    0.573949 0.890037 0.172705 0.340444
C27   C     C_3   0.704723 0.160716 0.401571 -0.350983
C28   C     C_3   0.680114 0.172052 0.239455 -0.285855
C29   C     C_3   0.791933 0.168299 0.175787 -0.722380
H9    H     H_    0.873108 0.203498 0.249765 0.279385
H10   H     H_    0.802368 0.072332 0.148910 0.293179
H11   H     H_    0.783914 0.225736 0.077196 0.261105
H12   H     H_    0.613045 0.097720 0.192407 0.255924
H13   H     H_    0.641799 0.261232 0.207239 0.230664
H14   H     H_    0.713888 0.254774 0.444344 0.159632
H15   H     H_    0.793378 0.128195 0.445175 0.220652
C30   C     C_3   0.309070 0.856504 0.586383 -0.291133
C31   C     C_3   0.198388 0.925735 0.527104 -0.406276
C32   C     C_3   0.090442 0.872044 0.587677 -0.612094
H16   H     H_    0.061618 0.777262 0.549496 0.275105
H17   H     H_    0.112133 0.869676 0.704353 0.297539
H18   H     H_    0.016011 0.931221 0.554258 0.229066
H19   H     H_    0.214320 0.025433 0.552092 0.248264
H20   H     H_    0.177490 0.919385 0.410728 0.239936
H21   H     H_    0.293530 0.764420 0.537813 0.192031
H22   H     H_    0.318075 0.839300 0.701495 0.271874
C33   C     C_2   0.719663 0.889337 0.456343 0.865184
O25   O     O_2   0.753913 0.808875 0.542840 -0.586111
O26   O     O_R   0.786906 0.928249 0.354028 -0.758283
H23   H     H_    0.863017 0.886155 0.364198 0.374350
C34   C     C_2   0.444251 0.083545 0.741145 0.947017
O27   O     O_2   0.356304 0.049684 0.791923 -0.577893
O28   O     O_R   0.543929 0.146088 0.824118 -0.738385
H24   H     H_    0.531939 0.158662 0.923116 0.341321

loop_
_geom_bond_atom_site_label_1
_geom_bond_atom_site_label_2
_ccdc_geom_bond_type
C25   O21   D    
O14   H3    S    
Cu1   Cu2   S    
C9    C24   S    
C7    C25   S    
C22   O15   D    
C23   O18   S    
O16   H4    S    
C1    C18   S    
C13   C18   A    
Cu1   N1    S    
C8    C26   S    
O26   H23   S    
Cu2   O3    S    
C3    O7    A    
C30   C31   S    
C32   H17   S    
Cu1   O4    S    
C5    N2    A    
C33   O25   D    
C29   H10   S    
C16   C34   S    
C8    N2    A    
C19   O10   S    
C28   H13   S    
Cu1   O5    S    
C26   O23   D    
C31   H20   S    
C2    C17   S    
C1    O3    A    
C14   C17   A    
C30   H21   S    
C4    O6    A    
Cu2   O7    S    
C26   O24   S    
C31   C32   S    
C24   O19   D    
C14   C30   S    
Cu2   O2    S    
C21   O14   S    
C21   O13   D    
C5    C7    A    
C15   C33   S    
Cu2   O6    S    
O20   H6    S    
C6    N1    A    
C24   O20   S    
C20   O11   D    
Cu1   O1    S    
C32   H16   S    
O12   H2    S    
C3    C9    S    
C9    C11   D    
C23   O17   D    
C13   C27   S    
C29   H11   S    
O10   H1    S    
C2    O4    A    
C25   O22   S    
C28   H12   S    
C22   O16   S    
C10   C12   D    
C33   O26   S    
C27   H14   S    
C1    O1    A    
C31   H19   S    
C13   C15   A    
C12   C19   S    
C2    O2    A    
C14   C16   A    
C4    C10   S    
C30   H22   S    
C15   C17   A    
C5    C21   S    
C20   O12   S    
C19   O9    D    
Cu2   N2    S    
C6    C8    A    
C11   C12   S    
C6    C22   S    
C28   C29   S    
C11   C20   S    
C7    N1    A    
O22   H7    S    
C3    O5    A    
C29   H9    S    
O24   H8    S    
C32   H18   S    
C27   C28   S    
C27   H15   S    
C34   O27   D    
C16   C18   A    
O18   H5    S    
C10   C23   S    
C34   O28   S    
O28   H24   S    
Cu1   O8    S    
C4    O8    A    
