data_mof_unit_41375.cif
_audit_creation_date              2012-12-10T17:34:57-0500
_audit_creation_method            fapswitch 2.2
_symmetry_space_group_name_H-M    P1
_symmetry_Int_Tables_number       1
_space_group_crystal_system       triclinic
_cell_length_a                    12.383838
_cell_length_b                    13.094918
_cell_length_c                    13.826797
_cell_angle_alpha                 105.387373
_cell_angle_beta                  73.952578
_cell_angle_gamma                 116.241942
_cell_volume                      1905.93919813

loop_
_atom_site_label
_atom_site_type_symbol
_atom_type_description
_atom_site_fract_x
_atom_site_fract_y
_atom_site_fract_z
_atom_type_partial_charge
C1    C     C_R   0.144565 0.714379 0.511570 0.779472
C2    C     C_1   0.970230 0.500575 0.791318 -0.199383
C3    C     C_R   0.737045 0.966356 0.382482 0.441920
C4    C     C_R   0.775861 0.163144 0.468669 -0.141129
C5    C     C_R   0.186248 0.913132 0.605221 -0.313132
C6    C     C_R   0.267134 0.018026 0.647283 -0.195263
C7    C     C_R   0.392801 0.050780 0.615248 0.432846
C8    C     C_R   0.439372 0.983919 0.528252 -0.013740
C9    C     C_R   0.355438 0.875680 0.485775 0.046667
C10   C     C_R   0.566403 0.017960 0.484841 0.007891
C11   C     C_R   0.609894 0.937623 0.414412 0.063973
C12   C     C_R   0.983329 0.502902 0.686298 0.814837
C13   C     C_R   0.525742 0.832966 0.372859 -0.202865
C14   C     C_R   0.401075 0.806616 0.402719 -0.193359
C15   C     C_R   0.650434 0.131920 0.503892 -0.229861
C16   C     C_R   0.819689 0.079397 0.411044 -0.274267
C17   C     C_R   0.228270 0.837769 0.528919 -0.098911
C18   C     C_R   0.622051 0.656994 0.671588 -0.317425
C19   C     C_R   0.253495 0.354270 0.360427 0.053422
C20   C     C_R   0.352254 0.319593 0.327838 0.043096
C21   C     C_R   0.448541 0.372266 0.382713 -0.240428
C22   C     C_R   0.447220 0.457916 0.469010 -0.013583
C23   C     C_R   0.856639 0.285917 0.484898 0.826113
C24   C     C_R   0.344140 0.489571 0.497874 0.275464
C25   C     C_R   0.544404 0.514724 0.527287 -0.022589
C26   C     C_R   0.530513 0.596192 0.614729 0.145371
C27   C     C_R   0.429076 0.624222 0.642139 -0.282068
C28   C     C_R   0.339897 0.574585 0.583246 -0.159106
C29   C     C_R   0.655560 0.496662 0.503228 -0.009706
C30   C     C_R   0.734517 0.648125 0.637970 0.297857
C31   C     C_R   0.016261 0.496667 0.313708 0.805985
C32   C     C_1   0.027924 0.499111 0.208998 -0.174231
C33   C     C_2   0.043150 0.508121 0.017687 -0.248081
C34   C     C_2   0.943748 0.493306 0.985945 0.491151
C35   C     C_1   0.957474 0.497600 0.879851 -0.146678
C36   C     C_1   0.036461 0.502730 0.121373 0.070773
Cu1   Cu    Cu3+1 0.899780 0.525060 0.522890 0.923067
Cu2   Cu    Cu3+1 0.100220 0.474940 0.477110 0.920267
H1    H     H_    0.341181 0.730351 0.360205 0.168425
H2    H     H_    0.420739 0.689180 0.707986 0.144224
H3    H     H_    0.610456 0.721465 0.736962 0.139027
H4    H     H_    0.670423 0.432290 0.440296 0.136856
H5    H     H_    0.177455 0.315209 0.320551 0.128736
H6    H     H_    0.523251 0.344300 0.356800 0.141073
H7    H     H_    0.269761 0.606802 0.607088 0.202465
H8    H     H_    0.131360 0.527338 0.966444 0.115155
H9    H     H_    0.916812 0.103234 0.382161 0.156726
H10   H     H_    0.555990 0.773253 0.313477 0.180933
H11   H     H_    0.618669 0.199718 0.539741 0.226898
H12   H     H_    0.091742 0.887698 0.640377 0.173195
H13   H     H_    0.232135 0.070736 0.711156 0.161512
N1    N     N_R   0.748810 0.563010 0.557590 -0.186467
N2    N     N_R   0.250540 0.437620 0.443020 -0.221901
O1    O     O_R   0.025040 0.682470 0.528790 -0.590829
O2    O     O_R   0.194310 0.640150 0.490130 -0.598923
O3    O     O_R   0.903380 0.524130 0.659910 -0.581805
O4    O     O_R   0.072660 0.481800 0.621240 -0.583079
O5    O     O_R   0.805690 0.359850 0.509870 -0.585066
O6    O     O_R   0.974960 0.317530 0.471210 -0.582952
O7    O     O_R   0.927340 0.518200 0.378760 -0.577426
O8    O     O_R   0.096620 0.475870 0.340090 -0.588600
O9    O     O_3   0.830611 0.462373 0.052247 -0.605310
C37   C     C_3   0.752974 0.506971 0.035783 0.046136
H14   H     H_    0.659493 0.460740 0.077423 0.167346
H15   H     H_    0.744358 0.489173 0.954374 0.140517
C38   C     C_3   0.793536 0.636246 0.079409 -0.350798
H16   H     H_    0.801289 0.650393 0.160537 0.236727
H17   H     H_    0.884763 0.685299 0.036231 0.202852
C39   C     C_3   0.702265 0.682211 0.073364 -0.891169
H18   H     H_    0.692084 0.668088 0.992966 0.252199
H19   H     H_    0.735684 0.776272 0.103309 0.282149
H20   H     H_    0.611550 0.638127 0.119962 0.250082
C40   C     C_3   0.839228 0.752230 0.678393 -0.382203
C41   C     C_3   0.881904 0.735386 0.765497 -0.287816
C42   C     C_3   0.903741 0.839012 0.851921 -0.916232
H21   H     H_    0.972716 0.918880 0.822386 0.255120
H22   H     H_    0.816799 0.850295 0.887906 0.263191
H23   H     H_    0.938449 0.824651 0.910937 0.252364
H24   H     H_    0.812818 0.657511 0.798289 0.227180
H25   H     H_    0.970082 0.725451 0.735606 0.226652
H26   H     H_    0.911781 0.783681 0.614114 0.188396
H27   H     H_    0.811883 0.826969 0.706436 0.167393
C43   C     C_3   0.359994 0.227122 0.235971 -0.413817
C44   C     C_3   0.253148 0.174358 0.177666 -0.361894
C45   C     C_3   0.269579 0.082277 0.087452 -0.844988
H28   H     H_    0.354852 0.120733 0.032618 0.250098
H29   H     H_    0.273872 0.011603 0.114325 0.252852
H30   H     H_    0.190680 0.045203 0.047437 0.242289
H31   H     H_    0.165636 0.133625 0.229439 0.208914
H32   H     H_    0.247991 0.243037 0.148323 0.218579
H33   H     H_    0.446640 0.265514 0.182161 0.205841
H34   H     H_    0.365446 0.156730 0.262519 0.210200
O10   O     O_3   0.779784 0.887035 0.315796 -0.629169
C46   C     C_3   0.837055 0.849010 0.366285 0.043614
H35   H     H_    0.787319 0.753882 0.361483 0.164764
H36   H     H_    0.834982 0.886185 0.449248 0.124828
C47   C     C_3   0.969979 0.876309 0.311924 -0.346915
H37   H     H_    0.972459 0.836824 0.229996 0.225023
H38   H     H_    0.020736 0.971190 0.316921 0.211637
C48   C     C_3   0.033532 0.830589 0.359613 -0.892028
H39   H     H_    0.034231 0.870807 0.441105 0.258161
H40   H     H_    0.129649 0.851791 0.318658 0.247607
H41   H     H_    0.985535 0.735435 0.353921 0.272987
O11   O     O_3   0.466985 0.146740 0.672889 -0.631241
C49   C     C_3   0.501915 0.110523 0.742596 0.037902
H42   H     H_    0.543219 0.046521 0.703047 0.144193
H43   H     H_    0.420839 0.071218 0.801068 0.143004
C50   C     C_3   0.597324 0.215760 0.795805 -0.316802
H44   H     H_    0.676486 0.258114 0.737551 0.227981
H45   H     H_    0.556392 0.278847 0.838819 0.219206
C51   C     C_3   0.643103 0.182010 0.869313 -0.926549
H46   H     H_    0.566019 0.141082 0.929333 0.251965
H47   H     H_    0.711962 0.260296 0.906496 0.278828
H48   H     H_    0.686918 0.120917 0.827420 0.255610

loop_
_geom_bond_atom_site_label_1
_geom_bond_atom_site_label_2
_ccdc_geom_bond_type
C2    C35   T    
C23   O5    A    
C38   H17   S    
C37   H15   S    
O10   C46   S    
C29   H4    S    
C40   C41   S    
C31   O8    A    
C19   C20   A    
C18   C26   A    
C9    C14   A    
C2    C12   S    
C47   H37   S    
C7    C8    A    
C45   H28   S    
C23   O6    A    
C43   H34   S    
C49   H43   S    
C26   C27   A    
Cu1   Cu2   S    
C32   C36   T    
C10   C15   A    
C5    C6    A    
C38   C39   S    
C5    C17   A    
C21   H6    S    
C34   O9    S    
C33   C36   S    
C50   H44   S    
C34   C35   S    
C39   H19   S    
C14   H1    S    
Cu1   O3    S    
Cu2   O2    S    
C51   H46   S    
C8    C9    A    
C22   C25   A    
C18   C30   A    
C6    H13   S    
Cu1   O5    S    
Cu2   O8    S    
C19   N2    A    
C38   H16   S    
C37   C38   S    
C41   H25   S    
C21   C22   A    
C33   H8    S    
C46   H35   S    
C44   H32   S    
C16   H9    S    
C40   H26   S    
O11   C49   S    
C47   H38   S    
C19   H5    S    
C45   H29   S    
C25   C29   A    
C49   C50   S    
C28   H7    S    
C41   C42   S    
Cu1   N1    S    
C44   C45   S    
C3    O10   S    
C18   H3    S    
C30   C40   S    
C46   C47   S    
C24   N2    A    
C48   H41   S    
Cu2   O6    S    
C31   O7    A    
C4    C16   A    
C39   H20   S    
C42   H21   S    
O9    C37   S    
Cu2   O4    S    
C43   C44   S    
C27   H2    S    
C48   H40   S    
C33   C34   D    
C51   H47   S    
C46   H36   S    
C42   H22   S    
C12   O3    A    
C1    O1    A    
C12   O4    A    
C9    C17   A    
C7    O11   S    
C22   C24   A    
C5    H12   S    
C44   H31   S    
Cu1   O1    S    
C40   H27   S    
C47   C48   S    
C45   H30   S    
C4    C23   S    
C30   N1    A    
C31   C32   S    
C24   C28   A    
C13   H10   S    
C6    C7    A    
C43   H33   S    
C49   H42   S    
C1    C17   S    
C50   C51   S    
C41   H24   S    
C4    C15   A    
C25   C26   A    
C11   C13   A    
Cu2   N2    S    
C48   H39   S    
C50   H45   S    
C51   H48   S    
C15   H11   S    
C1    O2    A    
C39   H18   S    
C42   H23   S    
Cu1   O7    S    
C3    C11   A    
C10   C11   A    
C37   H14   S    
C20   C21   A    
C8    C10   A    
C20   C43   S    
C27   C28   A    
C13   C14   A    
C3    C16   A    
C29   N1    A    
