data_mof_unit_38757.cif
_audit_creation_date              2012-12-10T18:35:18-0500
_audit_creation_method            fapswitch 2.2
_symmetry_space_group_name_H-M    P1
_symmetry_Int_Tables_number       1
_space_group_crystal_system       triclinic
_cell_length_a                    15.007086
_cell_length_b                    15.400009
_cell_length_c                    16.928516
_cell_angle_alpha                 91.679865
_cell_angle_beta                  100.632767
_cell_angle_gamma                 97.959195
_cell_volume                      3802.06706244

loop_
_atom_site_label
_atom_site_type_symbol
_atom_type_description
_atom_site_fract_x
_atom_site_fract_y
_atom_site_fract_z
_atom_type_partial_charge
C1    C     C_R   0.558135 0.662941 0.511414 0.897771
C2    C     C_R   0.442131 0.337074 0.485314 0.893908
C3    C     C_R   0.595878 0.756748 0.511118 -0.143017
C4    C     C_R   0.407666 0.243862 0.460051 -0.143664
C5    C     C_R   0.716887 0.883389 0.539475 0.465312
C6    C     C_R   0.297480 0.123998 0.385271 0.470969
C7    C     C_R   0.688539 0.792549 0.543705 0.043960
C8    C     C_R   0.317152 0.211697 0.418176 0.041391
C9    C     C_R   0.535561 0.811127 0.474152 -0.311693
C10   C     C_R   0.473283 0.187466 0.470969 -0.305184
C11   C     C_R   0.563069 0.900354 0.467425 0.030210
C12   C     C_R   0.455578 0.102014 0.437223 0.026415
C13   C     C_R   0.654867 0.936635 0.500533 0.007739
C14   C     C_R   0.365608 0.068495 0.397582 0.009251
C15   C     C_R   0.499141 0.955800 0.434665 0.121083
C16   C     C_R   0.524729 0.047428 0.447711 0.115822
C17   C     C_R   0.618455 0.081513 0.471979 -0.257126
C18   C     C_R   0.409794 0.923469 0.392080 -0.244454
C19   C     C_R   0.682702 0.026585 0.496506 -0.200270
C20   C     C_R   0.344864 0.979439 0.372389 -0.196768
C21   C     C_R   0.165507 0.627879 0.374184 -0.283477
C22   C     C_R   0.834111 0.370759 0.624745 -0.290325
C23   C     C_R   0.508801 0.493044 0.349602 0.877763
C24   C     C_R   0.491022 0.506313 0.650604 0.877749
C25   C     C_R   0.252732 0.606200 0.394314 0.002756
C26   C     C_R   0.747108 0.393150 0.605180 0.000367
C27   C     C_R   0.208104 0.514528 0.494735 0.001954
C28   C     C_R   0.791903 0.485290 0.505153 -0.006348
C29   C     C_R   0.115964 0.527074 0.472211 0.014325
C30   C     C_R   0.883926 0.472065 0.527230 0.016390
C31   C     C_R   0.097434 0.589813 0.414268 0.110528
C32   C     C_R   0.902235 0.408815 0.584712 0.113198
C33   C     C_R   0.043828 0.484122 0.507794 -0.087998
C34   C     C_R   0.956107 0.514885 0.491611 -0.088719
C35   C     C_R   0.944040 0.587343 0.441043 0.472038
C36   C     C_R   0.055943 0.411682 0.558406 0.472015
C37   C     C_R   0.013845 0.619878 0.400726 -0.305784
C38   C     C_R   0.985758 0.378554 0.598083 -0.312313
C39   C     C_R   0.508461 0.476494 0.264506 -0.085025
C40   C     C_R   0.490309 0.519880 0.736164 -0.092196
C41   C     C_R   0.429866 0.433033 0.211393 0.188225
C42   C     C_R   0.571150 0.551049 0.792957 0.178390
C43   C     C_R   0.433494 0.421054 0.130342 -0.231607
C44   C     C_R   0.565078 0.561960 0.873538 -0.230273
C45   C     C_R   0.513674 0.450549 0.102701 0.130998
C46   C     C_R   0.481255 0.541056 0.897904 0.132563
C47   C     C_R   0.594257 0.486709 0.156182 0.226254
C48   C     C_R   0.400011 0.515233 0.841651 0.223092
C49   C     C_R   0.590823 0.498894 0.237198 -0.268398
C50   C     C_R   0.405309 0.506012 0.760745 -0.263631
C51   C     C_2   0.507044 0.457543 0.016560 0.155303
C52   C     C_2   0.483302 0.532066 0.983358 0.156595
H1    H     H_    0.643694 0.150726 0.471949 0.156900
H2    H     H_    0.388615 0.855406 0.371807 0.141121
H3    H     H_    0.006722 0.675014 0.363216 0.141482
H4    H     H_    0.992869 0.323191 0.635336 0.138717
H5    H     H_    0.767264 0.520961 0.454380 0.180284
H6    H     H_    0.232839 0.479349 0.545788 0.181162
H7    H     H_    0.693577 0.365112 0.635759 0.133625
H8    H     H_    0.306270 0.634231 0.363732 0.131460
H9    H     H_    0.151698 0.674853 0.328665 0.141072
H10   H     H_    0.847744 0.323352 0.669890 0.140423
H11   H     H_    0.343110 0.485625 0.716949 0.168563
H12   H     H_    0.651943 0.527834 0.278904 0.164465
H13   H     H_    0.626598 0.582113 0.918576 0.148230
H14   H     H_    0.372696 0.392262 0.087679 0.149025
H15   H     H_    0.753548 0.055838 0.516466 0.192477
H16   H     H_    0.277041 0.951610 0.340554 0.186123
H17   H     H_    0.538838 0.210620 0.508892 0.180092
H18   H     H_    0.465202 0.782872 0.452865 0.180760
N1    N     N_R   0.271750 0.551950 0.454510 -0.116287
N2    N     N_R   0.728250 0.448050 0.545490 -0.114786
O1    O     O_R   0.615140 0.606020 0.522930 -0.615834
O2    O     O_R   0.384860 0.393980 0.477070 -0.613558
O3    O     O_R   0.468580 0.639400 0.493740 -0.614100
O4    O     O_R   0.531420 0.360600 0.506260 -0.616064
O5    O     O_R   0.581950 0.481350 0.400520 -0.630173
O6    O     O_R   0.418050 0.518650 0.599480 -0.630174
O7    O     O_R   0.435380 0.514730 0.371330 -0.615612
O8    O     O_R   0.564620 0.485270 0.628670 -0.612186
Zn1   Zn    Zn3+2 0.597860 0.477710 0.519490 0.928427
Zn2   Zn    Zn3+2 0.402140 0.522290 0.480510 0.929416
C53   C     C_3   0.343678 0.395997 0.239703 -0.900838
H19   H     H_    0.293471 0.356321 0.191010 0.222829
H20   H     H_    0.361478 0.352185 0.289210 0.234331
H21   H     H_    0.309858 0.449704 0.260505 0.260478
C54   C     C_3   0.663598 0.574169 0.770005 -0.870606
H22   H     H_    0.715995 0.606264 0.821399 0.222519
H23   H     H_    0.688069 0.513958 0.749965 0.254834
H24   H     H_    0.658432 0.620779 0.721337 0.236149
O9    O     O_3   0.872389 0.635787 0.442486 -0.627863
C55   C     C_3   0.828237 0.651298 0.363556 0.059871
H25   H     H_    0.812860 0.589898 0.324023 0.122593
H26   H     H_    0.870187 0.702798 0.336237 0.161133
C56   C     C_3   0.738860 0.686155 0.366781 -0.844475
H27   H     H_    0.753249 0.750421 0.401483 0.276832
H28   H     H_    0.703054 0.695638 0.304810 0.210470
H29   H     H_    0.693341 0.639317 0.395321 0.261803
O10   O     O_3   0.128596 0.364184 0.558236 -0.629816
C57   C     C_3   0.172073 0.349975 0.637769 0.062857
H30   H     H_    0.130627 0.297729 0.664738 0.158326
H31   H     H_    0.185057 0.411545 0.676901 0.124195
C58   C     C_3   0.263286 0.317719 0.636590 -0.866211
H32   H     H_    0.307799 0.364710 0.607271 0.265050
H33   H     H_    0.298991 0.311083 0.699220 0.216323
H34   H     H_    0.251688 0.252479 0.603695 0.264697
C59   C     C_3   0.460685 0.607586 0.031455 -0.941998
H35   H     H_    0.443620 0.661869 0.992240 0.245219
H36   H     H_    0.400593 0.585224 0.059199 0.249723
H37   H     H_    0.520215 0.633847 0.079310 0.248480
C60   C     C_3   0.526670 0.380757 0.968166 -0.944867
H38   H     H_    0.541661 0.325796 0.007196 0.245463
H39   H     H_    0.466288 0.356445 0.920417 0.247001
H40   H     H_    0.587195 0.400775 0.940317 0.250377
C61   C     C_3   0.682175 0.515514 0.127024 -0.933374
H41   H     H_    0.702325 0.458868 0.096033 0.250828
H42   H     H_    0.672666 0.568303 0.084339 0.239606
H43   H     H_    0.739117 0.541151 0.177477 0.229037
C62   C     C_3   0.309011 0.493903 0.867591 -0.931162
H44   H     H_    0.310956 0.438464 0.908057 0.240695
H45   H     H_    0.294077 0.552225 0.900101 0.251962
H46   H     H_    0.252123 0.474897 0.815415 0.227657
C63   C     C_3   0.241143 0.268086 0.408834 -0.781222
H47   H     H_    0.255030 0.322803 0.369824 0.233168
H48   H     H_    0.173074 0.231054 0.381855 0.267554
H49   H     H_    0.234688 0.295030 0.468368 0.284673
C64   C     C_3   0.756915 0.736393 0.584478 -0.778373
H50   H     H_    0.731477 0.704727 0.635501 0.211816
H51   H     H_    0.768258 0.685766 0.541163 0.292826
H52   H     H_    0.825387 0.774072 0.608839 0.264636
O11   O     O_3   0.806125 0.920202 0.572239 -0.608232
C65   C     C_3   0.809778 0.950026 0.652738 0.065003
H53   H     H_    0.789728 0.894676 0.689818 0.146937
H54   H     H_    0.763921 0.000526 0.655971 0.137017
C66   C     C_3   0.907320 0.991411 0.688941 -0.810388
H55   H     H_    0.928693 0.048021 0.654052 0.256476
H56   H     H_    0.911186 0.014938 0.752292 0.200229
H57   H     H_    0.954775 0.942259 0.687759 0.261990
O12   O     O_3   0.210307 0.091232 0.343809 -0.612160
C67   C     C_3   0.206438 0.106063 0.261349 0.061969
H58   H     H_    0.255704 0.070507 0.236255 0.137966
H59   H     H_    0.221846 0.177452 0.251754 0.149683
C68   C     C_3   0.110413 0.072343 0.215157 -0.810144
H60   H     H_    0.059729 0.107526 0.238095 0.260485
H61   H     H_    0.106502 0.083591 0.150191 0.202005
H62   H     H_    0.093443 0.000868 0.222445 0.254840

loop_
_geom_bond_atom_site_label_1
_geom_bond_atom_site_label_2
_ccdc_geom_bond_type
C15   C18   A    
C54   H22   S    
C29   C33   A    
C27   C29   A    
C26   N2    A    
C36   O10   S    
C56   H27   S    
C67   C68   S    
C4    C8    A    
C56   H29   S    
C27   N1    A    
C66   H55   S    
C39   C41   A    
C28   H5    S    
C47   C61   S    
C21   C31   A    
C22   C32   A    
C59   H37   S    
C35   C37   A    
C67   H59   S    
C3    C7    A    
C43   H14   S    
C23   C39   S    
C63   H48   S    
C6    C14   A    
C45   C51   S    
C15   C16   A    
C41   C53   S    
C46   C52   S    
C33   C36   A    
C68   H61   S    
C34   C35   A    
C6    O12   S    
C57   H30   S    
C24   C40   S    
C11   C15   A    
C24   O8    A    
C12   C16   A    
C52   C59   S    
C16   C17   A    
C61   H42   S    
C59   H35   S    
C19   H15   S    
C25   N1    A    
C25   H8    S    
C32   C38   A    
C60   H40   S    
C26   H7    S    
C21   H9    S    
N2    Zn1   S    
C2    O2    A    
N1    Zn2   S    
C62   H45   S    
C40   C42   A    
C49   H12   S    
C50   H11   S    
C41   C43   A    
C44   H13   S    
C28   N2    A    
C42   C44   A    
O2    Zn2   S    
O1    Zn1   S    
C44   C46   A    
C48   C62   S    
C45   C47   A    
C46   C48   A    
C30   C34   A    
C51   C52   D    
C1    O3    A    
C14   C20   A    
C63   H47   S    
C67   H58   S    
C47   C49   A    
C68   H62   S    
O9    C55   S    
C5    C7    A    
C13   C19   A    
C65   H53   S    
C63   H49   S    
C6    C8    A    
C55   C56   S    
C31   C37   A    
C1    C3    S    
C2    C4    S    
C64   H51   S    
C3    C9    A    
C22   H10   S    
C43   C45   A    
O6    Zn2   S    
C53   H19   S    
O5    Zn1   S    
C62   H44   S    
C61   H43   S    
C55   H26   S    
C33   C34   A    
C60   H39   S    
C23   O5    A    
C9    C11   A    
C66   H57   S    
C10   C12   A    
C24   O6    A    
C39   C49   A    
C12   C14   A    
C54   H23   S    
C58   H33   S    
C4    C10   A    
O11   C65   S    
C17   H1    S    
C2    O4    A    
C57   H31   S    
C62   H46   S    
C66   H56   S    
C21   C25   A    
C51   C60   S    
C60   H38   S    
C53   H20   S    
C5    C13   A    
C20   H16   S    
O8    Zn1   S    
C27   H6    S    
O4    Zn1   S    
O7    Zn2   S    
O12   C67   S    
C56   H28   S    
C8    C63   S    
C23   O7    A    
O10   C57   S    
C1    O1    A    
C36   C38   A    
C68   H60   S    
C64   H52   S    
C28   C30   A    
C29   C31   A    
C30   C32   A    
C11   C13   A    
C61   H41   S    
C59   H36   S    
C65   C66   S    
C40   C50   A    
C48   C50   A    
C55   H25   S    
C17   C19   A    
C58   H34   S    
C18   C20   A    
C57   C58   S    
C18   H2    S    
C9    H18   S    
C37   H3    S    
C10   H17   S    
C5    O11   S    
C53   H21   S    
C38   H4    S    
C65   H54   S    
C22   C26   A    
C54   H24   S    
C58   H32   S    
O3    Zn2   S    
C42   C54   S    
C7    C64   S    
C64   H50   S    
C35   O9    S    
