data_mof_unit_6377.cif
_audit_creation_date              2012-12-11T15:14:41-0500
_audit_creation_method            fapswitch 2.2
_symmetry_space_group_name_H-M    P1
_symmetry_Int_Tables_number       1
_space_group_crystal_system       triclinic
_cell_length_a                    22.191767
_cell_length_b                    7.240102
_cell_length_c                    19.239107
_cell_angle_alpha                 89.999723
_cell_angle_beta                  99.414975
_cell_angle_gamma                 90.0
_cell_volume                      3049.52030085

loop_
_atom_site_label
_atom_site_type_symbol
_atom_type_description
_atom_site_fract_x
_atom_site_fract_y
_atom_site_fract_z
_atom_type_partial_charge
O1    O     O_R   0.448470 0.506130 0.415700 -0.533250
O2    O     O_R   0.551530 0.006130 0.584300 -0.533250
O3    O     O_R   0.436320 0.174490 0.555800 -0.527329
O4    O     O_R   0.563680 0.674490 0.444200 -0.527329
C1    C     C_R   0.421137 0.344057 0.575080 0.696266
C2    C     C_R   0.578863 0.844057 0.424920 0.696266
O5    O     O_R   0.441350 0.176340 0.414480 -0.533783
O6    O     O_R   0.558650 0.676340 0.585520 -0.533783
O7    O     O_R   0.556600 0.007100 0.441970 -0.530647
O8    O     O_R   0.443400 0.507100 0.558030 -0.530647
C3    C     C_R   0.427103 0.344426 0.388853 0.695796
C4    C     C_R   0.572897 0.844425 0.611147 0.695796
O9    O     O_3   0.537810 0.339550 0.509190 -0.370623
O10   O     O_3   0.462190 0.839550 0.490810 -0.370622
V1    V     V_3+5 0.492990 0.064280 0.498300 1.494968
V2    V     V_3+5 0.507010 0.564280 0.501700 1.494967
C5    C     C_R   0.860957 0.103565 0.705140 0.208630
C6    C     C_R   0.139042 0.603561 0.294860 0.208631
H1    H     H_    0.946657 0.129547 0.774369 0.142033
H2    H     H_    0.053342 0.629541 0.225631 0.142033
C7    C     C_R   0.885851 0.953233 0.819571 -0.087412
C8    C     C_R   0.114148 0.453231 0.180429 -0.087412
C9    C     C_R   0.594143 0.786091 0.738824 -0.222450
C10   C     C_R   0.405857 0.286096 0.261175 -0.222450
C11   C     C_R   0.629829 0.798385 0.805249 0.221333
C12   C     C_R   0.370171 0.298391 0.194751 0.221334
C13   C     C_R   0.689984 0.867372 0.813040 0.120511
C14   C     C_R   0.310016 0.367375 0.186960 0.120510
C15   C     C_R   0.717047 0.901899 0.751755 0.009316
C16   C     C_R   0.282952 0.401900 0.248245 0.009317
C17   C     C_R   0.677596 0.907635 0.685189 0.008908
C18   C     C_R   0.322404 0.407635 0.314811 0.008908
C19   C     C_R   0.780881 0.939912 0.754179 0.050140
C20   C     C_R   0.219118 0.439911 0.245821 0.050139
C21   C     C_R   0.800963 0.027636 0.695333 0.015162
C22   C     C_R   0.199036 0.527633 0.304667 0.015162
C23   C     C_R   0.760402 0.032262 0.630020 0.189199
C24   C     C_R   0.239597 0.532260 0.369979 0.189199
C25   C     C_R   0.700662 0.968878 0.625779 -0.186476
C26   C     C_R   0.299337 0.468876 0.374221 -0.186476
C27   C     C_R   0.825774 0.887041 0.812306 -0.158671
C28   C     C_R   0.174226 0.387041 0.187694 -0.158671
C29   C     C_R   0.902007 0.064770 0.766455 -0.166936
C30   C     C_R   0.097993 0.564766 0.233545 -0.166936
C31   C     C_R   0.615788 0.849388 0.679072 -0.105806
C32   C     C_R   0.384212 0.349390 0.320928 -0.105806
H3    H     H_    0.814352 0.796803 0.852856 0.150571
H4    H     H_    0.185648 0.296805 0.147144 0.150571
H5    H     H_    0.547718 0.735242 0.734220 0.151085
H6    H     H_    0.452283 0.235249 0.265780 0.151085
H7    H     H_    0.671868 0.968377 0.574605 0.129537
H8    H     H_    0.328132 0.468375 0.425394 0.129537
C33   C     C_3   0.776460 0.810101 0.309492 0.164068
C34   C     C_3   0.223540 0.310102 0.690509 0.164068
C35   C     C_3   0.796189 0.995025 0.281150 0.333583
C36   C     C_3   0.203811 0.495026 0.718850 0.333582
C37   C     C_1   0.874994 0.941557 0.120753 -0.136509
C38   C     C_1   0.125006 0.441558 0.879247 -0.136509
C39   C     C_1   0.625057 0.851589 0.379545 -0.109492
C40   C     C_1   0.374943 0.351588 0.620455 -0.109491
C41   C     C_3   0.770411 0.728136 0.234057 -0.180381
C42   C     C_3   0.229589 0.228136 0.765944 -0.180382
C43   C     C_3   0.790699 0.914964 0.206758 0.044279
C44   C     C_3   0.209301 0.414964 0.793242 0.044279
C45   C     C_3   0.702675 0.793222 0.218355 -0.139132
C46   C     C_3   0.297325 0.293221 0.781645 -0.139132
C47   C     C_3   0.709362 0.875150 0.293402 -0.000147
C48   C     C_3   0.290638 0.375149 0.706598 -0.000147
C49   C     C_3   0.723483 0.980339 0.190469 -0.182881
C50   C     C_3   0.276517 0.480338 0.809531 -0.182881
C51   C     C_3   0.729552 0.061654 0.265972 0.116473
C52   C     C_3   0.270448 0.561654 0.734028 0.116474
C53   C     C_1   0.836839 0.931715 0.159315 0.075070
C54   C     C_1   0.163161 0.431716 0.840685 0.075070
C55   C     C_1   0.663270 0.859596 0.341015 0.103448
C56   C     C_1   0.336730 0.359595 0.658985 0.103448
H9    H     H_    0.701797 0.050683 0.141440 0.183587
H10   H     H_    0.298203 0.550681 0.858559 0.183587
H11   H     H_    0.663664 0.708754 0.192358 0.185685
H12   H     H_    0.336336 0.208752 0.807643 0.185685
H13   H     H_    0.787332 0.590618 0.220485 0.181496
H14   H     H_    0.212667 0.090618 0.779516 0.181495
O11   O     O_R   0.056650 0.288730 0.942060 -0.535519
O12   O     O_R   0.943350 0.788730 0.057940 -0.535519
O13   O     O_R   0.058660 0.616870 0.085540 -0.534663
O14   O     O_R   0.941340 0.116870 0.914460 -0.534663
C57   C     C_R   0.072483 0.449654 0.111701 0.709769
C58   C     C_R   0.927516 0.949655 0.888299 0.709769
O15   O     O_R   0.063700 0.618520 0.944220 -0.529885
O16   O     O_R   0.936300 0.118520 0.055780 -0.529885
O17   O     O_R   0.948460 0.787610 0.915680 -0.532507
O18   O     O_R   0.051540 0.287610 0.084320 -0.532507
C59   C     C_R   0.078929 0.450200 0.924765 0.720366
C60   C     C_R   0.921071 0.950199 0.075235 0.720365
O19   O     O_3   0.962230 0.453430 0.990860 -0.373825
O20   O     O_3   0.037770 0.953430 0.009140 -0.373824
V3    V     V_3+5 0.007010 0.728750 0.001700 1.484482
V4    V     V_3+5 0.992990 0.228750 0.998300 1.484482
I1    I     I_    0.821050 0.671512 0.401812 -0.177862
I2    I     I_    0.178950 0.171513 0.598189 -0.177862
I3    I     I_    0.693976 0.320507 0.293200 -0.385508
I4    I     I_    0.306024 0.820506 0.706799 -0.385506
I5    I     I_    0.783745 0.085196 0.528685 -0.259993
I6    I     I_    0.216255 0.585193 0.471314 -0.259993
I7    I     I_    0.891539 0.323851 0.646115 -0.224338
I8    I     I_    0.108460 0.823845 0.353884 -0.224339
I9    I     I_    0.727492 0.974991 0.915262 -0.363130
I10   I     I_    0.272508 0.474996 0.084738 -0.363130
I11   I     I_    0.587487 0.715433 0.891694 -0.246226
I12   I     I_    0.412514 0.215443 0.108305 -0.246226
O21   O     O_3   0.845477 0.101888 0.313204 -0.598539
H15   H     H_    0.835665 0.135980 0.359987 0.348158
O22   O     O_3   0.154523 0.601890 0.686795 -0.598539
H16   H     H_    0.164335 0.635980 0.640012 0.348159

loop_
_geom_bond_atom_site_label_1
_geom_bond_atom_site_label_2
_ccdc_geom_bond_type
C46   C48   S    
C9    C31   A    
C50   H10   S    
C49   H9    S    
O21   H15   S    
O1    C3    A    
O2    C4    A    
C2    O7    A    
C5    C29   A    
O19   V4    S    
O18   V4    S    
C46   H12   S    
C46   C50   S    
C33   I1    S    
O5    C3    A    
C45   H11   S    
O12   V3    S    
C35   C43   S    
C21   C23   A    
C38   C59   S    
C10   C12   A    
C6    C30   A    
O14   C58   A    
C9    H5    S    
C13   C15   A    
O11   C59   A    
C15   C19   A    
C41   C43   S    
C37   C53   T    
C49   C51   S    
C24   I6    S    
C25   H7    S    
C7    C29   A    
C33   C41   S    
C8    C30   A    
C43   C49   S    
C36   C52   S    
O11   V4    S    
C20   C28   A    
C42   C44   S    
C36   O22   S    
C36   C44   S    
C44   C50   S    
O6    C4    A    
C16   C18   A    
C12   I12   S    
C20   C22   A    
C11   I11   S    
O5    V1    S    
C42   H14   S    
C7    C58   S    
O6    V2    S    
C57   O18   A    
C34   I2    S    
O14   V4    S    
H2    C30   S    
H1    C29   S    
O16   C60   A    
C33   C35   S    
C10   H6    S    
C34   C36   S    
C42   C46   S    
O13   C57   A    
O4    C2    A    
C23   I5    S    
C16   C20   A    
O12   C60   A    
C34   C42   S    
C45   C47   S    
C26   H8    S    
C40   C56   T    
O15   V3    S    
O4    V2    S    
C6    I8    S    
C51   I3    S    
C5    I7    S    
C58   O17   A    
C13   I9    S    
C48   C52   S    
O20   V3    S    
C27   H3    S    
O1    V2    S    
C28   H4    S    
C8    C57   S    
O17   V3    S    
O2    V1    S    
C7    C27   A    
C37   C60   S    
C47   C55   S    
C39   C55   T    
O3    V1    S    
C38   C54   T    
O22   H16   S    
C1    C40   S    
C35   O21   S    
C18   C32   A    
C2    C39   S    
C4    C31   S    
O3    C1    A    
C11   C13   A    
C43   C53   S    
C12   C14   A    
C19   C27   A    
C22   C24   A    
O7    V1    S    
C10   C32   A    
C1    O8    A    
C15   C17   A    
C41   H13   S    
C24   C26   A    
C48   C56   S    
C8    C28   A    
O8    V2    S    
C52   I4    S    
C14   I10   S    
C45   C49   S    
C14   C16   A    
C19   C21   A    
C17   C25   A    
C47   C51   S    
C18   C26   A    
O15   C59   A    
C33   C47   S    
O13   V3    S    
C41   C45   S    
C9    C11   A    
C34   C48   S    
C23   C25   A    
C17   C31   A    
O9    V2    S    
C44   C54   S    
O10   V1    S    
C3    C32   S    
C50   C52   S    
C5    C21   A    
C6    C22   A    
O16   V4    S    
C35   C51   S    
