data_mof_unit_7212.cif
_audit_creation_date              2012-12-10T17:33:50-0500
_audit_creation_method            fapswitch 2.2
_symmetry_space_group_name_H-M    P1
_symmetry_Int_Tables_number       1
_space_group_crystal_system       triclinic
_cell_length_a                    10.816157
_cell_length_b                    12.056245
_cell_length_c                    12.842721
_cell_angle_alpha                 93.025071
_cell_angle_beta                  93.366195
_cell_angle_gamma                 84.022983
_cell_volume                      1660.90448123

loop_
_atom_site_label
_atom_site_type_symbol
_atom_type_description
_atom_site_fract_x
_atom_site_fract_y
_atom_site_fract_z
_atom_type_partial_charge
C1    C     C_R   0.482530 0.522166 0.698868 0.944611
C2    C     C_R   0.465854 0.446356 0.970994 0.023599
C3    C     C_R   0.450734 0.553279 0.023205 0.106619
C4    C     C_R   0.741941 0.497130 0.490511 0.874478
C5    C     C_R   0.467694 0.560909 0.130790 -0.164027
C6    C     C_R   0.512597 0.360673 0.137040 -0.127552
C7    C     C_R   0.502974 0.349732 0.028587 -0.006548
C8    C     C_R   0.393046 0.955024 0.386126 -0.133979
C9    C     C_R   0.406383 0.838523 0.399513 -0.076478
C10   C     C_R   0.540753 0.858018 0.550143 0.335897
C11   C     C_R   0.530431 0.975293 0.540461 0.040493
C12   C     C_3   0.121036 0.508692 0.489134 -0.192597
C13   C     C_R   0.458629 0.025766 0.457075 0.041052
C14   C     C_R   0.458960 0.143921 0.447683 0.001418
C15   C     C_R   0.588968 0.157113 0.602486 0.134413
C16   C     C_R   0.501987 0.478374 0.299365 0.899504
C17   C     C_R   0.591906 0.042764 0.612897 -0.284770
C18   C     C_R   0.257692 0.502477 0.496356 0.882210
C19   C     C_3   0.944355 0.449407 0.587549 -0.005003
C20   C     C_3   0.080191 0.475786 0.597419 -0.157874
C21   C     C_3   0.934387 0.418621 0.386794 -0.041691
C22   C     C_3   0.913166 0.621015 0.473364 -0.275855
C23   C     C_3   0.080635 0.415837 0.404088 -0.020783
C24   C     C_3   0.879325 0.494469 0.481495 -0.202976
C25   C     C_2   0.083296 0.653477 0.349250 0.463490
C26   C     C_2   0.375105 0.758593 0.022238 0.413552
C27   C     C_2   0.548369 0.240457 0.978815 0.497394
C28   C     C_2   0.388954 0.744845 0.796509 0.494116
C29   C     C_2   0.659416 0.214984 0.687480 0.481468
C30   C     C_2   0.308421 0.995980 0.298207 0.505067
C31   C     C_2   0.894112 0.300746 0.377916 0.533098
C32   C     C_2   0.834420 0.698613 0.398596 0.565756
C33   C     C_2   0.092786 0.727006 0.531819 0.571311
C34   C     C_3   0.054675 0.627909 0.460719 -0.138946
C35   C     C_R   0.494736 0.465729 0.187251 -0.091066
C36   C     C_R   0.449711 0.536787 0.807848 -0.192473
C37   C     C_R   0.418938 0.651039 0.967328 -0.010135
C38   C     C_R   0.424969 0.643972 0.858185 -0.093451
C39   C     C_R   0.443331 0.440391 0.863192 0.080274
H1    H     H_    0.460230 0.641881 0.171635 0.179711
H2    H     H_    0.047048 0.606430 0.283057 0.121439
H3    H     H_    0.418748 0.833813 0.011657 0.144772
H4    H     H_    0.580734 0.236298 0.900692 0.057405
H5    H     H_    0.331306 0.738525 0.724968 0.087791
H6    H     H_    0.686802 0.172741 0.758973 0.047087
H7    H     H_    0.292648 0.940744 0.230327 0.123306
H8    H     H_    0.796604 0.287830 0.378447 0.094286
H9    H     H_    0.830196 0.682538 0.315324 0.070972
H10   H     H_    0.173570 0.720398 0.585286 0.079322
H11   H     H_    0.539417 0.287885 0.182436 0.197719
H12   H     H_    0.409404 0.186037 0.383470 0.190529
H13   H     H_    0.893282 0.491649 0.653692 0.192494
H14   H     H_    0.643432 0.007712 0.679879 0.179019
H15   H     H_    0.360441 0.783846 0.344078 0.200005
H16   H     H_    0.141462 0.400227 0.619765 0.217066
H17   H     H_    0.115069 0.335649 0.439890 0.216195
H18   H     H_    0.892041 0.658825 0.552358 0.222678
I1    I     I_    0.954545 0.271797 0.618638 -0.178255
I2    I     I_    0.855163 0.468538 0.234561 -0.374186
I3    I     I_    0.184782 0.389407 0.263179 -0.185158
I4    I     I_    0.345211 0.306351 0.791930 -0.256448
I5    I     I_    0.669185 0.782704 0.666736 -0.191371
I6    I     I_    0.110655 0.579676 0.737573 -0.344806
N1    N     N_R   0.523380 0.207800 0.519350 -0.122910
N2    N     N_R   0.476620 0.792180 0.480650 -0.138708
O1    O     O_R   0.506240 0.421700 0.658830 -0.548742
O2    O     O_2   0.288409 0.763392 0.079621 -0.539138
O3    O     O_2   0.552306 0.154229 0.025304 -0.534964
O4    O     O_2   0.424576 0.835240 0.823580 -0.563300
O5    O     O_2   0.696049 0.305289 0.678865 -0.513171
O6    O     O_2   0.249746 0.088010 0.302495 -0.501455
O7    O     O_2   0.968065 0.218713 0.361706 -0.471817
O8    O     O_2   0.779271 0.785566 0.431823 -0.518622
O9    O     O_2   0.034456 0.819141 0.526037 -0.485859
O10   O     O_R   0.491240 0.609310 0.646410 -0.635069
O11   O     O_R   0.692710 0.406190 0.506230 -0.575244
O12   O     O_R   0.677700 0.593810 0.493810 -0.587355
O13   O     O_R   0.508760 0.390690 0.353590 -0.639614
O14   O     O_R   0.493760 0.578300 0.341170 -0.627005
O15   O     O_R   0.322300 0.406190 0.506190 -0.611484
O16   O     O_R   0.307290 0.593810 0.493770 -0.641084
O17   O     O_2   0.144516 0.729290 0.331466 -0.540228
Zn1   Zn    Zn3+2 0.510020 0.374730 0.508290 1.025864
Zn2   Zn    Zn3+2 0.489980 0.625270 0.491710 1.004716

loop_
_geom_bond_atom_site_label_1
_geom_bond_atom_site_label_2
_ccdc_geom_bond_type
C8    C13   A    
C19   C20   S    
C22   H18   S    
C30   O6    D    
C23   H17   S    
C21   C31   S    
C12   C23   S    
C22   C32   S    
C26   O2    D    
C21   I2    S    
O15   Zn1   S    
C16   C35   S    
O14   Zn2   S    
C4    C24   S    
O10   Zn2   S    
C33   H10   S    
C18   O16   A    
C7    C27   S    
C6    C35   A    
C27   O3    D    
C2    C7    A    
O1    Zn1   S    
O13   Zn1   S    
C28   O4    D    
C8    C9    A    
C15   N1    A    
C25   C34   S    
C31   H8    S    
C13   C14   A    
C32   H9    S    
C10   I5    S    
C20   H16   S    
C39   I4    S    
C19   H13   S    
O11   Zn1   S    
C15   C29   S    
C19   I1    S    
C23   I3    S    
C22   C34   S    
C1    O10   A    
C25   H2    S    
C32   O8    D    
N2    Zn2   S    
O12   Zn2   S    
C28   H5    S    
C29   H6    S    
C1    O1    A    
N1    Zn1   S    
C37   C38   A    
C2    C39   A    
C14   H12   S    
C28   C38   S    
C14   N1    A    
C12   C20   S    
C33   C34   S    
C6    H11   S    
C31   O7    D    
C21   C23   S    
C25   O17   D    
C22   C24   S    
C21   C24   S    
C12   C34   S    
C17   H14   S    
O16   Zn2   S    
C26   H3    S    
C29   O5    D    
C10   N2    A    
C15   C17   A    
C11   C17   A    
C30   H7    S    
C36   C39   A    
C3    C5    A    
C26   C37   S    
C6    C7    A    
C16   O14   A    
C8    C30   S    
C20   I6    S    
C36   C38   A    
C19   C24   S    
C4    O12   A    
C11   C13   A    
C5    C35   A    
C2    C3    A    
C16   O13   A    
C9    N2    A    
C4    O11   A    
C10   C11   A    
C27   H4    S    
C33   O9    D    
C3    C37   A    
C18   O15   A    
C5    H1    S    
C12   C18   S    
C9    H15   S    
C1    C36   S    
