data_mof_unit_12429.cif
_audit_creation_date              2013-03-05T15:41:37-0500
_audit_creation_method            fapswitch 2.2
_symmetry_space_group_name_H-M    P1
_symmetry_Int_Tables_number       1
_space_group_crystal_system       triclinic
_cell_length_a                    7.799777
_cell_length_b                    8.570246
_cell_length_c                    15.727723
_cell_angle_alpha                 91.135309
_cell_angle_beta                  84.896153
_cell_angle_gamma                 93.721113
_cell_volume                      1044.85511996

loop_
_atom_site_label
_atom_site_type_symbol
_atom_site_description
_atom_site_fract_x
_atom_site_fract_y
_atom_site_fract_z
_atom_type_partial_charge
O1    O     O_R   0.389240 0.738570 0.505550 -0.574104
O2    O     O_R   0.678400 0.711630 0.491050 -0.608527
C1    C     C_R   0.545171 0.794150 0.493181 0.978597
O3    O     O_R   0.355360 0.513470 0.630110 -0.603190
O4    O     O_R   0.644510 0.486530 0.615610 -0.609893
C2    C     C_R   0.500531 0.500005 0.661533 0.884537
Zn1   Zn    Zn3+2 0.306930 0.517990 0.509680 1.062254
Zn2   Zn    Zn3+2 0.693070 0.482010 0.490320 1.038582
O5    O     O_R   0.321600 0.288370 0.508950 -0.586144
O6    O     O_R   0.610760 0.261430 0.494450 -0.628201
O7    O     O_R   0.355490 0.513470 0.384390 -0.598840
O8    O     O_R   0.644640 0.486530 0.369890 -0.590619
C3    C     C_R   0.454051 0.205361 0.497928 0.850367
C4    C     C_R   0.499608 0.500155 0.338469 0.893901
C5    C     C_3   0.390716 0.627432 0.957096 -0.434416
C6    C     C_3   0.703815 0.529833 0.940063 0.462613
C7    C     C_3   0.705596 0.522967 0.041552 0.524479
H1    H     H_    0.499502 0.756602 0.059638 0.194863
H2    H     H_    0.413135 0.741472 0.924341 0.228636
C8    C     C_1   0.500839 0.502639 0.249693 -0.029181
C9    C     C_3   0.510215 0.501890 0.916669 -0.009898
C10   C     C_3   0.416945 0.647350 0.052742 0.088867
C11   C     C_3   0.513830 0.505985 0.082261 -0.070053
C12   C     C_3   0.428044 0.347853 0.050730 -0.364837
C13   C     C_3   0.433372 0.342817 0.952674 -0.397512
C14   C     C_1   0.506658 0.504580 0.174251 0.131882
C15   C     C_1   0.503551 0.500801 0.825467 0.085297
C16   C     C_1   0.501588 0.500250 0.750283 -0.076299
H3    H     H_    0.300164 0.317694 0.933451 0.244268
H4    H     H_    0.509243 0.244396 0.926886 0.253274
H5    H     H_    0.292497 0.329421 0.078117 0.269789
H6    H     H_    0.253536 0.589884 0.949044 0.265577
H7    H     H_    0.493837 0.246609 0.072585 0.243589
C17   C     C_2   0.567255 0.957883 0.488978 -0.440083
H8    H     H_    0.692351 0.008754 0.504408 0.201640
C18   C     C_2   0.430645 0.043189 0.481109 0.123166
N1    N     N_2   0.950340 0.457950 0.477370 -0.143072
H9    H     H_    0.013442 0.381101 0.436429 0.224094
N2    N     N_2   0.049660 0.542050 0.522630 -0.140309
H10   H     H_    0.986584 0.618938 0.563553 0.217090
N3    N     N_R   0.253640 0.670395 0.103957 0.256657
O9    O     O_R   0.142409 0.553769 0.121877 -0.287956
O10   O     O_R   0.225803 0.806795 0.138389 -0.281460
N4    N     N_R   0.272674 0.981860 0.447873 0.231875
O11   O     O_R   0.124053 0.021910 0.482741 -0.374549
O12   O     O_R   0.278567 0.901308 0.376730 -0.326083
Cl1   Cl    Cl    0.827897 0.376332 0.887378 -0.494354
N5    N     N_R   0.781141 0.681365 0.905829 0.228029
O13   O     O_R   0.713103 0.812838 0.926928 -0.369177
O14   O     O_R   0.922790 0.686923 0.855153 -0.301770
Cl2   Cl    Cl    0.816824 0.693676 0.085267 -0.406986
Cl3   Cl    Cl    0.821328 0.362778 0.076428 -0.436412

loop_
_geom_bond_atom_site_label_1
_geom_bond_atom_site_label_2
_geom_bond_distance
_ccdc_geom_bond_type
O1    C1    1.276842 A    
O4    Zn2   1.973325 S    
Zn1   O7    1.973325 S    
C11   C12   1.563643 S    
C6    C9    1.587877 S    
N3    O9    1.298558 A    
C12   H7    1.111479 S    
Zn1   N2    2.022367 S    
Zn2   O8    1.965674 S    
C7    Cl2   1.807566 S    
N5    O14   1.302374 A    
O2    C1    1.292049 A    
C9    C15   1.439779 S    
C12   H5    1.108254 S    
C5    H6    1.114559 S    
N1    N2    1.277352 D    
C7    C11   1.572700 S    
N4    O11   1.301305 A    
C5    H2    1.110376 S    
N3    O10   1.301484 A    
C6    N5    1.486087 S    
N1    H9    1.029331 S    
C8    C14   1.183768 T    
O3    Zn1   1.965675 S    
C7    Cl3   1.810873 S    
Zn2   O6    1.957039 S    
N5    O13   1.301062 A    
N4    O12   1.301931 A    
C17   C18   1.346606 D    
C13   H3    1.114242 S    
O4    C2    1.290487 A    
O7    C4    1.291182 A    
C2    C16   1.396554 S    
C18   N4    1.444756 S    
C10   N3    1.467675 S    
Zn2   N1    2.022367 S    
C4    C8    1.395998 S    
C5    C9    1.558284 S    
C12   C13   1.538881 S    
C6    Cl1   1.825727 S    
C3    C18   1.412823 S    
O3    C2    1.287804 A    
C17   H8    1.087988 S    
C11   C14   1.443150 S    
N2    H10   1.029295 S    
Zn1   O5    1.978371 S    
O5    C3    1.289216 A    
C10   C11   1.567786 S    
C13   H4    1.111174 S    
C9    C13   1.550034 S    
C1    C17   1.404763 S    
O1    Zn1   1.957039 S    
H1    C10   1.110515 S    
C5    C10   1.540751 S    
O2    Zn2   1.978372 S    
O8    C4    1.287009 A    
C6    C7    1.599767 S    
C15   C16   1.183857 T    
O6    C3    1.280941 A    
