data_mof_unit_40496.cif
_audit_creation_date              2012-12-10T16:32:36-0500
_audit_creation_method            fapswitch 2.2
_symmetry_space_group_name_H-M    P1
_symmetry_Int_Tables_number       1
_space_group_crystal_system       triclinic
_cell_length_a                    16.953307
_cell_length_b                    16.958168
_cell_length_c                    16.991537
_cell_angle_alpha                 64.680725
_cell_angle_beta                  64.703056
_cell_angle_gamma                 65.491889
_cell_volume                      3827.95481874

loop_
_atom_site_label
_atom_site_type_symbol
_atom_type_description
_atom_site_fract_x
_atom_site_fract_y
_atom_site_fract_z
_atom_type_partial_charge
C1    C     C_R   0.596733 0.034340 0.587027 0.117442
C2    C     C_R   0.821643 0.564455 0.032385 0.919892
C3    C     C_R   0.439185 0.957995 0.178615 0.901997
C4    C     C_R   0.568450 0.025187 0.822705 0.908386
C5    C     C_R   0.564504 0.821659 0.032305 0.884585
C6    C     C_R   0.435649 0.178355 0.967384 0.917370
C7    C     C_R   0.042042 0.560802 0.821399 0.905659
C8    C     C_R   0.974728 0.431584 0.177309 0.904106
C9    C     C_R   0.821784 0.041498 0.560572 0.882863
C10   C     C_R   0.177267 0.974585 0.431792 0.920361
C11   C     C_R   0.550100 0.017942 0.538217 0.010269
C12   C     C_R   0.414015 0.962741 0.404105 0.118048
C13   C     C_R   0.463582 0.977356 0.451290 0.010633
C14   C     C_R   0.022429 0.536486 0.548764 0.009831
C15   C     C_R   0.981796 0.449946 0.461873 0.009432
C16   C     C_R   0.543057 0.543448 0.018792 -0.022944
C17   C     C_R   0.455774 0.454859 0.985356 -0.024374
C18   C     C_R   0.597348 0.000066 0.452719 0.044533
C19   C     C_R   0.423718 0.978204 0.543843 0.078825
C20   C     C_R   0.004976 0.450190 0.595424 0.044715
C21   C     C_R   0.983658 0.542417 0.422340 0.080395
C22   C     C_R   0.528947 0.573956 0.933193 0.048372
C23   C     C_R   0.037111 0.586034 0.595962 0.117732
C24   C     C_R   0.468963 0.425211 0.071575 0.073609
C25   C     C_R   0.549548 0.995475 0.404428 0.047278
C26   C     C_R   0.457792 0.015470 0.578006 0.081293
C27   C     C_R   0.485210 0.529743 0.916568 0.047465
C28   C     C_R   0.512462 0.469007 0.088002 0.077348
C29   C     C_R   0.000307 0.402513 0.547069 0.044287
C30   C     C_R   0.020916 0.576633 0.456384 0.081586
C31   C     C_R   0.566813 0.013659 0.682880 -0.233211
C32   C     C_R   0.458686 0.933991 0.325076 -0.154289
C33   C     C_R   0.015815 0.681665 0.566424 -0.232780
C34   C     C_R   0.965430 0.403326 0.413048 0.117753
C35   C     C_R   0.935453 0.324248 0.458814 -0.154003
C36   C     C_R   0.679300 0.548794 0.038596 -0.209167
C37   C     C_R   0.320200 0.450369 0.963692 -0.177340
C38   C     C_R   0.318398 0.983927 0.433737 -0.231096
C39   C     C_R   0.675686 0.064543 0.541224 -0.151707
C40   C     C_R   0.451222 0.320117 0.962141 -0.214242
C41   C     C_R   0.548730 0.679519 0.038483 -0.172513
C42   C     C_R   0.985978 0.433378 0.317209 -0.233919
C43   C     C_R   0.066064 0.541342 0.674919 -0.150903
C44   C     C_R   0.605019 0.036377 0.726794 -0.053645
C45   C     C_R   0.589714 0.589935 0.035449 0.116233
C46   C     C_R   0.407608 0.935401 0.276818 -0.091382
C47   C     C_R   0.037147 0.726785 0.604511 -0.058077
C48   C     C_R   0.935788 0.276065 0.408363 -0.086211
C49   C     C_R   0.725230 0.596877 0.046763 -0.062237
C50   C     C_R   0.274604 0.402797 0.954264 -0.062220
C51   C     C_R   0.273232 0.962767 0.395557 -0.059102
C52   C     C_R   0.723916 0.064211 0.591637 -0.087405
C53   C     C_R   0.403151 0.274627 0.953402 -0.063519
C54   C     C_R   0.596918 0.725313 0.046649 -0.060847
C55   C     C_R   0.963443 0.395066 0.273246 -0.054703
C56   C     C_R   0.409536 0.408863 0.967531 0.125230
C57   C     C_R   0.064692 0.592376 0.723178 -0.091745
C58   C     C_R   0.682184 0.063926 0.680253 -0.255763
C59   C     C_R   0.318703 0.936185 0.318547 -0.254367
C60   C     C_R   0.063905 0.681268 0.681440 -0.252919
C61   C     C_R   0.936013 0.317842 0.319756 -0.257611
C62   C     C_R   0.681660 0.681647 0.057151 -0.269888
C63   C     C_R   0.318315 0.318311 0.943200 -0.264516
C64   C     C_R   0.958511 0.178210 0.439410 0.882742
C65   C     C_R   0.025358 0.822744 0.568246 0.920544
C66   C     C_R   0.178323 0.435389 0.968005 0.881162
H1    H     H_    0.515297 0.978687 0.724468 0.153019
H2    H     H_    0.481418 0.714263 0.030463 0.155451
H3    H     H_    0.020729 0.485079 0.275684 0.153642
H4    H     H_    0.084989 0.468424 0.703250 0.164074
H5    H     H_    0.715848 0.073628 0.715889 0.177693
H6    H     H_    0.282346 0.927450 0.284909 0.178993
H7    H     H_    0.072734 0.717581 0.715040 0.178940
H8    H     H_    0.926373 0.284171 0.284095 0.177600
H9    H     H_    0.717492 0.717430 0.064005 0.180231
H10   H     H_    0.282635 0.282777 0.935773 0.179684
H11   H     H_    0.413124 0.106410 0.649587 0.194493
H12   H     H_    0.531621 0.915243 0.296718 0.163563
H13   H     H_    0.383971 0.005537 0.711932 0.190809
H14   H     H_    0.597583 0.077650 0.277958 0.193434
H15   H     H_    0.650791 0.964780 0.292753 0.170434
H16   H     H_    0.111961 0.649794 0.411851 0.194534
H17   H     H_    0.012641 0.710243 0.382190 0.192461
H18   H     H_    0.083102 0.277463 0.591739 0.193327
H19   H     H_    0.970425 0.289073 0.647841 0.169302
H20   H     H_    0.492390 0.492557 0.203370 0.188498
H21   H     H_    0.592564 0.415781 0.169699 0.179008
H22   H     H_    0.431653 0.627648 0.816763 0.181078
H23   H     H_    0.981511 0.722101 0.515172 0.154913
H24   H     H_    0.534183 0.555365 0.778965 0.184439
H25   H     H_    0.351039 0.886841 0.587971 0.192540
H26   H     H_    0.290309 0.985677 0.618339 0.194008
H27   H     H_    0.722567 0.917987 0.407256 0.191292
H28   H     H_    0.710298 0.030833 0.351720 0.170909
H29   H     H_    0.470366 0.292458 0.125573 0.186917
H30   H     H_    0.366817 0.366963 0.155586 0.192406
H31   H     H_    0.607343 0.628051 0.806523 0.187929
H32   H     H_    0.505149 0.701055 0.843824 0.180451
H33   H     H_    0.892420 0.586686 0.351138 0.192650
H34   H     H_    0.916851 0.295700 0.532043 0.162662
H35   H     H_    0.992897 0.616519 0.288577 0.193168
H36   H     H_    0.923767 0.401117 0.722113 0.189426
H37   H     H_    0.036873 0.348649 0.706451 0.171983
H38   H     H_    0.714159 0.481744 0.030003 0.152044
H39   H     H_    0.285272 0.517235 0.972741 0.154915
H40   H     H_    0.278034 0.018006 0.485153 0.155805
H41   H     H_    0.704129 0.083354 0.467995 0.163288
H42   H     H_    0.518948 0.285541 0.969085 0.151133
N1    N     N_3   0.393630 0.055957 0.648728 -0.468562
N2    N     N_3   0.560530 0.649343 0.863115 -0.449510
N3    N     N_3   0.942701 0.606519 0.351895 -0.470539
N4    N     N_3   0.988279 0.411443 0.692377 -0.469572
N5    N     N_3   0.587781 0.012931 0.307361 -0.469479
N6    N     N_3   0.062561 0.647785 0.392018 -0.466299
N7    N     N_3   0.018196 0.305523 0.583793 -0.467975
N8    N     N_3   0.523160 0.437861 0.176731 -0.427391
N9    N     N_3   0.471089 0.559730 0.829580 -0.453581
N10   N     N_3   0.352927 0.936034 0.608157 -0.471802
N11   N     N_3   0.694278 0.982704 0.415616 -0.469054
N12   N     N_3   0.436352 0.351844 0.144722 -0.424324
O1    O     O_R   0.982940 0.138950 0.510160 -0.627815
O2    O     O_R   0.982940 0.510160 0.138950 -0.639028
O3    O     O_R   0.861050 0.017060 0.489840 -0.627921
O4    O     O_R   0.138950 0.982940 0.510160 -0.633853
O5    O     O_R   0.867700 0.025880 0.612340 -0.632596
O6    O     O_R   0.132300 0.974120 0.387660 -0.627723
O7    O     O_R   0.025880 0.612340 0.867700 -0.624824
O8    O     O_R   0.974120 0.387660 0.132300 -0.632757
O9    O     O_R   0.612340 0.867700 0.025880 -0.636000
O10   O     O_R   0.387660 0.132300 0.974120 -0.625169
O11   O     O_R   0.387660 0.974120 0.132300 -0.625743
O12   O     O_R   0.017060 0.861050 0.489840 -0.633837
O13   O     O_R   0.612340 0.025880 0.867700 -0.631900
O14   O     O_R   0.132300 0.387660 0.974120 -0.636081
O15   O     O_R   0.867700 0.612340 0.025880 -0.625261
O16   O     O_R   0.974120 0.132300 0.387660 -0.632912
O17   O     O_R   0.025880 0.867700 0.612340 -0.627621
O18   O     O_R   0.138950 0.510160 0.982940 -0.642914
O19   O     O_R   0.861050 0.489840 0.017060 -0.632138
O20   O     O_R   0.510160 0.982940 0.138950 -0.623689
O21   O     O_R   0.489840 0.017060 0.861050 -0.638427
O22   O     O_R   0.489840 0.861050 0.017060 -0.642502
O23   O     O_R   0.510160 0.138950 0.982940 -0.633492
O24   O     O_R   0.017060 0.489840 0.861050 -0.622407
Zn1   Zn    Zn3+2 0.004880 0.004880 0.583590 0.942194
Zn2   Zn    Zn3+2 0.995120 0.995120 0.416410 0.941920
Zn3   Zn    Zn3+2 0.004880 0.583590 0.004880 0.939814
Zn4   Zn    Zn3+2 0.995120 0.416410 0.995120 0.942934
Zn5   Zn    Zn3+2 0.583590 0.004880 0.004880 0.941912
Zn6   Zn    Zn3+2 0.416410 0.995120 0.995120 0.939450

loop_
_geom_bond_atom_site_label_1
_geom_bond_atom_site_label_2
_ccdc_geom_bond_type
C16   C28   A    
C5    O22   A    
C64   O16   A    
C11   C18   A    
H32   N2    S    
O20   Zn5   S    
C46   C59   A    
H36   N4    S    
C34   C42   A    
O24   Zn4   S    
O6    Zn2   S    
H22   N9    S    
C31   H1    S    
C18   C25   A    
C3    O11   A    
C2    O19   A    
O17   Zn1   S    
C25   N5    S    
C58   H5    S    
C48   C64   S    
C63   H10   S    
C35   C48   A    
C64   O1    A    
C60   H7    S    
C1    C31   A    
C23   C43   A    
H20   N8    S    
C34   C35   A    
C19   C26   A    
H26   N10   S    
C28   N8    S    
C47   C60   A    
C20   N4    S    
C37   C56   A    
C8    O8    A    
C19   N10   S    
C44   C58   A    
C23   C33   A    
C1    C11   S    
O10   Zn6   S    
C15   C34   S    
C6    O10   A    
C59   H6    S    
C40   H42   S    
C65   O17   A    
C5    O9    A    
C39   C52   A    
C29   N7    S    
C66   O14   A    
C12   C32   A    
C50   C63   A    
H17   N6    S    
C13   C25   A    
C9    C52   S    
C14   C30   A    
C10   C51   S    
C8    C55   S    
C7    O24   A    
C21   N3    S    
O21   Zn6   S    
C15   C29   A    
C41   H2    S    
C20   C29   A    
C27   N9    S    
O19   Zn4   S    
C24   N12   S    
C17   C24   A    
C31   C44   A    
H13   N1    S    
C17   C27   A    
H24   N9    S    
C14   C20   A    
C5    C54   S    
H19   N7    S    
O13   Zn5   S    
H16   N6    S    
O4    Zn1   S    
C4    O21   A    
C1    C39   A    
O8    Zn4   S    
C57   C60   A    
C38   C51   A    
C4    C44   S    
C11   C26   A    
C40   C56   A    
C42   H3    S    
C9    O5    A    
H37   N4    S    
C14   C23   S    
C38   H40   S    
C39   H41   S    
C37   H39   S    
C2    C49   S    
C33   H23   S    
C42   C55   A    
C22   N2    S    
H28   N11   S    
C66   O18   A    
O3    Zn2   S    
O23   Zn5   S    
O18   Zn3   S    
H33   N3    S    
H25   N10   S    
C36   C45   A    
O2    Zn3   S    
C12   C13   S    
H11   N1    S    
C50   C66   S    
C17   C56   S    
H21   N8    S    
C52   C58   A    
C43   H4    S    
O15   Zn3   S    
C22   C27   A    
H29   N12   S    
O1    Zn1   S    
C62   H9    S    
C51   C59   A    
C6    C53   S    
C35   H34   S    
C65   O12   A    
O14   Zn4   S    
C30   N6    S    
C16   C22   A    
C49   C62   A    
C32   C46   A    
H30   N12   S    
C24   C28   A    
C16   C45   S    
C61   H8    S    
H18   N7    S    
C54   C62   A    
C21   C30   A    
C3    C46   S    
C10   O4    A    
C2    O15   A    
C36   H38   S    
O12   Zn2   S    
O22   Zn6   S    
C6    O23   A    
O5    Zn1   S    
H31   N2    S    
C53   C63   A    
C8    O2    A    
C48   C61   A    
C33   C47   A    
H35   N3    S    
C55   C61   A    
C37   C50   A    
C9    O3    A    
C47   C65   S    
C26   N1    S    
C12   C38   A    
C41   C54   A    
C43   C57   A    
C32   H12   S    
C15   C21   A    
H14   N5    S    
C40   C53   A    
H15   N5    S    
C13   C19   A    
C41   C45   A    
O11   Zn6   S    
C3    O20   A    
H27   N11   S    
C7    O7    A    
O9    Zn5   S    
C10   O6    A    
C18   N11   S    
C7    C57   S    
O16   Zn2   S    
C36   C49   A    
O7    Zn3   S    
C4    O13   A    
