data_mof_unit_42039.cif
_audit_creation_date              2012-12-10T16:57:49-0500
_audit_creation_method            fapswitch 2.2
_symmetry_space_group_name_H-M    P1
_symmetry_Int_Tables_number       1
_space_group_crystal_system       triclinic
_cell_length_a                    7.849269
_cell_length_b                    8.735609
_cell_length_c                    19.094269
_cell_angle_alpha                 92.621316
_cell_angle_beta                  85.340821
_cell_angle_gamma                 93.481886
_cell_volume                      1301.4274407

loop_
_atom_site_label
_atom_site_type_symbol
_atom_type_description
_atom_site_fract_x
_atom_site_fract_y
_atom_site_fract_z
_atom_type_partial_charge
C1    C     C_R   0.544378 0.793358 0.496361 0.958272
C2    C     C_R   0.533662 0.347949 0.176256 -0.055522
C3    C     C_R   0.411615 0.448123 0.855198 -0.043495
C4    C     C_R   0.442681 0.459521 0.145885 -0.009100
C5    C     C_R   0.570634 0.503135 0.826187 -0.132984
C6    C     C_R   0.378929 0.582923 0.186503 -0.160132
C7    C     C_R   0.609795 0.498193 0.754185 0.005849
C8    C     C_R   0.404213 0.600612 0.257382 -0.089415
C9    C     C_R   0.482375 0.447534 0.709252 -0.212072
C10   C     C_R   0.489922 0.488512 0.289497 -0.152598
C11   C     C_R   0.417326 0.456182 0.071011 0.262943
C12   C     C_R   0.454952 0.206343 0.500605 0.928414
C13   C     C_R   0.389377 0.453130 0.931406 0.251245
C14   C     C_2   0.226264 0.263236 0.693431 0.580424
C15   C     C_2   0.646120 0.242848 0.282392 0.515197
C16   C     C_2   0.117514 0.323481 0.845423 0.473184
C17   C     C_2   0.608129 0.220994 0.131287 0.393128
C18   C     C_2   0.791417 0.522791 0.730391 0.962874
C19   C     C_2   0.350065 0.743657 0.295000 0.969590
C20   C     C_2   0.744858 0.007466 0.465013 1.039519
C21   C     C_2   0.246365 0.986975 0.509735 1.060386
C22   C     C_2   0.022613 0.403967 0.415301 0.705330
C23   C     C_2   0.566871 0.954222 0.488797 -0.275360
C24   C     C_2   0.988852 0.617792 0.581932 0.699175
C25   C     C_2   0.429463 0.044353 0.499617 -0.344007
C26   C     C_R   0.497329 0.484960 0.634001 0.851598
C27   C     C_R   0.498356 0.498820 0.365704 0.980895
C28   C     C_R   0.328964 0.370469 0.738587 -0.086545
C29   C     C_R   0.554957 0.361199 0.249168 -0.069480
C30   C     C_R   0.288662 0.378378 0.812429 -0.010603
H1    H     H_    0.668849 0.543219 0.860711 0.182309
H2    H     H_    0.053185 0.857995 0.469232 0.358366
H3    H     H_    0.010278 0.467917 0.368767 0.000971
H4    H     H_    0.058342 0.607941 0.627757 0.049194
H5    H     H_    0.312248 0.669104 0.162070 0.190529
H6    H     H_    0.189946 0.294756 0.642902 0.115295
H7    H     H_    0.762287 0.198939 0.256353 0.107349
H8    H     H_    0.097234 0.310450 0.901627 0.072866
H9    H     H_    0.665613 0.243454 0.078879 0.093882
H10   H     H_    0.015308 0.641283 0.746394 0.341182
H11   H     H_    0.415542 0.926502 0.356614 0.396467
H12   H     H_    0.926195 0.021907 0.383864 0.386919
N1    N     N_R   0.365853 0.320991 0.966349 -0.159458
N2    N     N_R   0.437508 0.588483 0.036137 -0.136222
N3    N     N_R   0.377599 0.322755 0.035365 -0.152884
N4    N     N_R   0.424986 0.586858 0.967312 -0.130242
N5    N     N_2   0.950330 0.457950 0.481240 -0.144500
N6    N     N_2   0.049670 0.542050 0.518760 -0.201434
O1    O     O_R   0.389250 0.738570 0.504600 -0.624849
O2    O     O_2   0.588703 0.189595 0.337925 -0.563534
O3    O     O_2   0.993994 0.297650 0.810976 -0.513522
O4    O     O_2   0.601169 0.089804 0.151279 -0.533813
O5    O     O_2   0.860979 0.424305 0.692696 -0.612239
O6    O     O_R   0.887783 0.647307 0.758588 -0.771320
O7    O     O_2   0.212948 0.794857 0.284804 -0.585330
O8    O     O_R   0.460460 0.824450 0.339009 -0.763755
O9    O     O_2   0.841031 0.064660 0.507530 -0.544615
O10   O     O_R   0.803190 0.982921 0.394520 -0.734215
O11   O     O_2   0.165497 0.007503 0.566466 -0.547672
O12   O     O_R   0.610750 0.261430 0.495400 -0.588784
O13   O     O_R   0.169254 0.907921 0.454199 -0.767046
O14   O     O_2   0.090586 0.281747 0.409655 -0.572147
O15   O     O_2   0.882836 0.713771 0.583431 -0.549122
O16   O     O_R   0.678400 0.711620 0.492580 -0.582543
O17   O     O_R   0.321600 0.288380 0.507420 -0.597716
O18   O     O_R   0.355380 0.513500 0.607880 -0.686463
O19   O     O_R   0.644620 0.486500 0.392120 -0.634270
O20   O     O_R   0.644530 0.486550 0.595850 -0.563341
O21   O     O_R   0.355470 0.513450 0.404150 -0.629898
O22   O     O_2   0.184636 0.133575 0.712212 -0.466477
Zn1   Zn    Zn3+2 0.306930 0.517990 0.508030 1.005199
Zn2   Zn    Zn3+2 0.693070 0.482010 0.491970 1.060175

loop_
_geom_bond_atom_site_label_1
_geom_bond_atom_site_label_2
_ccdc_geom_bond_type
C10   C27   S    
C19   O8    S    
C3    C30   A    
C2    C4    A    
C16   O3    D    
H11   O8    S    
C1    C23   S    
C22   O14   D    
C14   O22   D    
C12   O17   A    
C26   O18   A    
C21   O13   S    
N5    N6    D    
C27   O21   A    
C20   C23   S    
C12   C25   S    
O20   Zn2   S    
C7    C18   S    
C26   O20   A    
H12   O10   S    
C28   C30   A    
C22   N5    S    
C3    C5    A    
C11   N2    A    
C21   O11   D    
C14   C28   S    
C4    C11   S    
N1    N3    A    
C10   C29   A    
O1    Zn1   S    
C2    C29   A    
C6    C8    A    
C17   O4    D    
C4    C6    A    
N2    N4    A    
C9    C26   S    
C15   C29   S    
C24   O15   D    
H10   O6    S    
O16   Zn2   S    
C14   H6    S    
C13   N4    A    
N5    Zn2   S    
C11   N3    A    
C8    C19   S    
C27   O19   A    
C18   O6    S    
N6    Zn1   S    
C16   C30   S    
C12   O12   A    
C1    O16   A    
C7    C9    A    
C13   N1    A    
C23   C25   D    
C6    H5    S    
C3    C13   S    
O21   Zn1   S    
O19   Zn2   S    
C17   H9    S    
C15   O2    D    
C19   O7    D    
C5    C7    A    
C22   H3    S    
O12   Zn2   S    
C1    O1    A    
C15   H7    S    
C21   C25   S    
C18   O5    D    
C5    H1    S    
C20   O9    D    
O17   Zn1   S    
C20   O10   S    
C8    C10   A    
C24   H4    S    
H2    O13   S    
O18   Zn1   S    
C9    C28   A    
C16   H8    S    
C2    C17   S    
C24   N6    S    
