data_mof_unit_6391.cif
_audit_creation_date              2012-12-10T19:11:27-0500
_audit_creation_method            fapswitch 2.2
_symmetry_space_group_name_H-M    P1
_symmetry_Int_Tables_number       1
_space_group_crystal_system       triclinic
_cell_length_a                    10.712471
_cell_length_b                    9.752772
_cell_length_c                    10.508967
_cell_angle_alpha                 90.175359
_cell_angle_beta                  89.142671
_cell_angle_gamma                 90.359497
_cell_volume                      1097.78850232

loop_
_atom_site_label
_atom_site_type_symbol
_atom_type_description
_atom_site_fract_x
_atom_site_fract_y
_atom_site_fract_z
_atom_type_partial_charge
C1    C     C_R   0.258176 0.499997 0.499873 0.916605
C2    C     C_3   0.498099 0.498385 0.122865 -0.263223
C3    C     C_3   0.076476 0.651382 0.494790 -0.460282
C4    C     C_3   0.074462 0.436375 0.627953 -0.422036
C5    C     C_3   0.933866 0.655769 0.486081 -0.058991
C6    C     C_3   0.929485 0.440667 0.635598 -0.148657
C7    C     C_3   0.073839 0.420093 0.386008 -0.462414
C8    C     C_3   0.122516 0.501299 0.501932 -0.052031
C9    C     C_3   0.880110 0.502938 0.505436 -0.200247
C10   C     C_3   0.930807 0.410874 0.392227 1.098225
C11   C     C_3   0.391792 0.079597 0.427275 -0.257556
C12   C     C_3   0.385616 0.918223 0.437632 -0.250213
C13   C     C_3   0.616976 0.081742 0.439345 -0.138418
C14   C     C_3   0.610436 0.919356 0.426894 -0.115559
C15   C     C_3   0.491935 0.081293 0.628454 -0.252265
C16   C     C_3   0.501848 0.919643 0.628419 -0.221370
C17   C     C_R   0.498774 0.499591 0.257476 1.001364
C18   C     C_R   0.742612 0.500768 0.502520 0.904694
C19   C     C_R   0.500754 0.500279 0.742425 0.991161
C20   C     C_3   0.406650 0.582403 0.043980 -0.297500
C21   C     C_3   0.478616 0.369315 0.040876 -0.244436
C22   C     C_3   0.389807 0.454549 0.959340 0.556588
C23   C     C_3   0.500441 0.500835 0.877054 -0.344021
C24   C     C_3   0.519296 0.626970 0.960956 0.595024
C25   C     C_3   0.589677 0.418327 0.957907 0.578835
C26   C     C_3   0.611042 0.545349 0.042370 -0.232957
H1    H     H_    0.397485 0.109996 0.325436 0.155668
H2    H     H_    0.371819 0.872180 0.341966 0.165682
H3    H     H_    0.303254 0.123153 0.465614 0.171122
H4    H     H_    0.301428 0.888399 0.494646 0.155854
H5    H     H_    0.567666 0.125404 0.687482 0.206387
H6    H     H_    0.589131 0.888593 0.676235 0.213202
H7    H     H_    0.402575 0.112717 0.675068 0.181812
H8    H     H_    0.423454 0.875763 0.686051 0.198081
H9    H     H_    0.695652 0.105891 0.503529 0.170489
H10   H     H_    0.695992 0.877836 0.469063 0.139431
H11   H     H_    0.331848 0.649279 0.083294 0.178813
H12   H     H_    0.461266 0.263789 0.076631 0.183088
H13   H     H_    0.701613 0.581673 0.080384 0.221288
H14   H     H_    0.121765 0.704208 0.411781 0.181372
H15   H     H_    0.109499 0.329095 0.633396 0.200298
H16   H     H_    0.110186 0.707581 0.580636 0.198400
H17   H     H_    0.117053 0.491609 0.709819 0.219193
H18   H     H_    0.104735 0.471820 0.296483 0.185227
H19   H     H_    0.113824 0.314965 0.383747 0.195665
N1    N     N_3   0.499750 0.138610 0.497240 -0.086221
N2    N     N_3   0.499750 0.861390 0.497240 -0.081240
O1    O     O_R   0.314910 0.616040 0.499970 -0.646625
O2    O     O_R   0.314910 0.383960 0.499970 -0.639196
O3    O     O_R   0.500080 0.616020 0.313900 -0.625028
O4    O     O_R   0.500080 0.383980 0.313900 -0.634416
O5    O     O_R   0.685320 0.616040 0.499930 -0.641168
O6    O     O_R   0.685320 0.383960 0.499930 -0.596580
O7    O     O_R   0.500150 0.616060 0.686000 -0.602808
O8    O     O_R   0.500150 0.383940 0.686000 -0.608299
Zn1   Zn    Zn3+2 0.500150 0.654960 0.499940 0.944012
Zn2   Zn    Zn3+2 0.500150 0.345040 0.499940 0.958445
F1    F     F_    0.277372 0.408348 0.911871 -0.656347
F2    F     F_    0.882290 0.451409 0.276710 -0.666088
F3    F     F_    0.897169 0.274464 0.407946 -0.691624
C27   C     C_1   0.652346 0.150886 0.318947 0.342400
N3    N     N_1   0.682193 0.202699 0.224225 -0.075954
C28   C     C_1   0.613374 0.873315 0.292468 0.224168
N4    N     N_1   0.615897 0.840430 0.186603 -0.121132
F4    F     F_    0.540332 0.758450 0.916298 -0.642121
F5    F     F_    0.682522 0.334306 0.909572 -0.635301
C29   C     C_1   0.888176 0.756629 0.581669 0.174736
N5    N     N_1   0.853701 0.835981 0.656263 -0.174481
C30   C     C_1   0.889242 0.521444 0.748004 0.253985
N6    N     N_1   0.858054 0.583796 0.836711 -0.121668
C31   C     C_1   0.901868 0.712682 0.360165 0.237981
N7    N     N_1   0.879126 0.756973 0.261216 -0.152774
C32   C     C_1   0.882247 0.300438 0.661960 0.365070
N8    N     N_1   0.846164 0.190806 0.683928 -0.143118

loop_
_geom_bond_atom_site_label_1
_geom_bond_atom_site_label_2
_ccdc_geom_bond_type
C7    C10   S    
C3    H16   S    
C6    C30   S    
C1    C8    S    
C32   N8    T    
C10   F3    S    
C4    C8    S    
C17   O4    A    
C6    C9    S    
C18   O5    A    
C7    C8    S    
C12   H2    S    
C7    H19   S    
C24   C26   S    
C13   H9    S    
C14   H10   S    
C13   N1    S    
C26   H13   S    
C4    H15   S    
C15   C16   S    
O2    Zn2   S    
C18   O6    A    
C16   H8    S    
C21   H12   S    
C20   C24   S    
C23   C24   S    
O4    Zn2   S    
C9    C10   S    
C5    C29   S    
C13   C14   S    
C2    C17   S    
C30   N6    T    
C12   N2    S    
C16   N2    S    
O7    Zn1   S    
C2    C20   S    
C29   N5    T    
C4    C6    S    
C3    C8    S    
O6    Zn2   S    
C25   C26   S    
O3    Zn1   S    
C19   C23   S    
C5    C9    S    
C11   H1    S    
C2    C21   S    
C2    C26   S    
C7    H18   S    
C24   F4    S    
C19   O7    A    
C20   C22   S    
C3    H14   S    
O8    Zn2   S    
N1    Zn2   S    
C6    C32   S    
C19   O8    A    
O1    Zn1   S    
C21   C25   S    
C12   H4    S    
C25   F5    S    
C3    C5    S    
C17   O3    A    
C22   F1    S    
C11   C12   S    
C1    O1    A    
C15   H5    S    
C14   N2    S    
C4    H17   S    
C16   H6    S    
C10   F2    S    
C31   N7    T    
C5    C31   S    
C20   H11   S    
C14   C28   S    
C23   C25   S    
C27   N3    T    
C28   N4    T    
C9    C18   S    
C13   C27   S    
C11   H3    S    
C22   C23   S    
C11   N1    S    
C15   N1    S    
C21   C22   S    
C1    O2    A    
C15   H7    S    
O5    Zn1   S    
N2    Zn1   S    
