data_mof_unit_13034.cif
_audit_creation_date              2012-12-11T14:52:27-0500
_audit_creation_method            fapswitch 2.2
_symmetry_space_group_name_H-M    P1
_symmetry_Int_Tables_number       1
_space_group_crystal_system       triclinic
_cell_length_a                    18.83361
_cell_length_b                    10.994806
_cell_length_c                    18.795082
_cell_angle_alpha                 89.961058
_cell_angle_beta                  90.302705
_cell_angle_gamma                 89.951567
_cell_volume                      3891.87650182

loop_
_atom_site_label
_atom_site_type_symbol
_atom_type_description
_atom_site_fract_x
_atom_site_fract_y
_atom_site_fract_z
_atom_type_partial_charge
C1    C     C_R   0.270329 0.046765 0.851702 0.531547
C2    C     C_R   0.729125 0.045185 0.147602 0.531554
C3    C     C_R   0.770329 0.546764 0.851702 0.531558
C4    C     C_R   0.229126 0.545185 0.147602 0.531534
C5    C     C_3   0.525286 0.720081 0.972245 -0.142789
C6    C     C_3   0.465939 0.734369 0.029427 -0.145959
C7    C     C_3   0.025291 0.220084 0.972242 -0.142796
C8    C     C_3   0.965944 0.234364 0.029425 -0.145949
C9    C     C_R   0.313611 0.570081 0.968156 -0.130369
C10   C     C_R   0.692960 0.550434 0.033489 -0.086858
C11   C     C_R   0.813611 0.070083 0.968156 -0.130378
C12   C     C_R   0.192958 0.050438 0.033489 -0.086871
C13   C     C_R   0.306123 0.541776 0.040073 -0.138172
C14   C     C_R   0.693540 0.543208 0.959312 -0.070622
C15   C     C_R   0.806124 0.041778 0.040073 -0.138198
C16   C     C_R   0.193539 0.043211 0.959311 -0.070615
C17   C     C_R   0.252017 0.596175 0.079727 -0.028110
C18   C     C_R   0.749367 0.594542 0.921129 -0.019308
C19   C     C_R   0.752017 0.096176 0.079727 -0.028139
C20   C     C_R   0.249368 0.094543 0.921128 -0.019290
C21   C     C_R   0.209385 0.685705 0.048427 -0.077040
C22   C     C_R   0.797551 0.670464 0.956047 -0.056546
C23   C     C_R   0.709384 0.185705 0.048427 -0.077060
C24   C     C_R   0.297552 0.170463 0.956047 -0.056516
C25   C     C_R   0.213221 0.708408 0.976396 0.245353
C26   C     C_R   0.799451 0.676207 0.029167 0.260379
C27   C     C_R   0.713220 0.208408 0.976396 0.245333
C28   C     C_R   0.299452 0.176206 0.029167 0.260394
C29   C     C_R   0.265560 0.650387 0.934942 0.096707
C30   C     C_R   0.746849 0.614269 0.069732 0.069745
C31   C     C_R   0.765560 0.150387 0.934942 0.096700
C32   C     C_R   0.246848 0.114270 0.069732 0.069733
C33   C     C_R   0.480746 0.720616 0.531306 -0.131121
C34   C     C_R   0.484632 0.723275 0.458583 -0.137345
C35   C     C_R   0.980847 0.220596 0.531333 -0.131153
C36   C     C_R   0.984721 0.223244 0.458611 -0.137346
C37   C     C_R   0.500226 0.832164 0.423710 0.034979
C38   C     C_R   0.487350 0.828212 0.570989 0.038094
C39   C     C_R   0.000252 0.332147 0.423723 0.034992
C40   C     C_R   0.987389 0.328215 0.571003 0.038098
C41   C     C_R   0.504696 0.941241 0.462387 -0.140609
C42   C     C_R   0.498138 0.939277 0.536130 -0.145989
C43   C     C_R   0.004683 0.441238 0.462389 -0.140615
C44   C     C_R   0.998129 0.439284 0.536133 -0.145966
C45   C     C_R   0.470803 0.821373 0.854888 0.583697
C46   C     C_R   0.530362 0.821651 0.144468 0.577695
C47   C     C_R   0.970804 0.321374 0.854888 0.583698
C48   C     C_R   0.030363 0.321651 0.144468 0.577651
C49   C     C_R   0.183371 0.603237 0.542733 -0.131785
C50   C     C_R   0.817062 0.591772 0.455686 -0.133032
C51   C     C_R   0.683380 0.103254 0.542727 -0.131795
C52   C     C_R   0.317062 0.091758 0.455684 -0.133034
C53   C     C_R   0.179180 0.601100 0.470184 -0.124901
C54   C     C_R   0.822864 0.586655 0.528212 -0.123146
C55   C     C_R   0.679189 0.101125 0.470179 -0.124904
C56   C     C_R   0.322866 0.086636 0.528210 -0.123146
C57   C     C_R   0.238480 0.567318 0.429874 0.040164
C58   C     C_R   0.762498 0.564804 0.569809 0.040623
C59   C     C_R   0.738488 0.067344 0.429868 0.040167
C60   C     C_R   0.262499 0.064801 0.569808 0.040625
C61   C     C_R   0.302009 0.533510 0.463309 -0.134316
C62   C     C_R   0.696636 0.542679 0.538010 -0.135171
C63   C     C_R   0.802021 0.033553 0.463300 -0.134310
C64   C     C_R   0.196634 0.042693 0.538012 -0.135174
C65   C     C_R   0.307103 0.540660 0.536641 -0.131435
C66   C     C_R   0.690383 0.551120 0.464908 -0.129784
C67   C     C_R   0.807118 0.040706 0.536632 -0.131421
C68   C     C_R   0.190380 0.051135 0.464911 -0.129782
C69   C     C_R   0.248501 0.581264 0.575915 0.034843
C70   C     C_R   0.750247 0.581381 0.424223 0.033673
C71   C     C_R   0.748510 0.081286 0.575908 0.034844
C72   C     C_R   0.250245 0.081382 0.424223 0.033675
C73   C     C_R   0.272892 0.681913 0.859444 0.608345
C74   C     C_R   0.738407 0.642917 0.145616 0.564477
C75   C     C_R   0.772892 0.181913 0.859444 0.608358
C76   C     C_R   0.238407 0.142917 0.145615 0.564446
C77   C     C_R   0.273388 0.041620 0.644073 0.549120
C78   C     C_R   0.726926 0.042281 0.355753 0.547443
C79   C     C_R   0.773387 0.541621 0.644073 0.549123
C80   C     C_R   0.226923 0.542273 0.355756 0.547447
C81   C     C_R   0.467938 0.822989 0.645577 0.548882
C82   C     C_R   0.529109 0.823781 0.352508 0.545504
C83   C     C_R   0.967949 0.322991 0.645583 0.548879
C84   C     C_R   0.029113 0.323779 0.352511 0.545508
C85   C     C_R   0.259460 0.633827 0.644975 0.559054
C86   C     C_R   0.740294 0.634165 0.355162 0.550345
C87   C     C_R   0.759462 0.133832 0.644973 0.559056
C88   C     C_R   0.240294 0.134166 0.355162 0.550348
C89   C     C_3   0.480371 0.933126 0.026148 0.210584
C90   C     C_3   0.537946 0.918947 0.969550 0.208088
C91   C     C_3   0.980370 0.433123 0.026148 0.210557
C92   C     C_3   0.037945 0.418951 0.969551 0.208150
C93   C     C_3   0.434243 0.841028 0.986577 0.207099
C94   C     C_3   0.570515 0.814858 0.012490 0.211407
C95   C     C_3   0.934245 0.341022 0.986577 0.207110
C96   C     C_3   0.070518 0.314863 0.012489 0.211412
C97   C     C_3   0.492238 0.826934 0.929429 0.026744
C98   C     C_3   0.512190 0.828535 0.069240 0.025203
C99   C     C_3   0.992240 0.326936 0.929428 0.026749
C100  C     C_3   0.012191 0.328533 0.069240 0.025153
Cr1   Cr    Cr6+3 0.229630 0.835900 0.747350 1.042236
Cr2   Cr    Cr6+3 0.770370 0.835900 0.252650 1.040091
Cr3   Cr    Cr6+3 0.729630 0.335900 0.747350 1.042246
Cr4   Cr    Cr6+3 0.270370 0.335900 0.252650 1.040076
Cr5   Cr    Cr6+3 0.387410 0.989850 0.750850 1.034959
Cr6   Cr    Cr6+3 0.612590 0.989850 0.249150 1.039107
Cr7   Cr    Cr6+3 0.887410 0.489850 0.750850 1.034959
Cr8   Cr    Cr6+3 0.112590 0.489850 0.249150 1.039092
Cr9   Cr    Cr6+3 0.385800 0.677120 0.749340 1.022674
Cr10  Cr    Cr6+3 0.614200 0.677120 0.250660 1.025522
Cr11  Cr    Cr6+3 0.885800 0.177120 0.749340 1.022676
Cr12  Cr    Cr6+3 0.114200 0.177120 0.250660 1.025500
H1    H     H_    0.137108 0.632353 0.572307 0.129295
H2    H     H_    0.863872 0.613159 0.424777 0.128649
H3    H     H_    0.637115 0.132359 0.572302 0.129290
H4    H     H_    0.363872 0.113134 0.424774 0.128655
H5    H     H_    0.128619 0.623902 0.446021 0.131201
H6    H     H_    0.875094 0.598586 0.551467 0.136641
H7    H     H_    0.628628 0.123928 0.446017 0.131190
H8    H     H_    0.375098 0.098550 0.551464 0.136657
H9    H     H_    0.347319 0.502697 0.432930 0.120191
H10   H     H_    0.650354 0.520982 0.569573 0.123213
H11   H     H_    0.847333 0.002750 0.432919 0.120194
H12   H     H_    0.150352 0.021008 0.569577 0.123196
H13   H     H_    0.357698 0.521756 0.561929 0.124408
H14   H     H_    0.638119 0.542506 0.441082 0.135808
H15   H     H_    0.857716 0.021824 0.561917 0.124438
H16   H     H_    0.138115 0.042533 0.441086 0.135794
H17   H     H_    0.545042 0.633363 0.949621 0.133925
H18   H     H_    0.435818 0.660141 0.055296 0.140246
H19   H     H_    0.045049 0.133369 0.949618 0.133920
H20   H     H_    0.935825 0.160133 0.055292 0.140252
H21   H     H_    0.355717 0.526805 0.938399 0.144827
H22   H     H_    0.649401 0.509331 0.062178 0.141337
H23   H     H_    0.855718 0.026808 0.938399 0.144831
H24   H     H_    0.149398 0.009338 0.062177 0.141335
H25   H     H_    0.340992 0.475077 0.063989 0.195182
H26   H     H_    0.651526 0.495910 0.931640 0.181769
H27   H     H_    0.840994 0.975081 0.063989 0.195185
H28   H     H_    0.151525 0.995914 0.931639 0.181763
H29   H     H_    0.167844 0.730634 0.078279 0.156219
H30   H     H_    0.839249 0.716711 0.927113 0.157092
H31   H     H_    0.667843 0.230632 0.078279 0.156228
H32   H     H_    0.339251 0.216708 0.927114 0.157087
H33   H     H_    0.470730 0.633364 0.556006 0.128736
H34   H     H_    0.480030 0.637827 0.430216 0.125875
H35   H     H_    0.970878 0.133335 0.556041 0.128732
H36   H     H_    0.980155 0.137778 0.430256 0.125887
H37   H     H_    0.515974 0.026592 0.436103 0.116719
H38   H     H_    0.501389 0.023661 0.565650 0.112536
H39   H     H_    0.015921 0.526596 0.436096 0.116700
H40   H     H_    0.001340 0.523682 0.565644 0.112537
O1    O     O_R   0.214270 0.709000 0.827470 -0.491166
O2    O     O_R   0.785730 0.709000 0.172530 -0.501090
O3    O     O_R   0.714270 0.209000 0.827470 -0.491166
O4    O     O_R   0.285730 0.209000 0.172530 -0.501089
O5    O     O_R   0.445950 0.919440 0.676520 -0.504935
O6    O     O_R   0.554050 0.919440 0.323480 -0.508217
O7    O     O_R   0.945950 0.419440 0.676520 -0.504938
O8    O     O_R   0.054050 0.419440 0.323480 -0.508206
O9    O     O_R   0.456730 0.717630 0.669840 -0.529847
O10   O     O_R   0.543270 0.717630 0.330160 -0.529082
O11   O     O_R   0.956730 0.217630 0.669840 -0.529855
O12   O     O_R   0.043270 0.217630 0.330160 -0.529093
O13   O     O_R   0.320620 0.625640 0.672920 -0.507489
O14   O     O_R   0.679380 0.625640 0.327080 -0.509906
O15   O     O_R   0.820620 0.125640 0.672920 -0.507483
O16   O     O_R   0.179380 0.125640 0.327080 -0.509905
O17   O     O_3   0.334280 0.834290 0.749180 -0.274831
O18   O     O_3   0.665720 0.834290 0.250820 -0.257394
O19   O     O_3   0.834280 0.334290 0.749180 -0.274823
O20   O     O_3   0.165720 0.334290 0.250820 -0.257410
O21   O     O_R   0.236160 0.958490 0.823130 -0.489511
O22   O     O_R   0.763840 0.958490 0.176870 -0.487369
O23   O     O_R   0.736160 0.458490 0.823130 -0.489509
O24   O     O_R   0.263840 0.458490 0.176870 -0.487381
O25   O     O_R   0.332080 0.075470 0.831280 -0.534593
O26   O     O_R   0.667920 0.075470 0.168720 -0.525940
O27   O     O_R   0.832080 0.575470 0.831280 -0.534584
O28   O     O_R   0.167920 0.575470 0.168720 -0.525950
O29   O     O_R   0.446300 0.918110 0.826620 -0.482262
O30   O     O_R   0.553700 0.918110 0.173380 -0.475955
O31   O     O_R   0.946300 0.418110 0.826620 -0.482258
O32   O     O_R   0.053700 0.418110 0.173380 -0.475973
O33   O     O_R   0.457110 0.716200 0.831760 -0.529680
O34   O     O_R   0.542890 0.716200 0.168240 -0.519605
O35   O     O_R   0.957110 0.216200 0.831760 -0.529681
O36   O     O_R   0.042890 0.216200 0.168240 -0.519610
O37   O     O_R   0.320980 0.624310 0.823030 -0.515778
O38   O     O_R   0.679020 0.624310 0.176970 -0.504589
O39   O     O_R   0.820980 0.124310 0.823030 -0.515778
O40   O     O_R   0.179020 0.124310 0.176970 -0.504603
O41   O     O_R   0.213890 0.710430 0.665540 -0.521062
O42   O     O_R   0.786110 0.710430 0.334460 -0.523003
O43   O     O_R   0.713890 0.210430 0.665540 -0.521062
O44   O     O_R   0.286110 0.210430 0.334460 -0.523000
O45   O     O_R   0.235810 0.959820 0.673020 -0.506464
O46   O     O_R   0.764190 0.959820 0.326980 -0.506078
O47   O     O_R   0.735810 0.459820 0.673020 -0.506465
O48   O     O_R   0.264190 0.459820 0.326980 -0.506080
O49   O     O_R   0.331700 0.076900 0.669350 -0.527870
O50   O     O_R   0.668300 0.076900 0.330650 -0.530390
O51   O     O_R   0.831700 0.576900 0.669350 -0.527872
O52   O     O_R   0.168300 0.576900 0.330650 -0.530382
O53   O     O_3   0.361842 0.856110 0.973653 -0.698074
H41   H     H_    0.358162 0.933818 0.947585 0.334733
O54   O     O_3   0.643107 0.804764 0.026413 -0.688083
H42   H     H_    0.656166 0.879316 0.052924 0.329957
O55   O     O_3   0.861843 0.356097 0.973651 -0.698087
H43   H     H_    0.858156 0.433821 0.947607 0.334747
O56   O     O_3   0.143111 0.304780 0.026406 -0.688047
H44   H     H_    0.156147 0.379266 0.052998 0.329940
O57   O     O_3   0.457438 0.043079 0.054542 -0.703766
H45   H     H_    0.455165 0.099647 0.013504 0.343301
O58   O     O_3   0.576310 0.012892 0.938227 -0.694321
H46   H     H_    0.596029 0.058855 0.979013 0.325078
O59   O     O_3   0.957433 0.543073 0.054544 -0.703778
H47   H     H_    0.955167 0.599647 0.013509 0.343290
O60   O     O_3   0.076308 0.512901 0.938231 -0.694268
H48   H     H_    0.096014 0.558879 0.979024 0.325075
O61   O     O_3   0.163394 0.785037 0.947659 -0.729775
H49   H     H_    0.130456 0.733859 0.919459 0.359480
O62   O     O_3   0.852467 0.746907 0.058209 -0.717934
H50   H     H_    0.876452 0.698314 0.095505 0.378180
O63   O     O_3   0.663392 0.285034 0.947658 -0.729770
H51   H     H_    0.630455 0.233854 0.919460 0.359482
O64   O     O_3   0.352469 0.246903 0.058210 -0.717931
H52   H     H_    0.376452 0.198309 0.095505 0.378182

loop_
_geom_bond_atom_site_label_1
_geom_bond_atom_site_label_2
_ccdc_geom_bond_type
Cr2   O18   S    
C49   H1    S    
C49   C53   A    
C58   C62   A    
C55   C59   A    
C63   H11   S    
C34   C37   A    
C56   H8    S    
C41   C42   A    
C88   O44   A    
Cr1   O21   S    
C35   C36   A    
C86   O14   A    
C6    H18   S    
C93   O53   S    
C5    C94   S    
Cr10  O10   S    
C45   O29   A    
C7    C8    S    
Cr4   O24   S    
Cr7   O19   S    
O53   H41   S    
C15   C19   A    
C7    C96   S    
C10   H22   S    
C50   C54   A    
Cr5   O17   S    
C37   C41   A    
C52   C72   A    
C64   C68   A    
C89   O57   S    
Cr9   O17   S    
O63   H51   S    
C39   C84   S    
C48   O36   A    
C11   H23   S    
Cr2   O46   S    
C5    C6    S    
C30   C74   S    
C53   H5    S    
C41   H37   S    
C56   C60   A    
C95   C99   S    
Cr12  O16   S    
C92   C96   S    
C47   C99   S    
Cr8   O28   S    
C3    C18   S    
C61   H9    S    
C51   C55   A    
C78   O50   A    
Cr1   O45   S    
C83   O11   A    
O64   H52   S    
C9    C13   A    
Cr6   O30   S    
C3    O27   A    
C73   O37   A    
C74   O38   A    
C11   C15   A    
C36   H36   S    
C87   O15   A    
C14   H26   S    
Cr9   O37   S    
C88   O16   A    
C8    H20   S    
C12   H24   S    
Cr1   O17   S    
C23   C27   A    
C91   C100  S    
Cr2   O2    S    
C90   C97   S    
C7    H19   S    
C84   O12   A    
C9    C29   A    
Cr6   O26   S    
Cr4   O20   S    
C5    H17   S    
C46   C98   S    
C11   C31   A    
C45   C97   S    
C96   O56   S    
C49   C69   A    
C12   C32   A    
Cr3   O19   S    
Cr4   O48   S    
C57   C80   S    
C40   C83   S    
C16   H28   S    
C8    C95   S    
C1    O25   A    
C4    O28   A    
Cr12  O12   S    
C75   O39   A    
Cr2   O42   S    
C59   C78   S    
C90   O58   S    
C72   C88   S    
Cr1   O41   S    
C90   C94   S    
C15   H27   S    
C52   H4    S    
C25   C29   A    
C48   C100  S    
Cr5   O5    S    
C60   C77   S    
C23   H31   S    
C81   O5    A    
Cr8   O32   S    
C27   C31   A    
O54   H42   S    
C95   O55   S    
C12   C16   A    
Cr11  O39   S    
C28   C32   A    
Cr11  O11   S    
O62   H50   S    
O55   H43   S    
C10   C14   A    
O60   H48   S    
Cr3   O43   S    
C62   C66   A    
C27   O63   S    
C55   H7    S    
C82   O10   A    
C7    C99   S    
Cr9   O33   S    
O59   H47   S    
O57   H45   S    
C91   C95   S    
Cr10  O38   S    
C51   H3    S    
C66   H14   S    
Cr7   O31   S    
C68   C72   A    
C50   H2    S    
C74   O2    A    
C13   H25   S    
C91   O59   S    
C92   O60   S    
C19   C23   A    
C43   C44   A    
C63   C67   A    
Cr7   O51   S    
O61   H49   S    
C76   O40   A    
C69   C85   S    
C67   H15   S    
Cr6   O50   S    
C6    C98   S    
C10   C30   A    
Cr5   O49   S    
O56   H44   S    
C61   C65   A    
Cr1   O1    S    
C16   C20   A    
C6    C93   S    
C1    O21   A    
C22   H30   S    
Cr3   O23   S    
C33   C34   A    
Cr4   O44   S    
C83   O7    A    
C35   H35   S    
C46   O34   A    
C25   O61   S    
C33   H33   S    
Cr12  O40   S    
C28   O64   S    
C4    C17   S    
C58   C79   S    
C47   O31   A    
C5    C97   S    
C26   C30   A    
Cr9   O13   S    
C79   O51   A    
C54   H6    S    
C38   C81   S    
C22   C26   A    
C68   H16   S    
C71   C87   S    
C37   C82   S    
Cr4   O4    S    
Cr11  O15   S    
C47   O35   A    
C70   C86   S    
C93   C97   S    
C31   C75   S    
C62   H10   S    
C43   H39   S    
C48   O32   A    
Cr12  O36   S    
C54   C58   A    
Cr3   O3    S    
C59   C63   A    
C65   C69   A    
C21   C25   A    
Cr10  O34   S    
C1    C20   S    
C53   C57   A    
C79   O47   A    
Cr7   O27   S    
C2    C19   S    
C18   C22   A    
C81   O9    A    
C14   C18   A    
C36   C39   A    
C9    H21   S    
C94   O54   S    
C24   C28   A    
Cr5   O25   S    
C77   O49   A    
C32   C76   S    
Cr7   O7    S    
C51   C71   A    
C57   C61   A    
C84   O8    A    
Cr8   O8    S    
Cr2   O22   S    
C2    O26   A    
C64   H12   S    
C66   C70   A    
Cr11  O35   S    
C33   C38   A    
C44   H40   S    
C13   C17   A    
C89   C98   S    
C60   C64   A    
C85   O13   A    
C46   O30   A    
Cr8   O20   S    
C35   C40   A    
C50   C70   A    
C87   O43   A    
C3    O23   A    
Cr6   O6    S    
C86   O42   A    
Cr10  O14   S    
C45   O33   A    
C8    C100  S    
Cr12  O20   S    
C24   H32   S    
C82   O6    A    
C96   C100  S    
Cr3   O47   S    
C76   O4    A    
C67   C71   A    
C85   O41   A    
O58   H46   S    
C89   C93   S    
C42   H38   S    
C17   C21   A    
C4    O24   A    
C21   H29   S    
C38   C42   A    
C75   O3    A    
C40   C44   A    
C29   C73   S    
Cr10  O18   S    
Cr8   O52   S    
Cr6   O18   S    
C39   C43   A    
C73   O1    A    
C26   O62   S    
C94   C98   S    
C34   H34   S    
Cr9   O9    S    
C78   O46   A    
Cr5   O29   S    
C89   C90   S    
C80   O52   A    
C77   O45   A    
C20   C24   A    
C2    O22   A    
C91   C92   S    
C52   C56   A    
C92   C99   S    
C65   H13   S    
Cr11  O19   S    
C80   O48   A    
