data_mof_unit_35246.cif
_audit_creation_date              2013-03-05T16:06:02-0500
_audit_creation_method            fapswitch 2.2
_symmetry_space_group_name_H-M    P1
_symmetry_Int_Tables_number       1
_space_group_crystal_system       triclinic
_cell_length_a                    10.755532
_cell_length_b                    9.550887
_cell_length_c                    23.578533
_cell_angle_alpha                 90.238159
_cell_angle_beta                  90.970278
_cell_angle_gamma                 89.764525
_cell_volume                      2421.71377467

loop_
_atom_site_label
_atom_site_type_symbol
_atom_site_description
_atom_site_fract_x
_atom_site_fract_y
_atom_site_fract_z
_atom_type_partial_charge
O1    O     O_R   0.319640 0.618740 0.500000 -0.561531
O2    O     O_R   0.680360 0.381260 0.500000 -0.555600
O3    O     O_R   0.680360 0.618740 0.500000 -0.553233
O4    O     O_R   0.319640 0.381260 0.500000 -0.555770
C1    C     C_R   0.262571 0.500224 0.499712 0.897339
C2    C     C_R   0.737435 0.499789 0.500359 0.906460
O5    O     O_R   0.499960 0.618810 0.417880 -0.566589
O6    O     O_R   0.500040 0.381190 0.582120 -0.554102
O7    O     O_R   0.500040 0.618810 0.582120 -0.576035
O8    O     O_R   0.499960 0.381190 0.417880 -0.531149
C3    C     C_R   0.501543 0.499526 0.390927 0.861718
C4    C     C_R   0.497658 0.500552 0.608972 0.832950
Cu1   Cu    Cu3+1 0.500000 0.640660 0.500000 0.994482
Cu2   Cu    Cu3+1 0.500000 0.359340 0.500000 1.014123
C5    C     C_R   0.599141 0.536598 0.879776 0.579399
C6    C     C_R   0.394627 0.471050 0.119909 0.584648
N1    N     N_R   0.495033 0.492431 0.851714 -0.454144
N2    N     N_R   0.500716 0.508363 0.148042 -0.446386
C7    C     C_R   0.391315 0.451798 0.879367 0.577755
C8    C     C_R   0.605939 0.544375 0.120518 0.570777
C9    C     C_R   0.386548 0.458638 0.939528 -0.045873
C10   C     C_R   0.608729 0.544671 0.060243 -0.045336
C11   C     C_R   0.496259 0.500828 0.969800 -0.101898
C12   C     C_R   0.498322 0.504818 0.029940 -0.099602
C13   C     C_R   0.604149 0.538965 0.939727 -0.052462
C14   C     C_R   0.389820 0.468552 0.059964 -0.051016
C15   C     C_R   0.276686 0.426040 0.970014 0.109961
C16   C     C_R   0.717151 0.582497 0.029637 0.109063
C17   C     C_R   0.279479 0.431148 0.029998 0.166837
C18   C     C_R   0.713805 0.578982 0.969629 0.168296
O9    O     O_2   0.696927 0.578092 0.849006 -0.501987
O10   O     O_2   0.294779 0.435957 0.150620 -0.506752
O11   O     O_2   0.294462 0.404620 0.847857 -0.547946
O12   O     O_2   0.706583 0.578776 0.152306 -0.552692
C19   C     C_R   0.537103 0.382595 0.237214 0.116025
C20   C     C_R   0.438665 0.606580 0.762093 0.172789
C21   C     C_R   0.538532 0.378408 0.297057 0.073278
C22   C     C_R   0.438061 0.611366 0.702550 0.064399
C23   C     C_R   0.503712 0.498959 0.328204 -0.097878
C24   C     C_R   0.494383 0.501240 0.671516 -0.131899
C25   C     C_R   0.470797 0.621964 0.299087 -0.259205
C26   C     C_R   0.547171 0.387494 0.700825 -0.249555
H1    H     H_    0.444676 0.714791 0.322572 0.175227
H2    H     H_    0.590052 0.302689 0.677543 0.178378
C27   C     C_R   0.469867 0.626710 0.239867 0.160533
C28   C     C_R   0.546874 0.381659 0.760000 0.159706
C29   C     C_R   0.502537 0.506203 0.208992 0.352641
C30   C     C_R   0.493349 0.492773 0.790748 0.330740
C31   C     C_R   0.067549 0.447860 0.547311 0.048745
C32   C     C_R   0.932481 0.552416 0.452839 0.051455
C33   C     C_R   0.937250 0.447607 0.547532 0.062572
C34   C     C_R   0.062767 0.552564 0.452601 0.061023
C35   C     C_R   0.871319 0.499515 0.500210 -0.065735
C36   C     C_R   0.128698 0.500572 0.499903 -0.064856
C37   C     C_R   0.419957 0.075072 0.465262 0.189905
C38   C     C_R   0.580018 0.924918 0.534745 0.174186
C39   C     C_R   0.580167 0.074710 0.534670 0.185726
C40   C     C_R   0.419819 0.925273 0.465331 0.179854
N3    N     N_R   0.500000 0.852070 0.500000 -0.162632
N4    N     N_R   0.500000 0.147930 0.500000 -0.160694
C41   C     C_3   0.155575 0.387878 0.939325 -0.764212
H3    H     H_    0.167359 0.287803 0.915889 0.266161
H4    H     H_    0.074864 0.371706 0.966816 0.187596
H5    H     H_    0.127293 0.473739 0.910178 0.262792
C42   C     C_3   0.836731 0.626946 0.060168 -0.767353
H6    H     H_    0.872853 0.539402 0.086612 0.265200
H7    H     H_    0.914223 0.655861 0.032482 0.189076
H8    H     H_    0.818988 0.721494 0.086400 0.262863
N5    N     N_3   0.169711 0.398355 0.061179 -0.517313
H9    H     H_    0.141522 0.296134 0.051704 0.229171
H10   H     H_    0.099377 0.470422 0.051176 0.217718
N6    N     N_3   0.822765 0.614460 0.938350 -0.517378
H11   H     H_    0.895378 0.546078 0.949216 0.217608
H12   H     H_    0.847345 0.718346 0.946833 0.228995
N7    N     N_3   0.570652 0.262196 0.204177 -0.578126
H13   H     H_    0.510915 0.180017 0.213916 0.221788
H14   H     H_    0.661674 0.232862 0.214994 0.225810
N8    N     N_3   0.384117 0.717869 0.794367 -0.568079
H15   H     H_    0.290305 0.726406 0.782487 0.250225
H16   H     H_    0.428379 0.811331 0.783927 0.235286
N9    N     N_3   0.577798 0.253680 0.326126 -0.562621
H17   H     H_    0.520184 0.171032 0.313469 0.209400
H18   H     H_    0.669049 0.230116 0.314778 0.217128
N10   N     N_3   0.376362 0.726681 0.675041 -0.600847
H19   H     H_    0.311689 0.687891 0.645388 0.233732
H20   H     H_    0.442277 0.787595 0.654604 0.244697
C43   C     C_3   0.433732 0.759919 0.209782 -0.829085
H21   H     H_    0.511835 0.795833 0.183389 0.242332
H22   H     H_    0.350918 0.741212 0.182085 0.245479
H23   H     H_    0.410752 0.845070 0.240136 0.216658
C44   C     C_3   0.604100 0.255695 0.788645 -0.800712
H24   H     H_    0.704371 0.249336 0.778435 0.236669
H25   H     H_    0.595613 0.258778 0.835422 0.233149
H26   H     H_    0.557229 0.159290 0.772960 0.225066
N11   N     N_3   0.138978 0.397518 0.595097 -0.601010
H27   H     H_    0.115652 0.456161 0.630921 0.222901
H28   H     H_    0.116272 0.292776 0.602050 0.229072
N12   N     N_3   0.861076 0.603127 0.405111 -0.595824
H29   H     H_    0.884452 0.544809 0.369209 0.225474
H30   H     H_    0.883771 0.707937 0.398309 0.226262
N13   N     N_3   0.870829 0.399122 0.595936 -0.590940
H31   H     H_    0.897635 0.295964 0.604429 0.219790
H32   H     H_    0.895257 0.461324 0.630917 0.225539
N14   N     N_3   0.129176 0.601057 0.404196 -0.588191
H33   H     H_    0.102372 0.704218 0.395709 0.220310
H34   H     H_    0.104729 0.538861 0.369217 0.225750
N15   N     N_3   0.336357 0.151285 0.428856 -0.515452
H35   H     H_    0.245170 0.124452 0.438719 0.191862
H36   H     H_    0.352832 0.122672 0.386831 0.195545
N16   N     N_3   0.663507 0.848700 0.571209 -0.521517
H37   H     H_    0.754731 0.875724 0.561485 0.197259
H38   H     H_    0.646703 0.877061 0.613238 0.187884
N17   N     N_3   0.664851 0.150368 0.570615 -0.514127
H39   H     H_    0.755418 0.122319 0.559769 0.196085
H40   H     H_    0.650386 0.121052 0.612607 0.182142
N18   N     N_3   0.335052 0.849582 0.429427 -0.511952
H41   H     H_    0.244520 0.877908 0.440210 0.195097
H42   H     H_    0.349616 0.878471 0.387396 0.180731

loop_
_geom_bond_atom_site_label_1
_geom_bond_atom_site_label_2
_geom_bond_distance
_ccdc_geom_bond_type
C43   H21   1.110164 S    
N13   H31   1.044649 S    
C15   C17   1.414788 A    
N15   H36   1.044614 S    
N11   H27   1.045086 S    
N1    C30   1.437318 S    
O3    C2    1.289097 A    
C19   C29   1.403327 A    
N2    C29   1.437134 S    
N14   H34   1.045048 S    
N9    H17   1.044963 S    
C23   C25   1.404250 A    
N18   H41   1.044800 S    
O5    C3    1.302411 A    
C19   N7    1.434559 S    
O1    C1    1.289805 A    
C7    C9    1.421518 A    
N10   H20   1.044298 S    
N5    H9    1.045621 S    
N8    H16   1.045629 S    
C5    C13   1.413775 A    
C31   C36   1.402791 A    
C38   C39   1.430659 A    
C41   H4    1.103889 S    
C26   C28   1.396669 A    
N5    H10   1.045312 S    
O7    Cu1   1.948338 S    
N16   H37   1.045017 S    
C15   C41   1.524156 S    
C31   C33   1.401540 A    
C32   C34   1.401403 A    
C11   C12   1.418186 A    
O3    Cu1   1.950275 S    
C8    O12   1.347167 S    
C24   C26   1.402869 A    
C9    C15   1.429521 A    
N13   H32   1.045055 S    
C10   C16   1.430150 A    
Cu1   Cu2   2.686856 S    
C40   N18   1.429920 S    
C25   H1    1.082004 S    
C21   N9    1.435306 S    
O2    C2    1.289933 A    
C26   H2    1.082547 S    
C38   N16   1.431475 S    
N14   H33   1.044648 S    
N9    H18   1.045018 S    
C34   C36   1.402952 A    
C17   N5    1.437639 S    
C27   C29   1.405881 A    
C6    C14   1.413581 A    
C28   C30   1.409238 A    
C32   N12   1.436339 S    
C32   C35   1.402802 A    
C1    C36   1.439950 S    
N10   H19   1.045667 S    
N6    H12   1.045508 S    
C7    O11   1.347239 S    
C44   H24   1.110354 S    
N8    H15   1.045524 S    
O4    C1    1.289172 A    
C39   N4    1.369922 A    
C39   N17   1.429763 S    
C28   C44   1.506312 S    
C42   H7    1.104040 S    
C40   N3    1.369914 A    
C37   N15   1.431386 S    
C33   C35   1.403053 A    
C4    C24   1.475697 S    
C41   H5    1.110345 S    
N7    H13   1.045092 S    
C44   H25   1.108496 S    
O6    C4    1.302090 A    
C42   H8    1.110118 S    
C31   N11   1.436344 S    
C3    C23   1.479480 S    
N7    H14   1.044919 S    
C8    C10   1.422028 A    
N12   H29   1.045064 S    
N12   H30   1.045003 S    
C9    C11   1.427319 A    
O8    Cu2   1.948337 S    
C10   C12   1.427663 A    
C37   C40   1.430728 A    
O1    Cu1   1.951987 S    
N15   H35   1.044974 S    
C19   C21   1.411562 A    
N17   H39   1.044864 S    
C13   C18   1.416847 A    
C5    N1    1.358679 A    
C34   N14   1.435969 S    
O6    Cu2   1.946613 S    
C27   C43   1.505654 S    
C12   C14   1.419981 A    
N6    H11   1.045257 S    
C18   N6    1.437629 S    
N11   H28   1.044987 S    
C5    O9    1.349538 S    
Cu1   N3    2.019153 S    
C6    O10   1.349554 S    
Cu2   N4    2.019154 S    
C38   N3    1.368302 A    
C16   C18   1.415013 A    
C16   C42   1.524205 S    
C22   N10   1.435077 S    
C21   C23   1.415620 A    
C20   N8    1.433996 S    
C44   H26   1.110585 S    
C22   C24   1.418471 A    
C20   C22   1.404767 A    
N1    C7    1.360311 A    
N18   H42   1.044367 S    
C20   C30   1.404025 A    
N2    C8    1.360228 A    
C11   C13   1.419673 A    
O4    Cu2   1.950277 S    
C41   H3    1.109938 S    
O2    Cu2   1.951986 S    
O7    C4    1.297669 A    
N16   H38   1.044755 S    
O8    C3    1.299246 A    
O5    Cu1   1.946613 S    
C14   C17   1.417134 A    
C6    N2    1.358214 A    
C42   H6    1.110080 S    
C43   H23   1.110954 S    
C43   H22   1.110130 S    
C25   C27   1.397102 A    
C2    C35   1.440051 S    
C37   N4    1.368416 A    
C33   N13   1.435991 S    
N17   H40   1.044419 S    
