data_mof_unit_68036.cif
_audit_creation_date              2012-12-11T14:37:38-0500
_audit_creation_method            fapswitch 2.2
_symmetry_space_group_name_H-M    P1
_symmetry_Int_Tables_number       1
_space_group_crystal_system       triclinic
_cell_length_a                    14.519519
_cell_length_b                    15.879542
_cell_length_c                    7.026783
_cell_angle_alpha                 89.808387
_cell_angle_beta                  79.60451
_cell_angle_gamma                 89.973026
_cell_volume                      1593.5162883

loop_
_atom_site_label
_atom_site_type_symbol
_atom_type_description
_atom_site_fract_x
_atom_site_fract_y
_atom_site_fract_z
_atom_type_partial_charge
O1    O     O_R   0.337080 0.165770 0.524980 -0.538315
O2    O     O_R   0.662920 0.834230 0.475020 -0.541470
O3    O     O_R   0.662920 0.665770 0.475020 -0.528232
O4    O     O_R   0.337080 0.334230 0.524980 -0.549418
O5    O     O_R   0.348340 0.341430 0.191390 -0.559979
O6    O     O_R   0.651660 0.658570 0.808610 -0.547876
O7    O     O_R   0.651660 0.841430 0.808610 -0.544562
O8    O     O_R   0.348340 0.158570 0.191390 -0.529744
O9    O     O_R   0.165780 0.339950 0.082750 -0.541653
O10   O     O_R   0.834220 0.660050 0.917250 -0.535108
O11   O     O_R   0.834220 0.839950 0.917250 -0.537202
O12   O     O_R   0.165780 0.160050 0.082750 -0.530855
C1    C     C_R   0.369768 0.364335 0.354627 0.671839
C2    C     C_R   0.630271 0.635593 0.645314 0.642722
C3    C     C_R   0.630188 0.864324 0.645006 0.707667
C4    C     C_R   0.369760 0.135691 0.355015 0.648295
O13   O     O_3   0.191540 0.250000 0.407620 -0.365852
O14   O     O_3   0.808460 0.750000 0.592380 -0.373409
V1    V     V_3+5 0.262540 0.250000 0.108780 1.453459
V2    V     V_3+5 0.737460 0.750000 0.891220 1.478536
O15   O     O_R   0.154530 0.164290 0.756910 -0.529139
O16   O     O_R   0.845470 0.835710 0.243090 -0.533874
O17   O     O_R   0.845470 0.664290 0.243090 -0.531721
O18   O     O_R   0.154530 0.335710 0.756910 -0.531730
C5    C     C_R   0.133747 0.132753 0.933180 0.791247
C6    C     C_R   0.865917 0.867464 0.067091 0.766672
C7    C     C_R   0.865932 0.632569 0.067383 0.777694
C8    C     C_R   0.133303 0.366963 0.933121 0.740877
V3    V     V_3+5 0.240320 0.250000 0.616280 1.438610
V4    V     V_3+5 0.759680 0.750000 0.383720 1.460595
O19   O     O_3   0.311330 0.250000 0.867310 -0.387061
O20   O     O_3   0.688670 0.750000 0.132690 -0.384880
C9    C     C_3   0.076511 0.525889 0.056213 0.438099
C10   C     C_3   0.921252 0.473084 0.945400 0.440750
C11   C     C_3   0.922211 0.027257 0.944783 0.443329
C12   C     C_3   0.076997 0.973210 0.056433 0.455053
C13   C     C_3   0.032664 0.569126 0.895799 -0.406112
C14   C     C_3   0.965298 0.429631 0.105579 -0.407467
C15   C     C_3   0.966327 0.069784 0.105227 -0.407119
C16   C     C_3   0.033019 0.930641 0.895882 -0.408050
H1    H     H_    0.058658 0.625728 0.809511 0.153773
H2    H     H_    0.939188 0.372941 0.191425 0.159297
H3    H     H_    0.940739 0.126297 0.191301 0.169109
H4    H     H_    0.058853 0.874135 0.809947 0.153280
C17   C     C_3   0.935311 0.561266 0.029752 -0.251507
C18   C     C_3   0.062874 0.437638 0.971634 -0.241880
C19   C     C_3   0.063822 0.061770 0.971636 -0.255106
C20   C     C_3   0.935510 0.938655 0.029281 -0.250658
C21   C     C_3   0.979744 0.518355 0.187135 0.420310
C22   C     C_3   0.018141 0.480436 0.814273 0.423115
C23   C     C_3   0.019083 0.019664 0.814027 0.414471
C24   C     C_3   0.980153 0.980754 0.186943 0.413569
C25   C     C_2   0.491102 0.500053 0.514335 -0.039160
C26   C     C_2   0.362258 0.694640 0.464639 0.009326
C27   C     C_2   0.431786 0.963373 0.579168 0.057778
C28   C     C_2   0.617834 0.106214 0.357337 0.138250
C29   C     C_2   0.419135 0.555446 0.557701 0.328301
C30   C     C_2   0.401492 0.619082 0.411843 0.386036
C31   C     C_2   0.506257 0.993165 0.452257 0.258678
C32   C     C_2   0.565220 0.063617 0.504036 0.313893
I1    I     I_    0.329892 0.750078 0.739991 -0.543855
I2    I     I_    0.592901 0.488913 0.256522 -0.418141
I3    I     I_    0.720922 0.198527 0.378174 -0.564898
I4    I     I_    0.376059 0.001375 0.864453 -0.364123
O21   O     O_3   0.416204 0.595062 0.218457 -0.568081
C33   C     C_3   0.455731 0.661665 0.096766 -0.166872
H5    H     H_    0.521388 0.684707 0.139097 0.151298
H6    H     H_    0.405436 0.714376 0.097763 0.145988
H7    H     H_    0.472950 0.638283 0.946619 0.190073
O22   O     O_3   0.357268 0.554360 0.735722 -0.556772
C34   C     C_3   0.373860 0.488139 0.860406 -0.110126
H8    H     H_    0.446169 0.490442 0.891865 0.150623
H9    H     H_    0.359966 0.426165 0.799648 0.128696
H10   H     H_    0.325101 0.494836 0.999936 0.220388
O23   O     O_3   0.577929 0.073392 0.694195 -0.546237
C35   C     C_3   0.547561 0.153913 0.765657 -0.094386
H11   H     H_    0.514697 0.147357 0.920134 0.176128
H12   H     H_    0.494912 0.183749 0.689249 0.123301
H13   H     H_    0.608280 0.196414 0.762074 0.151288
O24   O     O_3   0.529566 0.961986 0.262901 -0.550196
C36   C     C_3   0.482723 0.886325 0.233305 -0.123150
H14   H     H_    0.405862 0.896416 0.250504 0.149590
H15   H     H_    0.498679 0.835752 0.332222 0.120909
H16   H     H_    0.507517 0.864817 0.083088 0.175283
O25   O     O_3   0.160173 0.550225 0.115638 -0.560192
C37   C     C_3   0.158850 0.637682 0.148589 -0.227225
H17   H     H_    0.095677 0.657555 0.253048 0.137970
H18   H     H_    0.163108 0.672800 0.010767 0.172740
H19   H     H_    0.221198 0.654713 0.210936 0.187592
O26   O     O_3   0.836679 0.450435 0.887017 -0.550068
C38   C     C_3   0.832615 0.362352 0.867646 -0.236296
H20   H     H_    0.818655 0.331694 0.012257 0.172494
H21   H     H_    0.897515 0.336469 0.778021 0.140105
H22   H     H_    0.773397 0.346733 0.793950 0.181527
O27   O     O_3   0.837987 0.052075 0.887646 -0.545463
C39   C     C_3   0.841114 0.139080 0.846865 -0.218192
H23   H     H_    0.902672 0.156300 0.734991 0.150595
H24   H     H_    0.841487 0.176426 0.979581 0.154081
H25   H     H_    0.777127 0.156541 0.790708 0.197236
O28   O     O_3   0.160609 0.948544 0.116184 -0.544303
C40   C     C_3   0.158653 0.861147 0.151646 -0.231139
H26   H     H_    0.162081 0.825701 0.014968 0.167141
H27   H     H_    0.095588 0.841882 0.257443 0.141376
H28   H     H_    0.221199 0.843857 0.213575 0.172963
O29   O     O_3   0.957484 0.543823 0.381620 -0.547048
C41   C     C_3   0.869280 0.510556 0.465908 -0.029718
H29   H     H_    0.876416 0.443396 0.504364 0.167886
H30   H     H_    0.815853 0.515584 0.371136 0.106467
H31   H     H_    0.842268 0.546762 0.598711 0.179668
O30   O     O_3   0.040796 0.454939 0.619849 -0.543814
C42   C     C_3   0.129040 0.488446 0.536238 -0.027628
H32   H     H_    0.155976 0.453073 0.402157 0.172959
H33   H     H_    0.182575 0.482868 0.630599 0.104515
H34   H     H_    0.121999 0.555835 0.500461 0.160050
O31   O     O_3   0.041535 0.045291 0.619208 -0.546643
C43   C     C_3   0.129647 0.011817 0.535507 -0.031429
H35   H     H_    0.122580 0.944372 0.501274 0.159405
H36   H     H_    0.183406 0.017698 0.629155 0.102337
H37   H     H_    0.156194 0.047001 0.400413 0.181805
O32   O     O_3   0.957870 0.954905 0.381629 -0.549359
C44   C     C_3   0.869703 0.988118 0.465670 -0.014721
H38   H     H_    0.843644 0.953263 0.601459 0.177442
H39   H     H_    0.815737 0.981711 0.372634 0.099555
H40   H     H_    0.876524 0.055647 0.498921 0.173114

loop_
_geom_bond_atom_site_label_1
_geom_bond_atom_site_label_2
_ccdc_geom_bond_type
O10   C7    A    
C33   H6    S    
C40   H26   S    
C27   C31   D    
O13   V3    S    
C42   H32   S    
C35   H13   S    
V1    O19   S    
C36   H14   S    
O26   C38   S    
C14   C21   S    
O25   C37   S    
C8    C18   S    
C35   H12   S    
C14   H2    S    
C20   C24   S    
V2    O20   S    
C37   H18   S    
C33   H7    S    
O6    C2    A    
C41   H29   S    
C9    C21   S    
O31   C43   S    
C39   H25   S    
C22   O30   S    
C43   H35   S    
C12   C19   S    
O4    C1    A    
C9    O25   S    
O18   V3    S    
C44   H40   S    
O30   C42   S    
O9    V1    S    
O27   C39   S    
O10   V2    S    
C39   H24   S    
O22   C34   S    
O14   V4    S    
O17   C7    A    
C29   O22   S    
C5    C19   S    
O5    C1    A    
O4    V3    S    
C12   C24   S    
C6    C20   S    
C7    C17   S    
O7    C3    A    
C15   C24   S    
C31   C32   S    
C40   H27   S    
C39   H23   S    
C9    C18   S    
C11   C20   S    
C36   H15   S    
O11   V2    S    
C10   C22   S    
O8    V1    S    
C14   C18   S    
O17   V4    S    
C12   C16   S    
C35   H11   S    
C42   H33   S    
C38   H20   S    
C10   C17   S    
C25   C29   D    
C37   H17   S    
C15   H3    S    
O11   C6    A    
O15   V3    S    
C9    C13   S    
C28   C32   D    
O3    V4    S    
C11   C15   S    
O23   C35   S    
C10   O26   S    
C38   H21   S    
C25   I2    S    
C30   O21   S    
C17   C21   S    
C27   I4    S    
O1    V3    S    
C28   I3    S    
C12   O28   S    
O1    C4    A    
O2    C3    A    
C44   H38   S    
O3    C2    A    
C24   O32   S    
O7    V2    S    
C40   H28   S    
C11   C23   S    
C13   C17   S    
C36   H16   S    
O32   C44   S    
C15   C19   S    
C26   C30   D    
C16   C20   S    
O15   C5    A    
O16   V4    S    
C10   C14   S    
C21   O29   S    
O18   C8    A    
O24   C36   S    
C37   H19   S    
C31   O24   S    
C34   H10   S    
C19   C23   S    
O5    V1    S    
C26   I1    S    
C11   O27   S    
C16   C23   S    
O6    V2    S    
O29   C41   S    
C18   C22   S    
C32   O23   S    
C43   H37   S    
O12   C5    A    
O2    V4    S    
C34   H8    S    
V3    O19   S    
C38   H22   S    
V4    O20   S    
C13   C22   S    
C29   C30   S    
C41   H30   S    
O12   V1    S    
O28   C40   S    
O13   V1    S    
C43   H36   S    
C33   H5    S    
C42   H34   S    
O14   V2    S    
C13   H1    S    
C23   O31   S    
C44   H39   S    
C16   H4    S    
O8    C4    A    
O21   C33   S    
O16   C6    A    
C34   H9    S    
O9    C8    A    
C41   H31   S    
