data_mof_unit_26856.cif
_audit_creation_date              2012-10-26T19:07:58-0400
_audit_creation_method            fapswitch 2.2
_symmetry_space_group_name_H-M    P1
_symmetry_Int_Tables_number       1
_space_group_crystal_system       triclinic
_cell_length_a                    15.082006
_cell_length_b                    13.675369
_cell_length_c                    19.325578
_cell_angle_alpha                 90.019593
_cell_angle_beta                  89.956652
_cell_angle_gamma                 89.749668
_cell_volume                      3985.89963923

loop_
_atom_site_label
_atom_site_type_symbol
_atom_type_description
_atom_site_fract_x
_atom_site_fract_y
_atom_site_fract_z
_atom_type_partial_charge
C1    C     C_R   0.328486 0.500152 0.500162 0.552696
C2    C     C_R   0.093134 0.410839 0.513262 0.013996
C3    C     C_R   0.953021 0.325807 0.525297 -0.114463
C4    C     C_R   0.046977 0.674172 0.474618 -0.114429
C5    C     C_R   0.046160 0.322782 0.526427 0.001737
C6    C     C_R   0.953838 0.677191 0.473470 0.001708
C7    C     C_R   0.438046 0.793578 0.538022 0.030075
C8    C     C_R   0.562020 0.206416 0.462051 0.030016
C9    C     C_R   0.562030 0.792945 0.462057 0.031460
C10   C     C_R   0.438013 0.207057 0.537991 0.031196
C11   C     C_R   0.563763 0.896023 0.461387 -0.016476
C12   C     C_R   0.671514 0.499847 0.499830 0.552711
C13   C     C_R   0.436342 0.103975 0.538733 -0.016464
C14   C     C_R   0.436376 0.896690 0.538773 -0.017298
C15   C     C_R   0.563743 0.103304 0.461362 -0.017504
C16   C     C_R   0.500065 0.948164 0.500075 0.054103
C17   C     C_R   0.500051 0.051832 0.500059 0.054023
C18   C     C_R   0.627358 0.947940 0.423110 -0.151026
C19   C     C_R   0.372799 0.052055 0.577063 -0.150760
C20   C     C_R   0.372832 0.949301 0.577102 -0.150755
C21   C     C_R   0.627339 0.050692 0.423087 -0.150873
C22   C     C_R   0.500106 0.499989 0.367215 0.548546
C23   C     C_R   0.814950 0.413180 0.511613 -0.140987
C24   C     C_R   0.499866 0.500015 0.632772 0.548230
C25   C     C_R   0.509491 0.587846 0.254646 -0.130356
C26   C     C_R   0.490104 0.412257 0.745346 -0.131029
C27   C     C_R   0.508720 0.587891 0.745379 -0.130688
C28   C     C_R   0.491251 0.412145 0.254574 -0.130608
C29   C     C_R   0.510097 0.589180 0.182225 -0.011495
C30   C     C_R   0.489304 0.411029 0.817747 -0.011276
C31   C     C_R   0.509300 0.589155 0.817778 -0.011469
C32   C     C_R   0.490613 0.410886 0.182151 -0.012208
C33   C     C_R   0.500296 0.500059 0.145553 0.057961
C34   C     C_R   0.185048 0.586812 0.488347 -0.140985
C35   C     C_R   0.499322 0.500090 0.854359 0.054816
C36   C     C_R   0.500292 0.499986 0.291056 -0.015810
C37   C     C_R   0.499574 0.500053 0.708901 -0.016746
C38   C     C_R   0.499544 0.500060 0.930063 0.319785
C39   C     C_R   0.500068 0.500121 0.069692 0.321792
C40   C     C_R   0.813884 0.586940 0.487154 -0.142870
C41   C     C_R   0.186114 0.413044 0.512778 -0.142882
C42   C     C_R   0.768284 0.499826 0.499482 -0.012513
C43   C     C_R   0.231715 0.500167 0.500482 -0.012620
C44   C     C_3   0.523413 0.686379 0.145892 -0.255609
C45   C     C_R   0.907235 0.412968 0.512137 -0.003683
C46   C     C_3   0.618408 0.695930 0.118365 -0.292083
C47   C     C_3   0.631116 0.792656 0.080390 -0.456465
C48   C     C_3   0.475102 0.313737 0.853698 -0.251586
C49   C     C_3   0.560074 0.251805 0.852316 -0.287199
C50   C     C_3   0.546853 0.154325 0.889259 -0.455859
C51   C     C_3   0.523303 0.686485 0.853756 -0.250729
C52   C     C_3   0.438159 0.748133 0.852598 -0.288519
C53   C     C_3   0.451173 0.845626 0.889605 -0.455596
C54   C     C_3   0.477233 0.313729 0.145746 -0.255859
C55   C     C_3   0.382134 0.304150 0.118543 -0.290229
C56   C     C_R   0.092763 0.587015 0.487794 -0.003734
C57   C     C_3   0.369325 0.207484 0.080485 -0.456121
C58   C     C_3   0.096383 0.227712 0.541547 -0.257000
C59   C     C_3   0.039696 0.137324 0.557581 -0.302930
C60   C     C_3   0.098000 0.048224 0.572532 -0.456500
C61   C     C_3   0.903615 0.772250 0.458317 -0.257081
C62   C     C_3   0.960305 0.862627 0.442255 -0.302941
C63   C     C_3   0.902004 0.951715 0.427265 -0.456386
C64   C     C_R   0.953580 0.500600 0.499681 0.043426
C65   C     C_R   0.046418 0.499380 0.500238 0.043400
C66   C     C_R   0.906864 0.589140 0.486653 0.014004
Cu1   Cu    Cu3+1 0.500000 0.597420 0.500000 0.927855
Cu2   Cu    Cu3+1 0.500000 0.402580 0.500000 0.927578
H1    H     H_    0.517506 0.655804 0.282773 0.125412
H2    H     H_    0.085314 0.739440 0.465197 0.100921
H3    H     H_    0.389884 0.752847 0.567787 0.119296
H4    H     H_    0.610193 0.247141 0.432295 0.120113
H5    H     H_    0.610197 0.751751 0.432271 0.114224
H6    H     H_    0.389836 0.248254 0.567764 0.114218
H7    H     H_    0.677073 0.909109 0.393203 0.096640
H8    H     H_    0.323099 0.090885 0.606985 0.096352
H9    H     H_    0.323156 0.911026 0.607072 0.099893
H10   H     H_    0.677048 0.088965 0.393150 0.100889
H11   H     H_    0.586025 0.796890 0.035077 0.150674
H12   H     H_    0.482137 0.344088 0.717438 0.126917
H13   H     H_    0.617437 0.855140 0.115615 0.148807
H14   H     H_    0.700577 0.797977 0.061735 0.144736
H15   H     H_    0.665857 0.692101 0.162300 0.160361
H16   H     H_    0.634032 0.635311 0.082095 0.190436
H17   H     H_    0.474714 0.695202 0.103333 0.171446
H18   H     H_    0.510464 0.747827 0.182322 0.130098
H19   H     H_    0.530379 0.166774 0.944583 0.152333
H20   H     H_    0.492658 0.112271 0.864391 0.147225
H21   H     H_    0.608900 0.110510 0.886347 0.142086
H22   H     H_    0.579956 0.237157 0.797871 0.158333
H23   H     H_    0.516678 0.656062 0.717499 0.130356
H24   H     H_    0.614633 0.292216 0.878136 0.189602
H25   H     H_    0.452929 0.323609 0.908056 0.163540
H26   H     H_    0.420851 0.273711 0.827109 0.130005
H27   H     H_    0.467926 0.833183 0.944859 0.152795
H28   H     H_    0.505114 0.887947 0.864587 0.148020
H29   H     H_    0.388957 0.889169 0.886962 0.140814
H30   H     H_    0.418157 0.762753 0.798203 0.154616
H31   H     H_    0.383752 0.707519 0.878496 0.189117
H32   H     H_    0.545607 0.676675 0.908054 0.163650
H33   H     H_    0.577397 0.726709 0.827079 0.133676
H34   H     H_    0.483291 0.344154 0.282644 0.128593
H35   H     H_    0.414180 0.203406 0.034975 0.149939
H36   H     H_    0.383252 0.144944 0.115554 0.150313
H37   H     H_    0.299776 0.202116 0.062119 0.144888
H38   H     H_    0.334856 0.307873 0.162650 0.164259
H39   H     H_    0.366325 0.364816 0.082410 0.190091
H40   H     H_    0.525775 0.304998 0.103009 0.170722
H41   H     H_    0.490368 0.252243 0.182059 0.129651
H42   H     H_    0.138854 0.029539 0.526487 0.153334
H43   H     H_    0.142362 0.062826 0.617183 0.147519
H44   H     H_    0.055507 0.984694 0.585412 0.139609
H45   H     H_    0.775725 0.652638 0.477688 0.115963
H46   H     H_    0.997564 0.151743 0.603730 0.161416
H47   H     H_    0.996658 0.120159 0.512605 0.157324
H48   H     H_    0.138721 0.210238 0.496011 0.143575
H49   H     H_    0.140148 0.240463 0.586930 0.136870
H50   H     H_    0.857669 0.937088 0.382602 0.147774
H51   H     H_    0.861124 0.970418 0.473292 0.153140
H52   H     H_    0.944500 0.015244 0.414386 0.139852
H53   H     H_    0.003333 0.879824 0.487230 0.157271
H54   H     H_    0.002446 0.848173 0.396116 0.161768
H55   H     H_    0.859853 0.759468 0.412936 0.136761
H56   H     H_    0.224272 0.347344 0.522240 0.116029
H57   H     H_    0.861273 0.789756 0.503845 0.143554
H58   H     H_    0.779374 0.345802 0.521356 0.122423
H59   H     H_    0.220625 0.654195 0.478622 0.122750
H60   H     H_    0.914683 0.260539 0.534719 0.100716
N1    N     N_R   0.567268 0.457275 0.034050 -0.254491
N2    N     N_R   0.432383 0.543011 0.965634 -0.246781
N3    N     N_R   0.566973 0.457151 0.965249 -0.245935
N4    N     N_R   0.432601 0.542935 0.034435 -0.253727
N5    N     N_R   0.500000 0.743810 0.500000 -0.237772
N6    N     N_R   0.500000 0.256190 0.500000 -0.237970
O1    O     O_R   0.370260 0.582280 0.500020 -0.508351
O2    O     O_R   0.629740 0.417720 0.499980 -0.508491
O3    O     O_R   0.629740 0.582280 0.499980 -0.509518
O4    O     O_R   0.370260 0.417720 0.500020 -0.509483
O5    O     O_R   0.499990 0.582300 0.400140 -0.503166
O6    O     O_R   0.500010 0.417700 0.599860 -0.503605
O7    O     O_R   0.500010 0.582300 0.599860 -0.502597
O8    O     O_R   0.499990 0.417700 0.400140 -0.502231

loop_
_geom_bond_atom_site_label_1
_geom_bond_atom_site_label_2
_ccdc_geom_bond_type
C57   H37   S    
C11   C18   A    
C34   C56   A    
C18   H7    S    
C23   C45   A    
C53   H27   S    
C18   C21   A    
Cu1   O1    S    
C19   C20   A    
C47   H11   S    
C49   H22   S    
C2    C65   A    
C4    H2    S    
C24   O6    A    
C6    C66   A    
C33   C39   S    
C23   C42   A    
C48   H26   S    
C5    C58   S    
C38   N2    A    
C41   H56   S    
C30   C48   S    
C19   H8    S    
Cu1   N5    S    
C7    N5    A    
C7    H3    S    
C39   N4    A    
C2    C41   A    
C56   C65   A    
C29   C33   A    
C47   H14   S    
C12   C42   S    
C54   C55   S    
Cu2   O4    S    
C1    C43   S    
C7    C14   A    
C16   C17   A    
C21   H10   S    
Cu2   O8    S    
Cu1   O5    S    
C50   H20   S    
C40   C42   A    
C59   C60   S    
C40   C66   A    
C4    C56   A    
C53   H28   S    
C58   H48   S    
C41   C43   A    
C9    H5    S    
C44   H18   S    
C32   C54   S    
C44   C46   S    
C25   C29   A    
C57   H35   S    
C8    H4    S    
C48   H25   S    
C13   C19   A    
C55   H38   S    
C27   C31   A    
Cu1   Cu2   S    
C14   C20   A    
Cu2   O2    S    
C35   C38   S    
C4    C6    A    
C63   H50   S    
C3    H60   S    
C34   H59   S    
C39   N1    A    
C53   H29   S    
C58   C59   S    
C8    N6    A    
C22   O5    A    
C3    C45   A    
C58   H49   S    
C26   H12   S    
C51   C52   S    
C54   H41   S    
C55   H39   S    
C64   C66   A    
N2    N4    A    
C62   C63   S    
C60   H44   S    
C63   H51   S    
C11   C16   A    
C50   H21   S    
C40   H45   S    
C28   C32   A    
C24   O7    A    
C22   O8    A    
C24   C37   S    
C27   H23   S    
C9    C11   A    
C50   H19   S    
C23   H58   S    
C46   H16   S    
C20   H9    S    
C48   C49   S    
C26   C30   A    
C8    C15   A    
C55   C57   S    
C29   C44   S    
C31   C35   A    
Cu2   O6    S    
C2    C5    A    
C25   H1    S    
C49   H24   S    
C44   H17   S    
Cu1   O7    S    
C62   H54   S    
C22   C36   S    
C52   C53   S    
C6    C61   S    
C51   H32   S    
C15   C17   A    
C57   H36   S    
C46   C47   S    
C45   C64   A    
C34   C43   A    
C10   N6    A    
C31   C51   S    
C3    C5    A    
C10   C13   A    
C26   C37   A    
C54   H40   S    
C51   H33   S    
C30   C35   A    
C52   H31   S    
C13   C17   A    
C61   H55   S    
C32   C33   A    
Cu2   N6    S    
C60   H43   S    
C38   N3    A    
C63   H52   S    
C10   H6    S    
C27   C37   A    
C59   H46   S    
C64   C65   A    
C52   H30   S    
C14   C16   A    
C47   H13   S    
C61   C62   S    
Cu1   O3    S    
C60   H42   S    
C25   C36   A    
C46   H15   S    
C28   H34   S    
C15   C21   A    
C28   C36   A    
C59   H47   S    
C49   C50   S    
C12   O2    A    
C12   O3    A    
C61   H57   S    
C1    O1    A    
C62   H53   S    
C1    O4    A    
N1    N3    A    
C9    N5    A    
