data_mof_unit_48236.cif
_audit_creation_date              2012-12-10T19:12:19-0500
_audit_creation_method            fapswitch 2.2
_symmetry_space_group_name_H-M    P1
_symmetry_Int_Tables_number       1
_space_group_crystal_system       triclinic
_cell_length_a                    7.812886
_cell_length_b                    9.089104
_cell_length_c                    17.055516
_cell_angle_alpha                 89.556498
_cell_angle_beta                  92.177427
_cell_angle_gamma                 90.043406
_cell_volume                      1210.23769511

loop_
_atom_site_label
_atom_site_type_symbol
_atom_type_description
_atom_site_fract_x
_atom_site_fract_y
_atom_site_fract_z
_atom_type_partial_charge
C1    C     C_R   0.499940 0.220132 0.499958 0.840866
C2    C     C_R   0.500069 0.779850 0.500206 0.838015
C3    C     C_R   0.518750 0.498171 0.651740 0.829462
C4    C     C_R   0.481780 0.503714 0.349172 0.836102
C5    C     C_R   0.521219 0.493355 0.738668 -0.159473
C6    C     C_R   0.480717 0.512060 0.263972 -0.143525
C7    C     C_R   0.363705 0.503414 0.775151 -0.336587
C8    C     C_R   0.548756 0.392993 0.224359 -0.344528
C9    C     C_R   0.354737 0.501491 0.856526 0.146565
C10   C     C_R   0.577465 0.402602 0.144344 0.190822
C11   C     C_R   0.502548 0.473158 0.902672 0.285920
C12   C     C_R   0.540101 0.534966 0.103664 0.278436
C13   C     C_R   0.661269 0.456901 0.868037 0.341766
C14   C     C_R   0.472163 0.655807 0.142679 0.319074
C15   C     C_R   0.673323 0.478432 0.786238 0.099541
C16   C     C_R   0.443225 0.645379 0.223937 0.122464
C17   C     C_1   0.499947 0.065389 0.500062 -0.183941
C18   C     C_1   0.500063 0.934578 0.500177 -0.182356
Cu1   Cu    Cu3+1 0.669080 0.500010 0.500000 0.988411
Cu2   Cu    Cu3+1 0.330920 0.499990 0.500000 0.990357
H1    H     H_    0.583672 0.293104 0.256286 0.165626
H2    H     H_    0.246401 0.516493 0.740312 0.191920
N1    N     N_1   0.076820 0.499970 0.500010 -0.052532
N2    N     N_1   0.923180 0.500030 0.499990 -0.051826
N3    N     N_2   0.486711 0.454176 0.984085 -0.177372
N4    N     N_2   0.567206 0.549042 0.022590 -0.140095
O1    O     O_R   0.642760 0.288400 0.500000 -0.578822
O2    O     O_R   0.357240 0.711600 0.500000 -0.578057
O3    O     O_R   0.357190 0.288380 0.500000 -0.574202
O4    O     O_R   0.642810 0.711620 0.500000 -0.581815
O5    O     O_R   0.658410 0.498660 0.613920 -0.584275
O6    O     O_R   0.341590 0.501340 0.386080 -0.586284
O7    O     O_R   0.372840 0.498650 0.613930 -0.589603
O8    O     O_R   0.627160 0.501350 0.386070 -0.576126
N5    N     N_2   0.652977 0.282245 0.105666 -0.378197
H3    H     H_    0.765456 0.247362 0.133479 0.255706
C19   C     C_3   0.537174 0.160757 0.089980 -0.595279
H4    H     H_    0.495913 0.110833 0.145831 0.205637
H5    H     H_    0.603140 0.075524 0.055956 0.245741
H6    H     H_    0.422357 0.198434 0.055067 0.244994
N6    N     N_2   0.194921 0.524241 0.891915 -0.418069
H7    H     H_    0.090590 0.512920 0.854179 0.287993
C20   C     C_3   0.182947 0.651219 0.942492 -0.521712
H8    H     H_    0.074614 0.722664 0.922043 0.199634
H9    H     H_    0.301544 0.719040 0.943236 0.239457
H10   H     H_    0.159091 0.613380 0.003127 0.252738
O9    O     O_3   0.801074 0.417901 0.915345 -0.691070
H11   H     H_    0.880130 0.361100 0.883128 0.332609
O10   O     O_3   0.434655 0.781361 0.099054 -0.749064
H12   H     H_    0.366882 0.849961 0.130217 0.351974
N7    N     N_2   0.837914 0.496898 0.754811 -0.452400
H13   H     H_    0.867081 0.425249 0.710785 0.275298
C21   C     C_3   0.883219 0.649215 0.740356 -0.638614
H14   H     H_    0.010538 0.655689 0.714105 0.214840
H15   H     H_    0.888074 0.710940 0.796357 0.229274
H16   H     H_    0.788664 0.702853 0.699156 0.235480
N8    N     N_2   0.386454 0.770899 0.265327 -0.443788
H17   H     H_    0.305944 0.747965 0.310325 0.270907
C22   C     C_3   0.521562 0.872683 0.288094 -0.701415
H18   H     H_    0.465045 0.971976 0.314415 0.224284
H19   H     H_    0.593733 0.907724 0.236285 0.245446
H20   H     H_    0.611435 0.820409 0.331985 0.233663

loop_
_geom_bond_atom_site_label_1
_geom_bond_atom_site_label_2
_ccdc_geom_bond_type
C2    O2    A    
C20   H8    S    
C19   H4    S    
C15   N7    S    
C9    N6    S    
C2    C18   S    
C7    H2    S    
C20   H9    S    
N6    H7    S    
C1    C17   S    
Cu1   Cu2   S    
Cu2   N1    S    
C2    O4    A    
Cu1   O5    S    
O10   H12   S    
C1    O3    A    
C17   C18   T    
C3    C5    S    
C22   H18   S    
C19   H5    S    
C21   H14   S    
C3    O5    A    
C16   N8    S    
N6    C20   S    
C9    C11   A    
N8    H17   S    
C4    O6    A    
C10   C12   A    
Cu2   O7    S    
C8    C10   A    
N5    C19   S    
C12   C14   A    
Cu1   N2    S    
C19   H6    S    
C4    O8    A    
Cu2   O3    S    
C21   H15   S    
C13   C15   A    
C20   H10   S    
C14   C16   A    
N8    C22   S    
C14   O10   S    
C5    C15   A    
C11   N3    S    
N1    N2    T    
C6    C16   A    
N7    H13   S    
C10   N5    S    
O9    H11   S    
C7    C9    A    
C11   C13   A    
Cu1   O1    S    
C1    O1    A    
C4    C6    S    
Cu2   O6    S    
C21   H16   S    
C5    C7    A    
C3    O7    A    
C22   H20   S    
C6    C8    A    
Cu2   O2    S    
N7    C21   S    
N3    N4    D    
Cu1   O4    S    
C13   O9    S    
N5    H3    S    
C12   N4    S    
C22   H19   S    
Cu1   O8    S    
C8    H1    S    
