data_mof_unit_60604.cif
_audit_creation_date              2012-12-10T19:26:23-0500
_audit_creation_method            fapswitch 2.2
_symmetry_space_group_name_H-M    P1
_symmetry_Int_Tables_number       1
_space_group_crystal_system       triclinic
_cell_length_a                    18.919288
_cell_length_b                    18.65742
_cell_length_c                    18.698685
_cell_angle_alpha                 109.327807
_cell_angle_beta                  109.783023
_cell_angle_gamma                 109.568028
_cell_volume                      5064.19984987

loop_
_atom_site_label
_atom_site_type_symbol
_atom_type_description
_atom_site_fract_x
_atom_site_fract_y
_atom_site_fract_z
_atom_type_partial_charge
C1    C     C_R   0.119622 0.999788 0.620509 0.863882
C2    C     C_R   0.255580 0.270637 0.586181 0.108802
C3    C     C_R   0.195161 0.187478 0.509435 -0.144249
C4    C     C_R   0.199106 0.167359 0.432594 -0.224587
C5    C     C_R   0.258620 0.229355 0.427105 -0.037909
C6    C     C_R   0.314655 0.314771 0.501082 -0.173052
C7    C     C_R   0.262381 0.013500 0.686066 0.108854
C8    C     C_R   0.186949 0.003123 0.688263 -0.089951
C9    C     C_R   0.181144 0.005667 0.761819 -0.205996
C10   C     C_R   0.245338 0.005396 0.826020 -0.214858
C11   C     C_R   0.316075 0.005388 0.817396 -0.091456
C12   C     C_R   0.124302 0.120559 0.504601 0.893154
C13   C     C_R   0.326938 0.015756 0.750732 0.159445
C14   C     C_3   0.345353 0.963438 0.687060 -0.506340
C15   C     C_3   0.273795 0.960721 0.615587 -0.460421
C16   C     C_R   0.813831 0.739219 0.493057 0.128609
C17   C     C_R   0.812141 0.813916 0.497113 -0.096038
C18   C     C_R   0.742866 0.824324 0.500913 -0.209701
C19   C     C_R   0.677873 0.759435 0.500439 -0.212602
C20   C     C_R   0.683988 0.685887 0.499043 -0.090337
C21   C     C_R   0.753384 0.678774 0.495853 0.124462
C22   C     C_3   0.794792 0.623451 0.493430 -0.476803
C23   C     C_R   0.879829 0.999732 0.379744 0.893002
C24   C     C_3   0.864853 0.693455 0.491254 -0.478322
C25   C     C_R   0.808641 0.984230 0.235080 0.076317
C26   C     C_R   0.812631 0.998342 0.314195 -0.101374
C27   C     C_R   0.749240 0.013030 0.329212 -0.191049
C28   C     C_R   0.684011 0.012452 0.264390 -0.204782
C29   C     C_R   0.683846 0.999498 0.185894 -0.068805
C30   C     C_R   0.747303 0.985884 0.174025 0.122809
C31   C     C_3   0.778605 0.967486 0.110665 -0.561952
C32   C     C_3   0.849774 0.965904 0.180741 -0.220295
C33   C     C_R   0.500861 0.620610 0.620438 0.848381
C34   C     C_R   0.879699 0.879709 0.499434 0.876025
C35   C     C_R   0.380167 0.378804 0.498812 0.944257
C36   C     C_R   0.497213 0.377220 0.379933 0.961759
C37   C     C_R   0.619606 0.619870 0.499616 0.868866
C38   C     C_R   0.500492 0.120570 0.120213 0.876390
C39   C     C_R   0.380248 0.000438 0.879944 0.862337
C40   C     C_R   0.499842 0.879377 0.880125 0.865996
C41   C     C_R   0.619485 0.999695 0.119831 0.877356
C42   C     C_R   0.427141 0.667093 0.694037 0.080729
C43   C     C_R   0.501839 0.685256 0.688237 -0.071669
C44   C     C_R   0.580711 0.762009 0.755413 -0.208104
C45   C     C_R   0.262201 0.289489 0.668844 -0.160087
C46   C     C_R   0.580866 0.826218 0.820158 -0.219125
C47   C     C_R   0.502455 0.811776 0.818388 -0.096778
C48   C     C_R   0.427603 0.729596 0.759034 0.149787
C49   C     C_3   0.337908 0.706790 0.698975 -0.483480
C50   C     C_3   0.337564 0.637737 0.627128 -0.468734
C51   C     C_R   0.512813 0.325616 0.253189 0.034364
C52   C     C_R   0.496369 0.309258 0.314977 -0.150641
C53   C     C_R   0.495146 0.235110 0.321624 -0.059115
C54   C     C_R   0.499643 0.174375 0.257823 -0.245829
C55   C     C_R   0.505770 0.187468 0.190236 -0.131620
C56   C     C_R   0.318185 0.374145 0.741285 -0.127567
C57   C     C_R   0.518289 0.265783 0.191876 0.150329
C58   C     C_3   0.470783 0.279959 0.120470 -0.245319
C59   C     C_3   0.465135 0.346681 0.188718 -0.499228
C60   C     C_R   0.369280 0.441165 0.733359 -0.127360
C61   C     C_R   0.367352 0.422904 0.654009 -0.164959
C62   C     C_R   0.312838 0.336673 0.580284 0.080246
H1    H     H_    0.153723 0.102541 0.375148 0.213030
H2    H     H_    0.329587 0.897956 0.681078 0.192174
H3    H     H_    0.298203 0.998116 0.585522 0.210490
H4    H     H_    0.216341 0.893599 0.568132 0.217588
H5    H     H_    0.738766 0.881603 0.503543 0.160638
H6    H     H_    0.624421 0.767383 0.502865 0.160124
H7    H     H_    0.819312 0.620941 0.555102 0.214838
H8    H     H_    0.754023 0.558765 0.431668 0.208574
H9    H     H_    0.929637 0.731757 0.551955 0.200854
H10   H     H_    0.865077 0.669077 0.428494 0.218170
H11   H     H_    0.749615 0.023918 0.389992 0.163927
H12   H     H_    0.226614 0.239326 0.679645 0.160280
H13   H     H_    0.635098 0.023281 0.275866 0.161238
H14   H     H_    0.802322 0.023261 0.098937 0.228740
H15   H     H_    0.843741 0.899957 0.159725 0.162743
H16   H     H_    0.640677 0.774052 0.754977 0.156261
H17   H     H_    0.641017 0.887576 0.869455 0.165736
H18   H     H_    0.290846 0.678191 0.718310 0.212281
H19   H     H_    0.336524 0.761054 0.687136 0.191500
H20   H     H_    0.290394 0.569299 0.605074 0.208198
H21   H     H_    0.321886 0.387746 0.803796 0.150689
H22   H     H_    0.336018 0.651893 0.573501 0.220522
H23   H     H_    0.494421 0.114832 0.258194 0.199123
H24   H     H_    0.406685 0.220721 0.067357 0.127014
H25   H     H_    0.503914 0.416058 0.206516 0.206370
H26   H     H_    0.397468 0.325947 0.175188 0.224289
H27   H     H_    0.408910 0.476937 0.651228 0.133913
H28   H     H_    0.125129 0.003074 0.767063 0.160585
H29   H     H_    0.238773 0.002879 0.880629 0.161911
H30   H     H_    0.411079 0.002518 0.698351 0.216043
O1    O     O_R   0.091620 0.948280 0.539900 -0.624844
O2    O     O_R   0.551680 0.591610 0.643340 -0.629980
O3    O     O_R   0.356630 0.408410 0.448290 -0.585897
O4    O     O_R   0.460070 0.408390 0.551710 -0.600133
O5    O     O_R   0.448260 0.408420 0.356690 -0.597331
O6    O     O_R   0.551700 0.408400 0.460110 -0.614018
O7    O     O_R   0.539880 0.591640 0.448310 -0.626862
O8    O     O_R   0.643310 0.591620 0.551740 -0.625709
O9    O     O_R   0.551750 0.143400 0.091630 -0.581395
O10   O     O_R   0.448300 0.040010 0.091670 -0.627293
O11   O     O_R   0.460120 0.051750 0.908420 -0.613577
O12   O     O_R   0.091590 0.051710 0.643320 -0.629842
O13   O     O_R   0.356670 0.948360 0.908460 -0.623325
O14   O     O_R   0.551700 0.960090 0.908430 -0.625131
O15   O     O_R   0.448250 0.856700 0.908470 -0.619658
O16   O     O_R   0.643330 0.051740 0.091640 -0.610584
O17   O     O_R   0.539880 0.948350 0.091680 -0.624838
O18   O     O_R   0.091630 0.039900 0.448300 -0.610819
O19   O     O_R   0.091610 0.143340 0.551720 -0.626457
O20   O     O_R   0.908410 0.948290 0.356680 -0.623640
O21   O     O_R   0.908380 0.051720 0.460100 -0.616501
O22   O     O_R   0.908390 0.856660 0.448280 -0.619971
O23   O     O_R   0.908370 0.960100 0.551700 -0.626708
O24   O     O_R   0.448240 0.591630 0.539920 -0.627972
Zn1   Zn    Zn3+2 0.000020 0.930940 0.430940 0.981899
Zn2   Zn    Zn3+2 0.999980 0.069060 0.569060 0.965210
Zn3   Zn    Zn3+2 0.430910 0.500030 0.430960 1.002173
Zn4   Zn    Zn3+2 0.569030 0.500000 0.569070 0.993445
Zn5   Zn    Zn3+2 0.569070 0.069080 0.000020 1.003488
Zn6   Zn    Zn3+2 0.430930 0.931020 0.000080 0.966194
H31   H     H_    0.730981 0.902187 0.050318 0.194199
C63   C     C_2   0.940234 0.039396 0.219047 0.963517
O25   O     O_2   0.959414 0.116241 0.257761 -0.618025
O26   O     O_R   0.001648 0.018767 0.208020 -0.795967
H32   H     H_    0.058558 0.072998 0.232035 0.346596
C64   C     C_2   0.483690 0.215117 0.389126 0.940930
O27   O     O_2   0.450223 0.245769 0.426422 -0.630450
O28   O     O_R   0.509597 0.158724 0.408567 -0.810986
H33   H     H_    0.497921 0.149358 0.454748 0.348969
C65   C     C_2   0.525646 0.320170 0.086844 0.970359
O29   O     O_2   0.497251 0.344645 0.036378 -0.626104
O30   O     O_R   0.607928 0.328756 0.112219 -0.784751
H34   H     H_    0.637692 0.356399 0.084621 0.337885
H35   H     H_    0.411798 0.507176 0.789300 0.144100
C66   C     C_2   0.260652 0.200206 0.343545 0.935128
O31   O     O_2   0.279505 0.250569 0.316114 -0.611290
O32   O     O_R   0.238596 0.113023 0.294713 -0.794238
H36   H     H_    0.242112 0.100568 0.239342 0.346694

loop_
_geom_bond_atom_site_label_1
_geom_bond_atom_site_label_2
_ccdc_geom_bond_type
C40   C47   S    
C39   O11   A    
C16   C21   A    
C41   O16   A    
C1    C8    S    
C32   C63   S    
C19   C20   A    
O16   Zn5   S    
C64   O27   D    
C12   O18   A    
C31   H14   S    
C50   H22   S    
C7    C8    A    
C53   C54   A    
C23   O20   A    
C66   O32   S    
C4    H1    S    
C24   H10   S    
C26   C27   A    
O26   H32   S    
O19   Zn2   S    
C5    C6    A    
C63   O26   S    
C28   C29   A    
C34   O23   A    
C38   O9    A    
C30   C31   S    
O17   Zn6   S    
C15   H3    S    
C6    C35   S    
C18   C19   A    
C23   C26   S    
C49   H19   S    
C59   H26   S    
C3    C12   S    
C32   H15   S    
C46   C47   A    
O2    Zn4   S    
C38   C55   S    
C47   C48   A    
C45   C56   A    
C58   C65   S    
C8    C9    A    
C36   O5    A    
C51   C57   A    
C65   O29   D    
C9    C10   A    
C60   H35   S    
C22   H7    S    
C27   H11   S    
C36   C52   S    
C25   C32   S    
C7    C15   S    
C16   C24   S    
C41   O17   A    
C13   C14   S    
C33   O2    A    
O1    Zn1   S    
C58   H24   S    
O18   Zn1   S    
C61   H27   S    
O12   Zn2   S    
C2    C45   A    
C51   C52   A    
C33   C43   S    
C16   C17   A    
C44   C46   A    
O3    Zn3   S    
C18   H5    S    
C35   O4    A    
C15   H4    S    
O9    Zn5   S    
C56   C60   A    
C45   H12   S    
O5    Zn3   S    
C43   C44   A    
C29   C30   A    
C53   C64   S    
C23   O21   A    
C31   C32   S    
O23   Zn2   S    
C14   H2    S    
C17   C18   A    
C19   H6    S    
C42   C48   A    
C11   C39   S    
C1    O12   A    
C14   H30   S    
C42   C50   S    
C40   O15   A    
O8    Zn4   S    
C1    O1    A    
C48   C49   S    
C10   H29   S    
C55   C57   A    
C22   C24   S    
C58   C59   S    
C51   C59   S    
C42   C43   A    
C3    C4    A    
O11   Zn5   S    
C37   O7    A    
C52   C53   A    
C50   H20   S    
C56   H21   S    
C40   O14   A    
C25   C30   A    
C39   O13   A    
C54   C55   A    
C33   O24   A    
C29   C41   S    
O4    Zn4   S    
C4    C5    A    
C64   O28   S    
C9    H28   S    
C54   H23   S    
O32   H36   S    
O24   Zn3   S    
O6    Zn4   S    
O30   H34   S    
C35   O3    A    
C34   O22   A    
C66   O31   D    
C49   H18   S    
O20   Zn1   S    
C6    C62   A    
C44   H16   S    
O28   H33   S    
C25   C26   A    
C31   H31   S    
C5    C66   S    
C38   O10   A    
O10   Zn6   S    
C20   C37   S    
C11   C13   A    
C57   C58   S    
C46   H17   S    
O14   Zn5   S    
O13   Zn6   S    
C2    C3    A    
C37   O8    A    
C61   C62   A    
C59   H25   S    
O22   Zn1   S    
C10   C11   A    
O7    Zn3   S    
O21   Zn2   S    
C7    C13   A    
C20   C21   A    
C65   O30   S    
C49   C50   S    
C17   C34   S    
C27   C28   A    
C14   C15   S    
C60   C61   A    
C36   O6    A    
O15   Zn6   S    
C21   C22   S    
C28   H13   S    
C22   H8    S    
C12   O19   A    
C2    C62   A    
C24   H9    S    
C63   O25   D    
