data_mof_unit_62890.cif
_audit_creation_date              2012-12-10T18:21:22-0500
_audit_creation_method            fapswitch 2.2
_symmetry_space_group_name_H-M    P1
_symmetry_Int_Tables_number       1
_space_group_crystal_system       monoclinic
_cell_length_a                    35.670644
_cell_length_b                    35.670644
_cell_length_c                    23.668829
_cell_angle_alpha                 90.0
_cell_angle_beta                  89.999982
_cell_angle_gamma                 90.0
_cell_volume                      30116.0959683

loop_
_atom_site_label
_atom_site_type_symbol
_atom_type_description
_atom_site_fract_x
_atom_site_fract_y
_atom_site_fract_z
_atom_type_partial_charge
C1    C     C_R   1.000000 0.427657 0.500195 0.789258
C2    C     C_R   0.427657 0.000000 0.500195 0.789257
C3    C     C_R   0.000000 0.572343 0.500195 0.789257
C4    C     C_R   0.572343 1.000000 0.500195 0.789257
C5    C     C_R   0.500000 0.927657 0.999804 0.789257
C6    C     C_R   0.927657 0.499999 0.999804 0.789257
C7    C     C_R   0.500000 0.072343 0.999804 0.789257
C8    C     C_R   0.072343 0.500000 0.999804 0.789257
C9    C     C_1   0.999994 0.267142 0.503682 -0.070412
C10   C     C_1   0.267142 0.000006 0.503682 -0.070412
C11   C     C_1   0.000006 0.732858 0.503682 -0.070412
C12   C     C_1   0.732858 0.999994 0.503682 -0.070412
C13   C     C_1   0.500006 0.767142 0.996318 -0.070412
C14   C     C_1   0.767142 0.499994 0.996318 -0.070412
C15   C     C_1   0.499994 0.232858 0.996318 -0.070412
C16   C     C_1   0.232858 0.500006 0.996318 -0.070412
C17   C     C_R   0.966043 0.327034 0.502476 -0.159341
C18   C     C_R   0.327034 0.033957 0.502477 -0.159340
C19   C     C_R   0.033957 0.672966 0.502477 -0.159341
C20   C     C_R   0.672966 0.966043 0.502483 -0.159342
C21   C     C_R   0.966057 0.672967 0.502693 -0.159139
C22   C     C_R   0.327033 0.966058 0.502692 -0.159139
C23   C     C_R   0.033942 0.327033 0.502693 -0.159140
C24   C     C_R   0.672967 0.033943 0.502687 -0.159139
C25   C     C_R   0.466057 0.827033 0.997307 -0.159140
C26   C     C_R   0.827033 0.533942 0.997307 -0.159140
C27   C     C_R   0.533942 0.172967 0.997307 -0.159140
C28   C     C_R   0.172967 0.466057 0.997307 -0.159140
C29   C     C_R   0.466043 0.172966 0.997523 -0.159341
C30   C     C_R   0.827034 0.466043 0.997523 -0.159342
C31   C     C_R   0.533957 0.827034 0.997524 -0.159341
C32   C     C_R   0.172966 0.533957 0.997523 -0.159342
C33   C     C_R   0.966004 0.366200 0.501426 -0.190548
C34   C     C_R   0.366200 0.033996 0.501427 -0.190548
C35   C     C_R   0.033996 0.633800 0.501426 -0.190548
C36   C     C_R   0.633800 0.966004 0.501432 -0.190548
C37   C     C_R   0.966013 0.633802 0.501637 -0.190719
C38   C     C_R   0.366198 0.966013 0.501636 -0.190719
C39   C     C_R   0.033987 0.366198 0.501637 -0.190719
C40   C     C_R   0.633802 0.033987 0.501630 -0.190720
C41   C     C_R   0.466013 0.866198 0.998363 -0.190719
C42   C     C_R   0.866198 0.533987 0.998363 -0.190719
C43   C     C_R   0.533987 0.133802 0.998363 -0.190719
C44   C     C_R   0.133801 0.466012 0.998363 -0.190719
C45   C     C_R   0.466004 0.133800 0.998574 -0.190548
C46   C     C_R   0.866200 0.466004 0.998573 -0.190547
C47   C     C_R   0.533996 0.866200 0.998574 -0.190548
C48   C     C_R   0.133800 0.533996 0.998574 -0.190547
C49   C     C_R   0.999997 0.386209 0.500985 -0.034711
C50   C     C_R   0.386209 0.000003 0.500985 -0.034712
C51   C     C_R   0.000003 0.613791 0.500985 -0.034712
C52   C     C_R   0.613791 0.999997 0.500985 -0.034712
C53   C     C_R   0.500003 0.886209 0.999015 -0.034711
C54   C     C_R   0.886209 0.499997 0.999015 -0.034712
C55   C     C_R   0.499997 0.113791 0.999015 -0.034712
C56   C     C_R   0.113791 0.500003 0.999015 -0.034712
C57   C     C_R   0.999992 0.307411 0.503129 0.146225
C58   C     C_R   0.307411 0.000008 0.503129 0.146225
C59   C     C_R   0.000008 0.692589 0.503129 0.146225
C60   C     C_R   0.692589 0.999992 0.503129 0.146225
C61   C     C_R   0.500008 0.807411 0.996871 0.146225
C62   C     C_R   0.807411 0.499992 0.996871 0.146225
C63   C     C_R   0.499992 0.192589 0.996871 0.146225
C64   C     C_R   0.192589 0.500008 0.996871 0.146225
C65   C     C_R   0.927662 0.000208 0.499978 0.784763
C66   C     C_R   0.000208 0.072338 0.499978 0.784763
C67   C     C_R   0.072338 0.999792 0.499978 0.784762
C68   C     C_R   0.999792 0.927662 0.499978 0.784763
C69   C     C_R   0.427662 0.499792 0.000022 0.784763
C70   C     C_R   0.499792 0.572338 0.000022 0.784763
C71   C     C_R   0.572338 0.500208 0.000022 0.784763
C72   C     C_R   0.500208 0.427662 0.000022 0.784763
C73   C     C_R   0.000000 0.500000 0.608209 0.828762
C74   C     C_R   0.500000 0.000000 0.608209 0.828763
C75   C     C_R   0.000000 0.500000 0.391791 0.829524
C76   C     C_R   0.500000 0.000000 0.391791 0.829524
C77   C     C_R   0.500000 0.000000 0.108209 0.829524
C78   C     C_R   1.000000 0.500000 0.108209 0.829524
C79   C     C_R   0.500000 0.000000 0.891791 0.828763
C80   C     C_R   0.000000 0.500000 0.891791 0.828763
C81   C     C_1   1.000000 0.500000 0.669030 -0.179844
C82   C     C_1   0.500000 0.000000 0.669030 -0.179844
C83   C     C_1   0.000000 0.500000 0.330970 -0.180107
C84   C     C_1   0.500000 0.000000 0.330970 -0.180107
C85   C     C_1   0.500000 0.000000 0.169030 -0.180107
C86   C     C_1   1.000000 0.500000 0.169030 -0.180107
C87   C     C_1   0.500000 0.000000 0.830970 -0.179844
C88   C     C_1   0.000000 0.500000 0.830970 -0.179844
C89   C     C_1   1.000000 0.500000 0.720081 0.003108
C90   C     C_1   0.500000 1.000000 0.720081 0.003108
C91   C     C_1   0.000000 0.500000 0.279919 0.003253
C92   C     C_1   0.500000 0.000000 0.279919 0.003253
C93   C     C_1   0.500000 0.000000 0.220081 0.003253
C94   C     C_1   1.000000 0.500000 0.220081 0.003253
C95   C     C_1   0.500000 0.000000 0.779919 0.003108
C96   C     C_1   1.000000 0.500000 0.779919 0.003108
C97   C     C_R   0.982603 0.174070 0.458811 -0.201329
C98   C     C_R   0.174070 0.017397 0.458811 -0.201329
C99   C     C_R   0.017397 0.825930 0.458811 -0.201328
C100  C     C_R   0.825930 0.982603 0.458811 -0.201329
C101  C     C_R   0.981837 0.826833 0.545661 -0.206959
C102  C     C_R   0.173167 0.981837 0.545661 -0.206959
C103  C     C_R   0.018163 0.173167 0.545661 -0.206959
C104  C     C_R   0.826833 0.018163 0.545661 -0.206959
C105  C     C_R   0.481837 0.673167 0.954339 -0.206960
C106  C     C_R   0.673167 0.518163 0.954339 -0.206959
C107  C     C_R   0.518163 0.326833 0.954339 -0.206959
C108  C     C_R   0.326833 0.481837 0.954339 -0.206959
C109  C     C_R   0.482603 0.325930 0.041189 -0.201329
C110  C     C_R   0.674070 0.482603 0.041189 -0.201328
C111  C     C_R   0.517397 0.674070 0.041189 -0.201329
C112  C     C_R   0.325930 0.517397 0.041189 -0.201329
C113  C     C_R   0.982833 0.134859 0.456866 -0.033960
C114  C     C_R   0.134859 0.017167 0.456867 -0.033960
C115  C     C_R   0.017167 0.865141 0.456866 -0.033960
C116  C     C_R   0.865141 0.982833 0.456867 -0.033960
C117  C     C_R   0.980763 0.866135 0.544630 -0.032519
C118  C     C_R   0.133865 0.980763 0.544630 -0.032519
C119  C     C_R   0.019237 0.133865 0.544630 -0.032519
C120  C     C_R   0.866135 0.019237 0.544630 -0.032519
C121  C     C_R   0.480763 0.633865 0.955370 -0.032519
C122  C     C_R   0.633865 0.519237 0.955370 -0.032519
C123  C     C_R   0.519237 0.366135 0.955370 -0.032519
C124  C     C_R   0.366135 0.480763 0.955370 -0.032519
C125  C     C_R   0.482833 0.365141 0.043133 -0.033960
C126  C     C_R   0.634859 0.482833 0.043133 -0.033960
C127  C     C_R   0.517167 0.634859 0.043133 -0.033960
C128  C     C_R   0.365141 0.517167 0.043133 -0.033960
C129  C     C_R   0.001041 0.114050 0.500162 -0.131499
C130  C     C_R   0.114050 0.998959 0.500162 -0.131499
C131  C     C_R   0.998959 0.885950 0.500162 -0.131499
C132  C     C_R   0.885950 0.001041 0.500162 -0.131499
C133  C     C_R   0.498959 0.614050 0.999838 -0.131499
C134  C     C_R   0.614050 0.501041 0.999838 -0.131499
C135  C     C_R   0.501041 0.385950 0.999838 -0.131499
C136  C     C_R   0.385950 0.498959 0.999838 -0.131499
C137  C     C_R   0.000074 0.193115 0.502954 0.110210
C138  C     C_R   0.193115 0.999926 0.502954 0.110209
C139  C     C_R   0.999926 0.806885 0.502954 0.110209
C140  C     C_R   0.806885 0.000074 0.502954 0.110209
C141  C     C_R   0.499926 0.693115 0.997046 0.110209
C142  C     C_R   0.693115 0.500074 0.997046 0.110209
C143  C     C_R   0.500074 0.306885 0.997046 0.110209
C144  C     C_R   0.306885 0.499925 0.997046 0.110209
C145  C     C_1   0.000016 0.233389 0.503687 -0.048722
C146  C     C_1   0.233389 0.999984 0.503686 -0.048723
C147  C     C_1   0.999984 0.766611 0.503686 -0.048723
C148  C     C_1   0.766611 0.000016 0.503687 -0.048723
C149  C     C_1   0.499984 0.733389 0.996313 -0.048723
C150  C     C_1   0.733389 0.500016 0.996313 -0.048723
C151  C     C_1   0.500016 0.266611 0.996313 -0.048723
C152  C     C_1   0.266611 0.499984 0.996313 -0.048723
Cu1   Cu    Cu3+1 0.037270 0.500000 0.500000 0.948647
Cu2   Cu    Cu3+1 0.500000 0.962730 0.500000 0.948647
Cu3   Cu    Cu3+1 0.962730 0.500000 0.500000 0.948647
Cu4   Cu    Cu3+1 0.500000 0.037270 0.500000 0.948647
Cu5   Cu    Cu3+1 0.537270 0.000000 0.000000 0.948647
Cu6   Cu    Cu3+1 0.000000 0.462730 0.000000 0.948647
Cu7   Cu    Cu3+1 0.462730 0.000000 0.000000 0.948647
Cu8   Cu    Cu3+1 0.000000 0.537270 0.000000 0.948647
Cu9   Cu    Cu3+1 1.000000 1.000000 0.555780 0.995611
Cu10  Cu    Cu3+1 1.000000 1.000000 0.444220 0.983417
Cu11  Cu    Cu3+1 0.500000 0.500000 0.055780 0.983417
Cu12  Cu    Cu3+1 0.500000 0.500000 0.944220 0.995611
H1    H     H_    0.968633 0.189815 0.425722 0.140254
H2    H     H_    0.189815 0.031368 0.425722 0.140254
H3    H     H_    0.031367 0.810185 0.425722 0.140254
H4    H     H_    0.810185 0.968632 0.425722 0.140255
H5    H     H_    0.967834 0.811699 0.579348 0.138830
H6    H     H_    0.188301 0.967834 0.579348 0.138830
H7    H     H_    0.032166 0.188301 0.579348 0.138830
H8    H     H_    0.811699 0.032166 0.579348 0.138830
H9    H     H_    0.467834 0.688301 0.920652 0.138830
H10   H     H_    0.688301 0.532166 0.920652 0.138830
H11   H     H_    0.532166 0.311699 0.920652 0.138830
H12   H     H_    0.311699 0.467834 0.920652 0.138830
H13   H     H_    0.468632 0.310185 0.074277 0.140255
H14   H     H_    0.689815 0.468633 0.074277 0.140254
H15   H     H_    0.531367 0.689815 0.074277 0.140255
H16   H     H_    0.310185 0.531367 0.074278 0.140254
H17   H     H_    0.939611 0.312066 0.502714 0.131041
H18   H     H_    0.312066 0.060390 0.502714 0.131040
H19   H     H_    0.060389 0.687934 0.502714 0.131041
H20   H     H_    0.687934 0.939611 0.502725 0.131041
H21   H     H_    0.939626 0.687936 0.503103 0.131108
H22   H     H_    0.312064 0.939626 0.503102 0.131108
H23   H     H_    0.060374 0.312064 0.503103 0.131109
H24   H     H_    0.687936 0.060374 0.503091 0.131108
H25   H     H_    0.439626 0.812064 0.996897 0.131109
H26   H     H_    0.812064 0.560374 0.996898 0.131109
H27   H     H_    0.560374 0.187936 0.996898 0.131109
H28   H     H_    0.187936 0.439626 0.996898 0.131109
H29   H     H_    0.439610 0.187934 0.997286 0.131040
H30   H     H_    0.812066 0.439611 0.997286 0.131041
H31   H     H_    0.560389 0.812066 0.997286 0.131040
H32   H     H_    0.187934 0.560389 0.997286 0.131041
H33   H     H_    0.939374 0.380769 0.500972 0.153656
H34   H     H_    0.380769 0.060626 0.500973 0.153656
H35   H     H_    0.060626 0.619231 0.500973 0.153656
H36   H     H_    0.619231 0.939374 0.500984 0.153657
H37   H     H_    0.939381 0.619234 0.501353 0.153638
H38   H     H_    0.380766 0.939381 0.501353 0.153638
H39   H     H_    0.060619 0.380766 0.501354 0.153638
H40   H     H_    0.619234 0.060619 0.501342 0.153638
H41   H     H_    0.439381 0.880766 0.998646 0.153638
H42   H     H_    0.880766 0.560619 0.998647 0.153638
H43   H     H_    0.560619 0.119234 0.998647 0.153638
H44   H     H_    0.119234 0.439381 0.998647 0.153638
H45   H     H_    0.439374 0.119231 0.999027 0.153656
H46   H     H_    0.880769 0.439374 0.999027 0.153656
H47   H     H_    0.560626 0.880769 0.999027 0.153656
H48   H     H_    0.119231 0.560626 0.999027 0.153656
O1    O     O_R   0.031480 0.445630 0.499980 -0.588305
O2    O     O_R   0.445630 0.968520 0.499980 -0.588305
O3    O     O_R   0.968520 0.554370 0.499980 -0.588304
O4    O     O_R   0.554370 0.031480 0.499980 -0.588305
O5    O     O_R   0.031480 0.554370 0.500020 -0.588300
O6    O     O_R   0.445630 0.031480 0.500020 -0.588300
O7    O     O_R   0.968520 0.445630 0.500020 -0.588300
O8    O     O_R   0.554370 0.968520 0.500020 -0.588300
O9    O     O_R   0.531480 0.945630 0.999980 -0.588300
O10   O     O_R   0.945630 0.468520 0.999980 -0.588300
O11   O     O_R   0.468520 0.054370 0.999980 -0.588300
O12   O     O_R   0.054370 0.531480 0.999980 -0.588300
O13   O     O_R   0.531480 0.054370 0.000020 -0.588304
O14   O     O_R   0.945630 0.531480 0.000020 -0.588305
O15   O     O_R   0.468520 0.945630 0.000020 -0.588305
O16   O     O_R   0.054370 0.468520 0.000020 -0.588304
O17   O     O_R   0.031480 0.500000 0.581380 -0.577491
O18   O     O_R   0.500000 0.968520 0.581380 -0.577491
O19   O     O_R   0.968520 0.500000 0.581380 -0.577490
O20   O     O_R   0.500000 0.031480 0.581380 -0.577490
O21   O     O_R   0.031480 0.500000 0.418620 -0.577181
O22   O     O_R   0.500000 0.031480 0.418620 -0.577181
O23   O     O_R   0.968520 0.500000 0.418620 -0.577180
O24   O     O_R   0.500000 0.968520 0.418620 -0.577180
O25   O     O_R   0.531480 0.000000 0.081380 -0.577181
O26   O     O_R   0.000000 0.468520 0.081380 -0.577180
O27   O     O_R   0.468520 0.000000 0.081380 -0.577180
O28   O     O_R   0.000000 0.531480 0.081380 -0.577181
O29   O     O_R   0.531480 0.000000 0.918620 -0.577491
O30   O     O_R   0.000000 0.531480 0.918620 -0.577491
O31   O     O_R   0.468520 0.000000 0.918620 -0.577490
O32   O     O_R   1.000000 0.468520 0.918620 -0.577490
O33   O     O_R   0.945750 0.999990 0.547080 -0.566740
O34   O     O_R   0.999990 0.054250 0.547080 -0.566740
O35   O     O_R   0.054250 0.000010 0.547080 -0.566740
O36   O     O_R   0.000010 0.945750 0.547080 -0.566740
O37   O     O_R   0.945750 0.000010 0.452920 -0.567901
O38   O     O_R   0.999990 0.945750 0.452920 -0.567901
O39   O     O_R   0.054250 0.999990 0.452920 -0.567901
O40   O     O_R   0.000010 0.054250 0.452920 -0.567901
O41   O     O_R   0.445750 0.499990 0.047080 -0.567901
O42   O     O_R   0.499990 0.554250 0.047080 -0.567901
O43   O     O_R   0.554250 0.500010 0.047080 -0.567901
O44   O     O_R   0.500010 0.445750 0.047080 -0.567901
O45   O     O_R   0.445750 0.500010 0.952920 -0.566740
O46   O     O_R   0.499990 0.445750 0.952920 -0.566740
O47   O     O_R   0.554250 0.499990 0.952920 -0.566740
O48   O     O_R   0.500010 0.554250 0.952920 -0.566740
C153  C     C_R   0.962931 0.116679 0.409553 0.127402
C154  C     C_R   0.924424 0.109174 0.413516 -0.158976
C155  C     C_R   0.905797 0.091416 0.368972 -0.134498
C156  C     C_R   0.925451 0.081392 0.320133 -0.121467
C157  C     C_R   0.963697 0.089400 0.315599 -0.138629
C158  C     C_R   0.982370 0.107246 0.360021 -0.091740
H49   H     H_    0.908870 0.117236 0.450824 0.114509
H50   H     H_    0.876129 0.085446 0.372296 0.124757
H51   H     H_    0.911017 0.067550 0.285743 0.113415
H52   H     H_    0.978867 0.081798 0.277688 0.114316
H53   H     H_    0.011936 0.113448 0.356152 0.117683
C159  C     C_R   0.116679 0.037069 0.409553 0.127402
C160  C     C_R   0.109175 0.075576 0.413517 -0.158978
C161  C     C_R   0.091417 0.094203 0.368972 -0.134498
C162  C     C_R   0.081392 0.074550 0.320134 -0.121466
C163  C     C_R   0.089399 0.036303 0.315599 -0.138630
C164  C     C_R   0.107245 0.017630 0.360021 -0.091738
H54   H     H_    0.117236 0.091130 0.450824 0.114510
H55   H     H_    0.085447 0.123872 0.372296 0.124757
H56   H     H_    0.067550 0.088983 0.285743 0.113415
H57   H     H_    0.081797 0.021134 0.277689 0.114316
H58   H     H_    0.113447 0.988064 0.356152 0.117683
C165  C     C_R   0.037069 0.883321 0.409553 0.127401
C166  C     C_R   0.075576 0.890826 0.413516 -0.158977
C167  C     C_R   0.094203 0.908583 0.368972 -0.134499
C168  C     C_R   0.074549 0.918608 0.320134 -0.121466
C169  C     C_R   0.036303 0.910600 0.315599 -0.138630
C170  C     C_R   0.017630 0.892755 0.360021 -0.091738
H59   H     H_    0.091130 0.882764 0.450823 0.114510
H60   H     H_    0.123871 0.914553 0.372296 0.124757
H61   H     H_    0.088983 0.932450 0.285743 0.113415
H62   H     H_    0.021133 0.918202 0.277689 0.114316
H63   H     H_    0.988063 0.886552 0.356152 0.117683
C171  C     C_R   0.883321 0.962931 0.409553 0.127402
C172  C     C_R   0.890825 0.924424 0.413516 -0.158977
C173  C     C_R   0.908583 0.905797 0.368972 -0.134499
C174  C     C_R   0.918608 0.925450 0.320134 -0.121465
C175  C     C_R   0.910600 0.963697 0.315599 -0.138630
C176  C     C_R   0.892755 0.982370 0.360021 -0.091739
H64   H     H_    0.882764 0.908870 0.450824 0.114510
H65   H     H_    0.914553 0.876128 0.372296 0.124757
H66   H     H_    0.932450 0.911017 0.285743 0.113415
H67   H     H_    0.918202 0.978866 0.277689 0.114316
H68   H     H_    0.886552 0.011936 0.356152 0.117683
C177  C     C_R   0.959106 0.885448 0.589496 0.131961
C178  C     C_R   0.928244 0.908086 0.575455 -0.104045
C179  C     C_R   0.908237 0.926800 0.617664 -0.110769
C180  C     C_R   0.918800 0.922964 0.674210 -0.116602
C181  C     C_R   0.949233 0.900186 0.688627 -0.139720
C182  C     C_R   0.969262 0.881339 0.646498 -0.148892
H69   H     H_    0.920027 0.911535 0.531835 0.092117
H70   H     H_    0.884631 0.944351 0.606479 0.127066
H71   H     H_    0.903384 0.937603 0.706840 0.117160
H72   H     H_    0.957359 0.897192 0.732451 0.122774
H73   H     H_    0.992922 0.863962 0.658189 0.113218
C183  C     C_R   0.114552 0.959106 0.589496 0.131961
C184  C     C_R   0.091914 0.928244 0.575455 -0.104045
C185  C     C_R   0.073200 0.908237 0.617664 -0.110767
C186  C     C_R   0.077036 0.918800 0.674210 -0.116603
C187  C     C_R   0.099815 0.949233 0.688627 -0.139720
C188  C     C_R   0.118662 0.969262 0.646498 -0.148893
H74   H     H_    0.088464 0.920027 0.531835 0.092117
H75   H     H_    0.055648 0.884631 0.606479 0.127066
H76   H     H_    0.062397 0.903384 0.706840 0.117160
H77   H     H_    0.102809 0.957359 0.732451 0.122774
H78   H     H_    0.136038 0.992922 0.658189 0.113219
C189  C     C_R   0.040894 0.114551 0.589496 0.131961
C190  C     C_R   0.071756 0.091914 0.575455 -0.104045
C191  C     C_R   0.091763 0.073199 0.617664 -0.110767
C192  C     C_R   0.081200 0.077036 0.674211 -0.116603
C193  C     C_R   0.050766 0.099814 0.688627 -0.139721
C194  C     C_R   0.030738 0.118661 0.646499 -0.148891
H79   H     H_    0.079973 0.088464 0.531835 0.092117
H80   H     H_    0.115369 0.055648 0.606479 0.127066
H81   H     H_    0.096616 0.062397 0.706840 0.117160
H82   H     H_    0.042641 0.102808 0.732451 0.122774
H83   H     H_    0.007078 0.136038 0.658189 0.113218
C195  C     C_R   0.885448 0.040894 0.589496 0.131961
C196  C     C_R   0.908086 0.071756 0.575455 -0.104045
C197  C     C_R   0.926800 0.091763 0.617664 -0.110766
C198  C     C_R   0.922964 0.081200 0.674211 -0.116604
C199  C     C_R   0.900185 0.050767 0.688627 -0.139720
C200  C     C_R   0.881338 0.030738 0.646499 -0.148892
H84   H     H_    0.911536 0.079973 0.531835 0.092117
H85   H     H_    0.944352 0.115369 0.606479 0.127066
H86   H     H_    0.937602 0.096616 0.706840 0.117160
H87   H     H_    0.897191 0.042641 0.732451 0.122774
H88   H     H_    0.863962 0.007078 0.658189 0.113218
C201  C     C_R   0.459106 0.614552 0.910504 0.131961
C202  C     C_R   0.428244 0.591914 0.924545 -0.104045
C203  C     C_R   0.408237 0.573199 0.882336 -0.110766
C204  C     C_R   0.418800 0.577036 0.825789 -0.116604
C205  C     C_R   0.449233 0.599814 0.811373 -0.139720
C206  C     C_R   0.469262 0.618661 0.853501 -0.148892
H89   H     H_    0.420027 0.588464 0.968165 0.092117
H90   H     H_    0.384631 0.555648 0.893521 0.127065
H91   H     H_    0.403384 0.562397 0.793160 0.117160
H92   H     H_    0.457359 0.602808 0.767549 0.122774
H93   H     H_    0.492922 0.636038 0.841811 0.113218
C207  C     C_R   0.614552 0.540894 0.910504 0.131961
C208  C     C_R   0.591914 0.571756 0.924545 -0.104045
C209  C     C_R   0.573199 0.591763 0.882336 -0.110766
C210  C     C_R   0.577036 0.581200 0.825789 -0.116604
C211  C     C_R   0.599814 0.550767 0.811373 -0.139721
C212  C     C_R   0.618661 0.530738 0.853501 -0.148890
H94   H     H_    0.588464 0.579973 0.968165 0.092117
H95   H     H_    0.555648 0.615369 0.893521 0.127065
H96   H     H_    0.562397 0.596616 0.793160 0.117160
H97   H     H_    0.602808 0.542641 0.767549 0.122774
H98   H     H_    0.636038 0.507078 0.841811 0.113218
C213  C     C_R   0.540894 0.385448 0.910504 0.131962
C214  C     C_R   0.571756 0.408086 0.924545 -0.104046
C215  C     C_R   0.591763 0.426800 0.882336 -0.110767
C216  C     C_R   0.581200 0.422964 0.825789 -0.116603
C217  C     C_R   0.550767 0.400186 0.811373 -0.139720
C218  C     C_R   0.530738 0.381338 0.853501 -0.148892
H99   H     H_    0.579973 0.411536 0.968165 0.092118
H100  H     H_    0.615369 0.444351 0.893521 0.127066
H101  H     H_    0.596616 0.437603 0.793160 0.117160
H102  H     H_    0.542641 0.397191 0.767549 0.122774
H103  H     H_    0.507078 0.363962 0.841811 0.113218
C219  C     C_R   0.385448 0.459106 0.910504 0.131962
C220  C     C_R   0.408086 0.428244 0.924545 -0.104045
C221  C     C_R   0.426800 0.408237 0.882336 -0.110767
C222  C     C_R   0.422964 0.418800 0.825789 -0.116604
C223  C     C_R   0.400186 0.449233 0.811373 -0.139720
C224  C     C_R   0.381339 0.469262 0.853501 -0.148891
H104  H     H_    0.411535 0.420027 0.968165 0.092117
H105  H     H_    0.444351 0.384631 0.893521 0.127066
H106  H     H_    0.437603 0.403384 0.793160 0.117160
H107  H     H_    0.397192 0.457359 0.767549 0.122774
H108  H     H_    0.363962 0.492922 0.841811 0.113218
C225  C     C_R   0.462931 0.383321 0.090447 0.127402
C226  C     C_R   0.424424 0.390825 0.086484 -0.158976
C227  C     C_R   0.405797 0.408583 0.131028 -0.134498
C228  C     C_R   0.425451 0.418608 0.179866 -0.121465
C229  C     C_R   0.463697 0.410600 0.184401 -0.138630
C230  C     C_R   0.482370 0.392755 0.139979 -0.091739
H109  H     H_    0.408870 0.382764 0.049176 0.114509
H110  H     H_    0.376129 0.414553 0.127704 0.124757
H111  H     H_    0.411017 0.432450 0.214257 0.113415
H112  H     H_    0.478866 0.418202 0.222311 0.114316
H113  H     H_    0.511936 0.386552 0.143848 0.117683
C231  C     C_R   0.616679 0.462931 0.090447 0.127402
C232  C     C_R   0.609174 0.424424 0.086484 -0.158977
C233  C     C_R   0.591417 0.405797 0.131028 -0.134498
C234  C     C_R   0.581392 0.425451 0.179866 -0.121467
C235  C     C_R   0.589400 0.463697 0.184401 -0.138630
C236  C     C_R   0.607245 0.482370 0.139979 -0.091738
H114  H     H_    0.617236 0.408870 0.049176 0.114510
H115  H     H_    0.585447 0.376129 0.127704 0.124757
H116  H     H_    0.567550 0.411017 0.214257 0.113416
H117  H     H_    0.581798 0.478866 0.222311 0.114317
H118  H     H_    0.613448 0.511936 0.143848 0.117683
C237  C     C_R   0.537069 0.616679 0.090447 0.127402
C238  C     C_R   0.575576 0.609175 0.086484 -0.158977
C239  C     C_R   0.594203 0.591417 0.131028 -0.134500
C240  C     C_R   0.574549 0.581392 0.179866 -0.121465
C241  C     C_R   0.536303 0.589399 0.184401 -0.138630
C242  C     C_R   0.517630 0.607245 0.139979 -0.091739
H119  H     H_    0.591130 0.617236 0.049176 0.114510
H120  H     H_    0.623871 0.585447 0.127704 0.124758
H121  H     H_    0.588983 0.567550 0.214257 0.113415
H122  H     H_    0.521134 0.581797 0.222311 0.114316
H123  H     H_    0.488063 0.613448 0.143848 0.117683
C243  C     C_R   0.383321 0.537069 0.090447 0.127401
C244  C     C_R   0.390825 0.575576 0.086484 -0.158976
C245  C     C_R   0.408583 0.594203 0.131028 -0.134500
C246  C     C_R   0.418608 0.574549 0.179866 -0.121465
C247  C     C_R   0.410600 0.536303 0.184401 -0.138630
C248  C     C_R   0.392755 0.517630 0.139979 -0.091739
H124  H     H_    0.382764 0.591130 0.049176 0.114509
H125  H     H_    0.414553 0.623871 0.127704 0.124758
H126  H     H_    0.432449 0.588983 0.214257 0.113415
H127  H     H_    0.418202 0.521134 0.222311 0.114317
H128  H     H_    0.386552 0.488064 0.143848 0.117683

loop_
_geom_bond_atom_site_label_1
_geom_bond_atom_site_label_2
_ccdc_geom_bond_type
C103  H7    S    
C244  C245  A    
C156  H51   S    
C223  H107  S    
C7    C55   S    
C32   H32   S    
C99   C139  A    
C8    C56   S    
Cu1   O1    S    
C90   C95   S    
C27   H27   S    
C185  H75   S    
C98   C138  A    
C166  C167  A    
C21   C59   A    
C199  H87   S    
C103  C137  A    
C207  C212  A    
C98   C114  A    
C110  H14   S    
C3    O3    A    
C177  C182  A    
C22   C38   A    
C214  C215  A    
C124  C219  S    
C161  C162  A    
C18   C58   A    
C48   H48   S    
C159  C160  A    
Cu4   O4    S    
C174  H66   S    
C79   O31   A    
C239  H120  S    
Cu2   O2    S    
C20   H20   S    
C125  C135  A    
C143  C151  S    
C78   O26   A    
C79   C87   S    
C111  H15   S    
C114  C130  A    
C6    C54   S    
C15   C151  T    
C205  C206  A    
C99   H3    S    
C66   O40   A    
C192  C193  A    
C36   H36   S    
C197  C198  A    
Cu9   O36   S    
C25   C41   A    
C203  H90   S    
C46   H46   S    
C28   C44   A    
C104  C140  A    
C29   C45   A    
C183  C184  A    
C68   C131  S    
C232  H114  S    
C128  C243  S    
C190  H79   S    
C7    O11   A    
C181  H72   S    
C204  C205  A    
C178  C179  A    
Cu6   O32   S    
C172  H64   S    
C229  H112  S    
Cu6   O26   S    
C168  H61   S    
C173  C174  A    
Cu8   O12   S    
C2    O2    A    
C35   C51   A    
C175  C176  A    
C107  C143  A    
C220  C221  A    
C108  C144  A    
C187  H77   S    
C66   O34   A    
C106  C142  A    
C165  C170  A    
C22   C58   A    
C217  C218  A    
C83   C91   T    
C225  C226  A    
C160  H54   S    
C126  C231  S    
C115  C165  S    
C238  C239  A    
C89   C96   S    
C162  H56   S    
C153  C158  A    
C80   C88   S    
C19   C35   A    
C232  C233  A    
C91   C94   S    
C31   H31   S    
C29   H29   S    
C47   C53   A    
C29   C63   A    
C216  H101  S    
C79   O29   A    
C202  C203  A    
C226  C227  A    
C240  H121  S    
C126  C134  A    
C213  C218  A    
C38   H38   S    
C2    O6    A    
C76   O22   A    
Cu8   O30   S    
C188  H78   S    
C6    O10   A    
C102  H6    S    
C208  H94   S    
C201  C202  A    
C4    O4    A    
C47   H47   S    
C210  H96   S    
C241  C242  A    
C11   C147  T    
C70   O42   A    
C73   O17   A    
C8    O16   A    
C35   H35   S    
C246  C247  A    
C68   O36   A    
C10   C58   S    
C158  H53   S    
C120  C195  S    
C153  C154  A    
C97   H1    S    
C209  C210  A    
C71   O47   A    
C195  C200  A    
C14   C62   S    
C127  C237  S    
C211  C212  A    
C179  H70   S    
C34   H34   S    
C220  H104  S    
C122  C134  A    
C2    C50   S    
C67   O35   A    
C184  H74   S    
C40   H40   S    
Cu4   O22   S    
C156  C157  A    
C87   C95   T    
C12   C148  T    
Cu3   O23   S    
C176  H68   S    
Cu1   O5    S    
C36   C52   A    
C3    O5    A    
C112  H16   S    
C196  H84   S    
C77   C85   S    
C105  H9    S    
Cu12  O45   S    
Cu5   O9    S    
Cu1   O17   S    
C242  H123  S    
C97   C137  A    
C207  C208  A    
C214  H99   S    
C161  H55   S    
C231  C232  A    
C32   C64   A    
C180  H71   S    
C154  H49   S    
C72   C135  S    
C7    O13   A    
C19   C59   A    
C238  H119  S    
C45   H45   S    
C5    O15   A    
C123  C135  A    
C211  H97   S    
C22   H22   S    
Cu9   O33   S    
Cu10  O39   S    
C27   C43   A    
C227  H110  S    
Cu4   O20   S    
C116  C132  A    
C191  H80   S    
C71   O43   A    
C106  C122  A    
C76   O24   A    
Cu11  O43   S    
C41   C53   A    
C98   H2    S    
C110  C126  A    
C43   C55   A    
C39   C49   A    
C10   C146  T    
C192  H81   S    
Cu1   Cu3   S    
C197  H85   S    
C73   O19   A    
C65   C132  S    
C245  C246  A    
C26   C42   A    
C69   O45   A    
C68   O38   A    
C23   C57   A    
C118  C183  S    
C235  H117  S    
C37   H37   S    
C233  C234  A    
C30   C46   A    
C190  C191  A    
C114  C159  S    
C194  H83   S    
C154  C155  A    
C141  C149  S    
C178  H69   S    
C104  H8    S    
C171  C176  A    
C144  C152  S    
C25   H25   S    
C221  H105  S    
C23   H23   S    
C219  C224  A    
C138  C146  S    
C119  C129  A    
Cu8   O14   S    
C175  H67   S    
C117  C131  A    
C111  C141  A    
C17   H17   S    
C163  C164  A    
C45   C55   A    
Cu12  O47   S    
C165  C166  A    
C169  H62   S    
C84   C92   T    
C201  C206  A    
C245  H125  S    
C77   O25   A    
C225  C230  A    
C88   C96   T    
C219  C220  A    
C39   H39   S    
C122  C207  S    
C31   C61   A    
C162  C163  A    
C100  C116  A    
C107  C123  A    
C164  H58   S    
C76   C84   S    
C71   C134  S    
Cu9   Cu10  S    
C155  C156  A    
C116  C171  S    
C137  C145  S    
C108  C124  A    
Cu9   O35   S    
Cu10  O37   S    
C65   O37   A    
C226  H109  S    
C128  C136  A    
C99   C115  A    
C171  C172  A    
C243  C244  A    
C33   C49   A    
C213  C214  A    
C174  C175  A    
C73   C81   S    
C236  H118  S    
Cu11  O41   S    
C121  C201  S    
C203  C204  A    
C4    O8    A    
C210  C211  A    
C101  H5    S    
C20   C60   A    
Cu2   Cu4   S    
C8    O12   A    
Cu5   O13   S    
C182  H73   S    
C66   C129  S    
C81   C89   T    
C70   O48   A    
Cu5   Cu7   S    
C31   C47   A    
Cu6   Cu8   S    
C32   C48   A    
C17   C33   A    
C72   O44   A    
C11   C59   S    
Cu7   O31   S    
C209  H95   S    
C101  C139  A    
C155  H50   S    
C124  C136  A    
C43   H43   S    
C179  C180  A    
C228  C229  A    
C74   O20   A    
C172  C173  A    
C3    C51   S    
C218  H103  S    
C217  H102  S    
Cu3   O7    S    
C193  C194  A    
C167  C168  A    
C118  C130  A    
C44   C56   A    
C169  C170  A    
C46   C54   A    
C106  H10   S    
Cu1   O21   S    
C109  C143  A    
C25   C61   A    
C170  H63   S    
Cu3   O3    S    
C27   C63   A    
C28   C64   A    
Cu5   O25   S    
C117  C177  S    
C183  C188  A    
C69   C136  S    
C233  H115  S    
C30   C62   A    
C1    O1    A    
C67   C130  S    
C231  C236  A    
Cu2   O8    S    
C222  C223  A    
C65   O33   A    
C186  H76   S    
C199  C200  A    
C230  H113  S    
C127  C133  A    
C228  H111  S    
C227  C228  A    
C21   H21   S    
C248  H128  S    
C244  H124  S    
C82   C90   T    
C24   H24   S    
C101  C117  A    
C142  C150  S    
C123  C213  S    
C223  C224  A    
C189  C190  A    
C42   C54   A    
C75   C83   S    
C30   H30   S    
C107  H11   S    
C119  C189  S    
C6    O14   A    
C9    C145  T    
C92   C93   S    
C80   O30   A    
C42   H42   S    
C112  C128  A    
C186  C187  A    
C20   C36   A    
C109  H13   S    
C21   C37   A    
C235  C236  A    
C177  C178  A    
C108  H12   S    
C77   O27   A    
Cu7   O27   S    
C237  C242  A    
C229  C230  A    
C74   C82   S    
C17   C57   A    
C104  C120  A    
C5    O9    A    
C72   O46   A    
C159  C164  A    
Cu12  O46   S    
Cu11  O42   S    
C191  C192  A    
Cu11  Cu12  S    
C157  H52   S    
C221  C222  A    
C140  C148  S    
C239  C240  A    
C26   H26   S    
C69   O41   A    
C74   O18   A    
C115  C131  A    
C181  C182  A    
C139  C147  S    
C113  C129  A    
C4    C52   S    
C202  H89   S    
C5    C53   S    
C105  C141  A    
C189  C194  A    
C37   C51   A    
C23   C39   A    
C163  H57   S    
C18   H18   S    
C206  H93   S    
C44   H44   S    
C102  C138  A    
C110  C142  A    
Cu5   O29   S    
C247  C248  A    
C198  H86   S    
Cu10  O40   S    
C100  C140  A    
C216  C217  A    
C196  C197  A    
C70   C133  S    
C234  C235  A    
C75   O23   A    
Cu7   O15   S    
C86   C94   T    
C157  C158  A    
C205  H92   S    
C102  C118  A    
C78   C86   S    
Cu6   O10   S    
C200  H88   S    
Cu2   O18   S    
C14   C150  T    
C184  C185  A    
C85   C93   T    
C28   H28   S    
C243  C248  A    
C173  H65   S    
C34   C50   A    
C16   C152  T    
C224  H108  S    
C19   H19   S    
C168  C169  A    
C40   C52   A    
C167  H60   S    
C80   O32   A    
C215  H100  S    
C185  C186  A    
C237  C238  A    
C33   H33   S    
C24   C60   A    
C160  C161  A    
C105  C121  A    
C1    O7    A    
C113  C153  S    
C234  H116  S    
C18   C34   A    
C212  H98   S    
C109  C125  A    
Cu12  O48   S    
C111  C127  A    
C97   C113  A    
Cu6   O16   S    
C180  C181  A    
C240  C241  A    
C193  H82   S    
C48   C56   A    
C15   C63   S    
C78   O28   A    
Cu8   O28   S    
C120  C132  A    
C103  C119  A    
C166  H59   S    
C38   C50   A    
C208  C209  A    
C100  H4    S    
C125  C225  S    
C187  C188  A    
C112  C144  A    
C241  H122  S    
C26   C62   A    
C13   C149  T    
Cu9   O34   S    
Cu10  O38   S    
C215  C216  A    
C246  H126  S    
Cu7   O11   S    
C247  H127  S    
Cu3   O19   S    
C24   C40   A    
C75   O21   A    
C9    C57   S    
C41   H41   S    
Cu11  O44   S    
C222  H106  S    
C12   C60   S    
C13   C61   S    
C195  C196  A    
Cu2   O24   S    
C198  C199  A    
Cu4   O6    S    
C16   C64   S    
C121  C133  A    
C204  H91   S    
C1    C49   S    
C67   O39   A    
