data_mof_unit_56940.cif
_audit_creation_date              2012-12-11T16:22:19-0500
_audit_creation_method            fapswitch 2.2
_symmetry_space_group_name_H-M    P1
_symmetry_Int_Tables_number       1
_space_group_crystal_system       triclinic
_cell_length_a                    19.660919
_cell_length_b                    6.960025
_cell_length_c                    17.715683
_cell_angle_alpha                 90.081766
_cell_angle_beta                  108.008077
_cell_angle_gamma                 90.170662
_cell_volume                      2305.44991752

loop_
_atom_site_label
_atom_site_type_symbol
_atom_type_description
_atom_site_fract_x
_atom_site_fract_y
_atom_site_fract_z
_atom_type_partial_charge
O1    O     O_R   0.561700 0.369960 0.440190 -0.541748
O2    O     O_R   0.061700 0.630040 0.940190 -0.546672
O3    O     O_R   0.413790 0.033680 0.407460 -0.555432
O4    O     O_R   0.913790 0.966320 0.907460 -0.546023
O5    O     O_R   0.438300 0.869760 0.559810 -0.545091
O6    O     O_R   0.938300 0.130240 0.059810 -0.543813
C1    C     C_R   0.385685 0.202805 0.386933 0.640344
C2    C     C_R   0.890060 0.795566 0.881759 0.638030
O7    O     O_R   0.559630 0.039830 0.430710 -0.543930
O8    O     O_R   0.059630 0.960170 0.930710 -0.537572
O9    O     O_R   0.585190 0.875950 0.583220 -0.505500
O10   O     O_R   0.085190 0.124050 0.083220 -0.503246
C3    C     C_R   0.580958 0.208959 0.415541 0.696802
C4    C     C_R   0.080308 0.791111 0.914649 0.697691
O11   O     O_R   0.414810 0.363770 0.416780 -0.534765
O12   O     O_R   0.914810 0.636230 0.916780 -0.552703
O13   O     O_3   0.508210 0.205480 0.550010 -0.351651
O14   O     O_3   0.008210 0.794520 0.050010 -0.361695
V1    V     V_3+5 0.498480 0.928140 0.490720 1.441526
V2    V     V_3+5 0.998480 0.071860 0.990720 1.421022
O15   O     O_R   0.586210 0.546600 0.592540 -0.545577
O16   O     O_R   0.086210 0.453400 0.092540 -0.559003
C5    C     C_R   0.612300 0.716162 0.616409 0.749807
C6    C     C_R   0.114847 0.284926 0.113102 0.746704
O17   O     O_R   0.440370 0.540460 0.569290 -0.519519
O18   O     O_R   0.940370 0.459540 0.069290 -0.514497
C7    C     C_R   0.419139 0.709048 0.584733 0.732049
C8    C     C_R   0.920748 0.290651 0.086591 0.725514
V3    V     V_3+5 0.501520 0.428910 0.509280 1.470855
V4    V     V_3+5 0.001520 0.571090 0.009280 1.415912
O19   O     O_3   0.491790 0.701440 0.449990 -0.380966
O20   O     O_3   0.991790 0.298560 0.949990 -0.382766
C9    C     C_R   0.270018 0.872963 0.662922 -0.187580
C10   C     C_R   0.786444 0.106731 0.183378 -0.202154
H1    H     H_    0.227526 0.978057 0.646312 0.143263
H2    H     H_    0.752810 0.980568 0.177658 0.160305
C11   C     C_R   0.317347 0.860766 0.618446 -0.224052
C12   C     C_R   0.832960 0.117204 0.137989 -0.201334
C13   C     C_R   0.370920 0.720427 0.635082 -0.189667
C14   C     C_R   0.876282 0.279640 0.141224 -0.210756
C15   C     C_R   0.379210 0.596948 0.700711 0.371973
C16   C     C_R   0.875444 0.429492 0.195742 0.325443
C17   C     C_R   0.332794 0.613785 0.748116 0.334556
C18   C     C_R   0.825824 0.421938 0.239541 0.377704
C19   C     C_R   0.275614 0.748083 0.726632 -0.070964
C20   C     C_R   0.780535 0.259688 0.232599 -0.070444
C21   C     C_R   0.188920 0.592953 0.787654 -0.092707
C22   C     C_R   0.682913 0.400855 0.280830 -0.088697
C23   C     C_R   0.142965 0.603240 0.834191 -0.206372
C24   C     C_R   0.635490 0.388868 0.325548 -0.198775
H3    H     H_    0.119886 0.471353 0.847816 0.123252
H4    H     H_    0.602388 0.511890 0.327287 0.124506
C25   C     C_R   0.127471 0.781043 0.863131 -0.048979
C26   C     C_R   0.630137 0.219527 0.366594 -0.050441
C27   C     C_R   0.157915 0.948657 0.842653 -0.162244
C28   C     C_R   0.673209 0.062111 0.361538 -0.163518
C29   C     C_R   0.204147 0.938075 0.796424 -0.180997
C30   C     C_R   0.721732 0.075569 0.318124 -0.178807
C31   C     C_R   0.221243 0.759834 0.769599 0.118793
C32   C     C_R   0.727765 0.245760 0.277786 0.132212
C33   C     C_2   0.709898 0.880817 0.723857 0.530560
C34   C     C_2   0.228239 0.122061 0.191608 0.465442
C35   C     C_2   0.673584 0.723559 0.690150 -0.344066
C36   C     C_2   0.183935 0.276580 0.177984 -0.374023
C37   C     C_2   0.767809 0.856706 0.801454 -0.337553
C38   C     C_2   0.298153 0.120137 0.259052 -0.319165
C39   C     C_2   0.831193 0.780254 0.805606 0.226532
C40   C     C_2   0.313209 0.217911 0.328313 0.244322
H5    H     H_    0.687364 0.593505 0.722559 0.097491
H6    H     H_    0.199649 0.407599 0.211314 0.148867
H7    H     H_    0.759801 0.914977 0.854896 0.096762
H8    H     H_    0.339734 0.025999 0.252464 0.102976
O21   O     O_3   0.841192 0.708200 0.736161 -0.573028
C41   C     C_3   0.890101 0.554076 0.751744 0.089795
H9    H     H_    0.876119 0.445486 0.790742 0.128216
H10   H     H_    0.945533 0.608475 0.779738 0.115749
C42   C     C_3   0.886645 0.454722 0.673766 -0.307500
H11   H     H_    0.830840 0.407468 0.643171 0.197750
H12   H     H_    0.902858 0.557938 0.634702 0.201839
C43   C     C_3   0.935758 0.279980 0.688135 -0.817691
H13   H     H_    0.992268 0.324626 0.716311 0.225793
H14   H     H_    0.931135 0.208501 0.630718 0.233389
H15   H     H_    0.920289 0.174899 0.727154 0.236019
O22   O     O_3   0.266051 0.355672 0.339241 -0.585230
C44   C     C_3   0.253233 0.335734 0.413195 0.080652
H16   H     H_    0.233553 0.476582 0.427192 0.151097
H17   H     H_    0.301999 0.304435 0.463657 0.099140
C45   C     C_3   0.195778 0.182687 0.407850 -0.337215
H18   H     H_    0.151724 0.198266 0.351030 0.206684
H19   H     H_    0.220039 0.038273 0.409259 0.176570
C46   C     C_3   0.164744 0.199873 0.476571 -0.835977
H20   H     H_    0.208161 0.197562 0.534149 0.229173
H21   H     H_    0.127717 0.077864 0.474651 0.235195
H22   H     H_    0.134502 0.336214 0.471932 0.229658
H23   H     H_    0.310706 0.958122 0.569052 0.149474
H24   H     H_    0.833464 0.998975 0.098328 0.169930
O23   O     O_3   0.431274 0.455511 0.715221 -0.557374
C47   C     C_3   0.489641 0.494871 0.784194 0.099562
H25   H     H_    0.531907 0.389257 0.784917 0.135363
H26   H     H_    0.475335 0.464277 0.838530 0.139807
C48   C     C_3   0.522030 0.698217 0.786800 -0.372770
H27   H     H_    0.537124 0.723147 0.732228 0.188343
H28   H     H_    0.482380 0.808749 0.790071 0.185725
C49   C     C_3   0.587922 0.724145 0.859137 -0.846499
H29   H     H_    0.574761 0.692183 0.914457 0.229335
H30   H     H_    0.607105 0.874810 0.861979 0.229070
H31   H     H_    0.631429 0.628243 0.854908 0.241066
O24   O     O_3   0.918604 0.590324 0.202478 -0.558670
C50   C     C_3   0.990033 0.543296 0.246347 0.085774
H32   H     H_    0.013997 0.442903 0.213008 0.106667
H33   H     H_    0.993213 0.473480 0.303876 0.092972
C51   C     C_3   0.034773 0.727534 0.262570 -0.271969
H34   H     H_    0.034528 0.792676 0.205322 0.217309
H35   H     H_    0.011115 0.832663 0.294501 0.179615
C52   C     C_3   0.111777 0.687729 0.312130 -0.861476
H36   H     H_    0.113818 0.641037 0.372709 0.229924
H37   H     H_    0.144153 0.820311 0.316603 0.227051
H38   H     H_    0.135165 0.574475 0.283801 0.246326
O25   O     O_3   0.340866 0.488506 0.811085 -0.559505
C53   C     C_3   0.365733 0.589914 0.884105 0.091569
H39   H     H_    0.324657 0.687920 0.893309 0.133198
H40   H     H_    0.413698 0.678906 0.887222 0.064321
C54   C     C_3   0.385894 0.446892 0.952858 -0.304490
H41   H     H_    0.425258 0.342022 0.943964 0.186243
H42   H     H_    0.411496 0.526185 0.008995 0.143249
C55   C     C_3   0.320509 0.338907 0.960389 -0.692762
H43   H     H_    0.280689 0.441317 0.969902 0.216383
H44   H     H_    0.337089 0.239671 0.011825 0.202247
H45   H     H_    0.295233 0.253273 0.906001 0.242461
O26   O     O_3   0.815758 0.578503 0.283638 -0.581473
C56   C     C_3   0.873125 0.606711 0.354520 0.084961
H46   H     H_    0.855588 0.718011 0.389441 0.134220
H47   H     H_    0.919791 0.671119 0.341913 0.149223
C57   C     C_3   0.893678 0.426983 0.407453 -0.362277
H48   H     H_    0.846801 0.377744 0.424824 0.212251
H49   H     H_    0.910515 0.308355 0.375252 0.177899
C58   C     C_3   0.955811 0.471053 0.481949 -0.829745
H50   H     H_    0.003752 0.515254 0.465575 0.226566
H51   H     H_    0.969305 0.340644 0.519530 0.237511
H52   H     H_    0.941221 0.588166 0.516590 0.231109
H53   H     H_    0.200107 0.453930 0.766734 0.133471
H54   H     H_    0.684006 0.531549 0.248180 0.141285
H55   H     H_    0.147167 0.088098 0.863585 0.124232
H56   H     H_    0.670570 0.929735 0.392605 0.127116
H57   H     H_    0.228289 0.068982 0.783536 0.127219
H58   H     H_    0.755404 0.953473 0.317063 0.140366
O27   O     O_3   0.691754 0.057742 0.686530 -0.562429
C59   C     C_3   0.727498 0.211846 0.734283 0.119338
H59   H     H_    0.724606 0.333989 0.694006 0.128653
H60   H     H_    0.786042 0.186632 0.759636 0.122309
C60   C     C_3   0.691682 0.259918 0.798356 -0.339911
H61   H     H_    0.645553 0.356072 0.773451 0.178664
H62   H     H_    0.668711 0.129391 0.816893 0.191160
C61   C     C_3   0.744382 0.349368 0.872259 -0.839540
H63   H     H_    0.790203 0.251601 0.898039 0.233206
H64   H     H_    0.717253 0.375663 0.917714 0.227065
H65   H     H_    0.764851 0.487422 0.857362 0.232892
O28   O     O_3   0.212364 0.980004 0.132700 -0.567357
C62   C     C_3   0.240218 0.796414 0.159084 0.089588
H66   H     H_    0.196966 0.690880 0.133152 0.149396
H67   H     H_    0.255107 0.776104 0.224555 0.117707
C63   C     C_3   0.302237 0.750199 0.126730 -0.329095
H68   H     H_    0.282070 0.746706 0.060768 0.195569
H69   H     H_    0.343929 0.863692 0.144234 0.189845
C64   C     C_3   0.336098 0.556897 0.156946 -0.833615
H70   H     H_    0.352926 0.552285 0.222835 0.243792
H71   H     H_    0.383974 0.534659 0.137446 0.227397
H72   H     H_    0.297567 0.438903 0.132316 0.238126

loop_
_geom_bond_atom_site_label_1
_geom_bond_atom_site_label_2
_ccdc_geom_bond_type
C38   C40   D    
C64   H70   S    
C29   H57   S    
C9    C19   A    
O21   C41   S    
O27   C59   S    
C59   C60   S    
O4    C2    A    
C56   C57   S    
V1    O19   S    
C57   C58   S    
C49   H30   S    
O23   C47   S    
C54   H41   S    
C21   C23   A    
C44   H16   S    
C58   H51   S    
O9    V1    S    
C24   C26   A    
C41   H10   S    
O16   C6    A    
C12   C14   A    
C59   H60   S    
C3    C26   S    
O3    C1    A    
C50   H33   S    
C54   H42   S    
C37   C39   D    
C8    C14   S    
C18   O26   S    
C52   H36   S    
O13   V3    S    
O24   C50   S    
C11   H23   S    
C2    O12   A    
C60   C61   S    
O9    C5    A    
C33   C35   D    
O7    C3    A    
C49   H29   S    
C34   C36   D    
O13   V1    S    
C1    C40   S    
O5    C7    A    
O7    V1    S    
C38   H8    S    
C35   H5    S    
C7    C13   S    
C23   H3    S    
C41   C42   S    
C24   H4    S    
C60   H61   S    
C62   H67   S    
O3    V1    S    
C39   O21   S    
C36   H6    S    
C61   H64   S    
C53   C54   S    
C22   C32   A    
C22   C24   A    
C64   H71   S    
C15   C17   A    
C16   C18   A    
C43   H15   S    
C51   H35   S    
C51   H34   S    
C18   C20   A    
O11   V3    S    
C63   H69   S    
C25   C27   A    
O17   V3    S    
C11   C13   A    
C58   H52   S    
C26   C28   A    
C62   C63   S    
C27   H55   S    
C41   H9    S    
C34   C38   S    
C44   H17   S    
C40   O22   S    
C48   H27   S    
C51   C52   S    
C59   H59   S    
C61   H65   S    
C13   C15   A    
O8    C4    A    
C50   C51   S    
O8    V2    S    
C46   H20   S    
C54   C55   S    
C57   H49   S    
C1    O11   A    
C55   H45   S    
C52   H37   S    
C42   H11   S    
O15   V3    S    
C9    C11   A    
O4    V2    S    
C46   H21   S    
C63   C64   S    
C14   C16   A    
C62   H66   S    
C45   C46   S    
C52   H38   S    
O10   V2    S    
O1    V3    S    
C42   H12   S    
C22   H54   S    
O22   C44   S    
C17   C19   A    
C61   H63   S    
C10   C20   A    
C43   H14   S    
C45   H19   S    
O18   V4    S    
C48   C49   S    
C47   H26   S    
O15   C5    A    
O14   V4    S    
C15   O23   S    
O1    C3    A    
O12   V4    S    
C56   H46   S    
C53   H39   S    
C53   H40   S    
C63   H68   S    
V2    O20   S    
C44   C45   S    
C21   H53   S    
C19   C31   S    
C55   H44   S    
O16   V4    S    
C20   C32   S    
C10   C12   A    
C43   H13   S    
C56   H47   S    
O25   C53   S    
C30   H58   S    
C57   H48   S    
O5    V1    S    
C64   H72   S    
C47   C48   S    
O6    V2    S    
C58   H50   S    
O10   C6    A    
O18   C8    A    
O2    V4    S    
C27   C29   A    
O26   C56   S    
C33   O27   S    
V3    O19   S    
C37   H7    S    
C50   H32   S    
C46   H22   S    
V4    O20   S    
C42   C43   S    
O28   C62   S    
C16   O24   S    
C55   H43   S    
C23   C25   A    
C5    C35   S    
C9    H1    S    
C10   H2    S    
C28   C30   A    
C34   O28   S    
C6    C36   S    
O14   V2    S    
C60   H62   S    
O2    C4    A    
C29   C31   A    
C21   C31   A    
C28   H56   S    
C33   C37   S    
O6    C8    A    
C4    C25   S    
C45   H18   S    
C2    C39   S    
C48   H28   S    
C47   H25   S    
C12   H24   S    
C30   C32   A    
C49   H31   S    
C17   O25   S    
O17   C7    A    
