data_mof_unit_23202.cif
_audit_creation_date              2012-12-11T15:55:06-0500
_audit_creation_method            fapswitch 2.2
_symmetry_space_group_name_H-M    P1
_symmetry_Int_Tables_number       1
_space_group_crystal_system       triclinic
_cell_length_a                    17.382917
_cell_length_b                    24.254641
_cell_length_c                    14.918251
_cell_angle_alpha                 90.015858
_cell_angle_beta                  125.297188
_cell_angle_gamma                 90.258966
_cell_volume                      5133.41923527

loop_
_atom_site_label
_atom_site_type_symbol
_atom_type_description
_atom_site_fract_x
_atom_site_fract_y
_atom_site_fract_z
_atom_type_partial_charge
C1    C     C_R   0.900739 0.878780 0.093424 -0.157095
C2    C     C_R   0.901080 0.123964 0.092036 -0.157258
C3    C     C_R   0.400737 0.378781 0.093422 -0.157092
C4    C     C_R   0.401081 0.623965 0.092037 -0.157259
C5    C     C_R   0.054417 0.847070 0.907840 -0.143069
C6    C     C_R   0.056182 0.153453 0.909680 -0.152856
C7    C     C_R   0.554417 0.347070 0.907840 -0.143069
C8    C     C_R   0.556183 0.653454 0.909681 -0.152851
C9    C     C_R   0.147709 0.152728 0.092185 -0.157516
C10   C     C_R   0.146768 0.847039 0.090582 -0.168737
C11   C     C_R   0.647711 0.652727 0.092185 -0.157522
C12   C     C_R   0.646770 0.347040 0.090582 -0.168722
C13   C     C_R   0.323575 0.001481 0.268570 0.039975
C14   C     C_R   0.823581 0.501479 0.268600 0.040014
C15   C     C_R   0.053883 0.000218 0.729019 -0.007735
C16   C     C_R   0.553883 0.500218 0.729019 -0.007735
C17   C     C_R   0.114207 0.815125 0.998646 0.010260
C18   C     C_R   0.115755 0.185279 0.001832 0.022189
C19   C     C_R   0.614208 0.315125 0.998646 0.010252
C20   C     C_R   0.615757 0.685278 0.001833 0.022182
C21   C     C_3   0.129332 0.051544 0.545685 -0.402863
C22   C     C_3   0.971977 0.002351 0.433570 -0.402880
C23   C     C_3   0.629334 0.551543 0.545686 -0.402861
C24   C     C_3   0.471976 0.502353 0.433569 -0.402883
C25   C     C_3   0.122551 0.052126 0.644244 -0.399861
C26   C     C_3   0.967063 0.000229 0.531800 -0.391191
C27   C     C_3   0.622552 0.552125 0.644245 -0.399865
C28   C     C_3   0.467062 0.500231 0.531800 -0.391191
C29   C     C_3   0.123584 0.947973 0.541540 -0.408432
C30   C     C_3   0.623579 0.447972 0.541536 -0.408435
C31   C     C_3   0.075507 0.000611 0.471647 0.404099
C32   C     C_3   0.575506 0.500611 0.471647 0.404102
C33   C     C_3   0.067571 0.000329 0.640376 0.398420
C34   C     C_3   0.567571 0.500329 0.640375 0.398424
C35   C     C_R   0.809863 0.123954 0.907499 -0.138212
C36   C     C_R   0.807781 0.878932 0.909766 -0.127778
C37   C     C_R   0.309863 0.623954 0.907498 -0.138215
C38   C     C_R   0.307778 0.378936 0.909765 -0.127721
C39   C     C_3   0.121644 0.948684 0.643371 -0.402329
C40   C     C_3   0.621640 0.448683 0.643368 -0.402331
C41   C     C_3   0.659936 0.189055 0.881595 -0.404835
C42   C     C_3   0.645702 0.827173 0.907739 -0.405035
C43   C     C_3   0.159935 0.689054 0.881597 -0.404823
C44   C     C_3   0.145692 0.327175 0.907734 -0.404974
C45   C     C_3   0.099116 0.732868 0.886195 -0.426737
C46   C     C_3   0.096518 0.272196 0.897602 -0.418084
C47   C     C_3   0.599117 0.232870 0.886192 -0.426731
C48   C     C_3   0.596527 0.772194 0.897601 -0.418192
C49   C     C_3   0.311567 0.732735 0.036800 -0.477123
C50   C     C_3   0.294188 0.269805 0.998731 -0.430988
C51   C     C_3   0.811568 0.232734 0.036804 -0.477120
C52   C     C_3   0.794198 0.769802 0.998744 -0.430986
C53   C     C_3   0.721829 0.166354 0.079234 -0.035535
C54   C     C_3   0.755536 0.823434 0.115197 -0.064478
C55   C     C_3   0.221835 0.666356 0.079240 -0.035536
C56   C     C_3   0.255534 0.323433 0.115194 -0.064469
C57   C     C_3   0.750937 0.179185 0.998928 0.346570
C58   C     C_3   0.751152 0.824315 0.006435 0.308858
C59   C     C_3   0.250938 0.679186 0.998929 0.346566
C60   C     C_3   0.251145 0.324317 0.006428 0.308825
C61   C     C_3   0.158092 0.763239 0.999073 0.332168
C62   C     C_3   0.160153 0.237778 0.004627 0.311712
C63   C     C_3   0.658092 0.263239 0.999072 0.332166
C64   C     C_3   0.660157 0.737777 0.004629 0.311785
C65   C     C_3   0.252466 0.782330 0.020186 -0.446401
C66   C     C_3   0.249153 0.220107 0.012502 -0.459633
C67   C     C_3   0.752468 0.282329 0.020190 -0.446399
C68   C     C_3   0.749161 0.720105 0.012513 -0.459644
C69   C     C_3   0.180079 0.721530 0.092463 -0.065895
C70   C     C_3   0.190526 0.274652 0.107352 -0.013916
C71   C     C_3   0.680075 0.221529 0.092459 -0.065900
C72   C     C_3   0.690525 0.774652 0.107352 -0.013917
C73   C     C_3   0.483397 0.963522 0.340633 -0.405500
C74   C     C_3   0.468301 0.060343 0.384821 -0.420310
C75   C     C_3   0.983383 0.463493 0.340649 -0.405506
C76   C     C_3   0.968325 0.560337 0.384774 -0.420274
C77   C     C_R   0.743704 0.953898 0.696268 -0.074617
C78   C     C_R   0.743731 0.045648 0.697024 -0.115599
C79   C     C_R   0.243725 0.453901 0.696247 -0.074673
C80   C     C_R   0.243750 0.545650 0.697010 -0.115474
C81   C     C_3   0.586730 0.962450 0.443543 -0.493654
C82   C     C_3   0.568530 0.058919 0.488941 -0.457530
C83   C     C_3   0.086731 0.462442 0.443524 -0.493489
C84   C     C_3   0.068556 0.558923 0.488895 -0.457732
C85   C     C_3   0.427265 0.984095 0.464294 -0.641814
C86   C     C_3   0.927300 0.484126 0.464333 -0.641857
C87   C     C_3   0.423883 0.001911 0.361469 0.340808
C88   C     C_3   0.923894 0.501910 0.361478 0.340781
C89   C     C_3   0.596927 0.999040 0.535510 0.228662
C90   C     C_3   0.096953 0.499048 0.535487 0.228778
C91   C     C_3   0.530322 0.976716 0.567143 1.009550
C92   C     C_3   0.030367 0.476737 0.567153 1.009663
C93   C     C_R   0.051637 0.046076 0.305634 -0.155713
C94   C     C_R   0.052417 0.954512 0.306200 -0.154091
C95   C     C_R   0.551637 0.546076 0.305634 -0.155708
C96   C     C_R   0.552416 0.454512 0.306199 -0.154092
C97   C     C_R   0.809859 0.867679 0.003010 0.003051
C98   C     C_R   0.812565 0.137528 0.999346 -0.005767
C99   C     C_R   0.309854 0.367682 0.003007 0.003027
C100  C     C_R   0.312565 0.637529 0.999346 -0.005761
C101  C     C_R   0.694332 0.999562 0.635891 0.043755
C102  C     C_R   0.194365 0.499567 0.635858 0.043659
C103  C     C_R   0.070932 0.000476 0.370242 -0.004744
C104  C     C_R   0.570931 0.500476 0.370241 -0.004742
C105  C     C_R   0.267436 0.954673 0.241229 -0.135631
C106  C     C_R   0.266559 0.046899 0.242453 -0.140039
C107  C     C_R   0.767443 0.454671 0.241264 -0.135655
C108  C     C_R   0.766564 0.546898 0.242475 -0.140041
C109  C     C_R   0.022621 0.046311 0.754401 -0.140316
C110  C     C_R   0.022426 0.953946 0.754225 -0.141740
C111  C     C_R   0.522621 0.546311 0.754401 -0.140318
C112  C     C_R   0.522426 0.453946 0.754225 -0.141739
H1    H     H_    0.929743 0.871353 0.178656 0.094269
H2    H     H_    0.928282 0.131544 0.176860 0.089684
H3    H     H_    0.429740 0.371353 0.178654 0.094270
H4    H     H_    0.428284 0.631545 0.176860 0.089678
H5    H     H_    0.098983 0.090618 0.499739 0.143878
H6    H     H_    0.937179 0.040658 0.386013 0.152796
H7    H     H_    0.598989 0.590617 0.499743 0.143875
H8    H     H_    0.437181 0.540662 0.386015 0.152796
H9    H     H_    0.086348 0.090632 0.640131 0.145157
H10   H     H_    0.925995 0.036247 0.528559 0.153637
H11   H     H_    0.586351 0.590632 0.640133 0.145162
H12   H     H_    0.425996 0.536249 0.528561 0.153639
H13   H     H_    0.194447 0.053068 0.722434 0.153850
H14   H     H_    0.928060 0.962331 0.526160 0.160769
H15   H     H_    0.694449 0.553066 0.722436 0.153846
H16   H     H_    0.428058 0.462333 0.526158 0.160772
H17   H     H_    0.197642 0.945530 0.567193 0.151378
H18   H     H_    0.085930 0.910200 0.493364 0.143900
H19   H     H_    0.697636 0.445526 0.567189 0.151369
H20   H     H_    0.585922 0.410199 0.493359 0.143899
H21   H     H_    0.194845 0.949091 0.719443 0.153963
H22   H     H_    0.087456 0.909901 0.643198 0.142335
H23   H     H_    0.694842 0.449088 0.719440 0.153962
H24   H     H_    0.587451 0.409900 0.643194 0.142335
H25   H     H_    0.679087 0.204718 0.826702 0.158473
H26   H     H_    0.636830 0.835100 0.829553 0.165430
H27   H     H_    0.179083 0.704717 0.826702 0.158476
H28   H     H_    0.136806 0.335098 0.829540 0.165321
H29   H     H_    0.618850 0.150439 0.843995 0.159282
H30   H     H_    0.610128 0.861642 0.918949 0.152914
H31   H     H_    0.118851 0.650437 0.844001 0.159276
H32   H     H_    0.110121 0.361644 0.918948 0.152895
H33   H     H_    0.535376 0.213693 0.873707 0.156138
H34   H     H_    0.525909 0.780163 0.879155 0.144863
H35   H     H_    0.035376 0.713690 0.873714 0.156139
H36   H     H_    0.025902 0.280166 0.879163 0.144835
H37   H     H_    0.075127 0.761084 0.816312 0.152560
H38   H     H_    0.084706 0.249085 0.826137 0.162597
H39   H     H_    0.575132 0.261086 0.816312 0.152559
H40   H     H_    0.584721 0.749082 0.826140 0.162526
H41   H     H_    0.343457 0.739423 0.990763 0.183268
H42   H     H_    0.283084 0.266970 0.917428 0.176679
H43   H     H_    0.843460 0.239422 0.990770 0.183265
H44   H     H_    0.783099 0.766966 0.917444 0.176714
H45   H     H_    0.753573 0.130435 0.822356 0.100324
H46   H     H_    0.750659 0.871474 0.825169 0.121558
H47   H     H_    0.253571 0.630432 0.822355 0.100339
H48   H     H_    0.250652 0.371485 0.825168 0.121380
H49   H     H_    0.238707 0.806775 0.949061 0.180130
H50   H     H_    0.231752 0.189153 0.947948 0.177607
H51   H     H_    0.738712 0.306775 0.949067 0.180128
H52   H     H_    0.731764 0.689150 0.947962 0.177609
H53   H     H_    0.786526 0.156420 0.161629 0.080752
H54   H     H_    0.829159 0.811731 0.182191 0.096822
H55   H     H_    0.286533 0.656424 0.161634 0.080748
H56   H     H_    0.329158 0.311731 0.182184 0.096823
H57   H     H_    0.238541 0.740788 0.171013 0.101603
H58   H     H_    0.238850 0.249680 0.181848 0.077677
H59   H     H_    0.738537 0.240785 0.171011 0.101614
H60   H     H_    0.738846 0.749681 0.181849 0.077673
H61   H     H_    0.370493 0.729689 0.125500 0.168741
H62   H     H_    0.371628 0.268192 0.062551 0.161379
H63   H     H_    0.870492 0.229687 0.125505 0.168748
H64   H     H_    0.871637 0.768190 0.062568 0.161370
H65   H     H_    0.293910 0.809237 0.094309 0.160815
H66   H     H_    0.300784 0.200514 0.093494 0.160918
H67   H     H_    0.793912 0.309236 0.094314 0.160825
H68   H     H_    0.800789 0.700513 0.093507 0.160915
H69   H     H_    0.453459 0.921278 0.316952 0.148000
H70   H     H_    0.429107 0.090867 0.399343 0.156949
H71   H     H_    0.953456 0.421244 0.317053 0.148048
H72   H     H_    0.929141 0.590884 0.399270 0.156927
H73   H     H_    0.481963 0.979320 0.269640 0.168160
H74   H     H_    0.468268 0.075024 0.314090 0.169263
H75   H     H_    0.981912 0.479255 0.269609 0.168133
H76   H     H_    0.968294 0.574989 0.314026 0.169293
H77   H     H_    0.634164 0.978243 0.421762 0.182838
H78   H     H_    0.617726 0.075182 0.470107 0.166584
H79   H     H_    0.134136 0.478230 0.421696 0.182804
H80   H     H_    0.117753 0.575180 0.470057 0.166615
H81   H     H_    0.730665 0.911490 0.668809 0.112504
H82   H     H_    0.732001 0.088129 0.670722 0.077790
H83   H     H_    0.230683 0.411491 0.668790 0.112810
H84   H     H_    0.232023 0.588132 0.670715 0.077777
H85   H     H_    0.608234 0.919330 0.471384 0.181996
H86   H     H_    0.572261 0.087058 0.550346 0.189246
H87   H     H_    0.108250 0.419327 0.471388 0.182001
H88   H     H_    0.072285 0.587068 0.550291 0.189249
H89   H     H_    0.381414 0.948406 0.449194 0.122052
H90   H     H_    0.393281 0.017618 0.480719 0.187160
H91   H     H_    0.881422 0.448458 0.449280 0.122055
H92   H     H_    0.893362 0.517675 0.480768 0.187161
H93   H     H_    0.064166 0.088819 0.330757 0.085402
H94   H     H_    0.066386 0.912011 0.332257 0.083688
H95   H     H_    0.564165 0.588819 0.330757 0.085398
H96   H     H_    0.566385 0.412010 0.332256 0.083686
H97   H     H_    0.290346 0.912273 0.256627 0.085388
H98   H     H_    0.286019 0.089831 0.253707 0.091678
H99   H     H_    0.790352 0.412271 0.256671 0.085389
H100  H     H_    0.786023 0.589831 0.253729 0.091671
H101  H     H_    0.029069 0.089050 0.739698 0.089815
H102  H     H_    0.028588 0.911233 0.739413 0.089552
H103  H     H_    0.529069 0.589050 0.739698 0.089818
H104  H     H_    0.528587 0.411233 0.739413 0.089553
H105  H     H_    0.008898 0.834173 0.823067 0.082505
H106  H     H_    0.013364 0.167161 0.825338 0.085216
H107  H     H_    0.508897 0.334173 0.823067 0.082513
H108  H     H_    0.513366 0.667161 0.825339 0.085222
H109  H     H_    0.190099 0.165161 0.177346 0.078755
H110  H     H_    0.189411 0.833591 0.175157 0.087180
H111  H     H_    0.690101 0.665160 0.177347 0.078756
H112  H     H_    0.689413 0.333592 0.175157 0.087182
H113  H     H_    0.204534 0.050287 0.575226 0.158448
H114  H     H_    0.932168 0.966842 0.378414 0.169966
H115  H     H_    0.704537 0.550283 0.575228 0.158443
H116  H     H_    0.432164 0.466846 0.378411 0.169967
N1    N     N_R   0.950530 0.896220 0.057200 -0.033746
N2    N     N_R   0.950530 0.103780 0.057200 -0.033004
N3    N     N_R   0.450530 0.396220 0.057200 -0.033752
N4    N     N_R   0.450530 0.603780 0.057200 -0.033004
N5    N     N_R   0.893330 0.103780 0.942800 -0.034929
N6    N     N_R   0.893330 0.896220 0.942800 -0.040776
N7    N     N_R   0.393330 0.603780 0.942800 -0.034933
N8    N     N_R   0.393330 0.396220 0.942800 -0.040766
N9    N     N_R   0.818150 0.971400 0.792440 -0.047267
N10   N     N_R   0.818150 0.028600 0.792440 -0.039809
N11   N     N_R   0.318150 0.471400 0.792440 -0.047268
N12   N     N_R   0.318150 0.528600 0.792440 -0.039809
N13   N     N_R   0.025710 0.028600 0.207560 -0.031615
N14   N     N_R   0.025710 0.971400 0.207560 -0.030466
N15   N     N_R   0.525710 0.528600 0.207560 -0.031615
N16   N     N_R   0.525710 0.471400 0.207560 -0.030466
N17   N     N_R   0.181850 0.971400 0.207560 -0.036495
N18   N     N_R   0.181850 0.028600 0.207560 -0.036610
N19   N     N_R   0.681850 0.471400 0.207560 -0.036491
N20   N     N_R   0.681850 0.528600 0.207560 -0.036608
N21   N     N_R   0.974290 0.028600 0.792440 -0.038137
N22   N     N_R   0.974290 0.971400 0.792440 -0.039886
N23   N     N_R   0.474290 0.528600 0.792440 -0.038140
N24   N     N_R   0.474290 0.471400 0.792440 -0.039887
N25   N     N_R   0.049470 0.896220 0.942800 -0.032297
N26   N     N_R   0.049470 0.103780 0.942800 -0.031559
N27   N     N_R   0.549470 0.396220 0.942800 -0.032299
N28   N     N_R   0.549470 0.603780 0.942800 -0.031561
N29   N     N_R   0.106670 0.103780 0.057200 -0.031872
N30   N     N_R   0.106670 0.896220 0.057200 -0.029486
N31   N     N_R   0.606670 0.603780 0.057200 -0.031872
N32   N     N_R   0.606670 0.396220 0.057200 -0.029488
Ni1   Ni    Ni4+2 0.065600 0.934400 0.131190 0.204649
Ni2   Ni    Ni4+2 0.065600 0.065600 0.131190 0.203363
Ni3   Ni    Ni4+2 0.565600 0.434400 0.131190 0.204646
Ni4   Ni    Ni4+2 0.565600 0.565600 0.131190 0.203362
Ni5   Ni    Ni4+2 0.934400 0.065600 0.868810 0.202430
Ni6   Ni    Ni4+2 0.934400 0.934400 0.868810 0.201082
Ni7   Ni    Ni4+2 0.434400 0.565600 0.868810 0.202428
Ni8   Ni    Ni4+2 0.434400 0.434400 0.868810 0.201095
C113  C     C_3   0.654725 0.115065 0.043499 -0.423043
C114  C     C_3   0.692555 0.061039 0.029443 -0.237444
C115  C     C_3   0.632325 0.011925 0.017813 -0.989741
H117  H     H_    0.640650 0.004352 0.096256 0.272745
H118  H     H_    0.556803 0.019498 0.952753 0.272057
H119  H     H_    0.654573 0.974875 0.994894 0.252847
H120  H     H_    0.689895 0.062648 0.953397 0.218669
H121  H     H_    0.766358 0.054180 0.101332 0.203803
H122  H     H_    0.642175 0.107191 0.107194 0.212485
H123  H     H_    0.585137 0.123438 0.965761 0.191488
C116  C     C_3   0.741562 0.881163 0.149773 -0.420599
C117  C     C_3   0.772555 0.882364 0.269492 -0.240709
C118  C     C_3   0.736358 0.933572 0.293296 -0.971915
H124  H     H_    0.763020 0.971533 0.278118 0.269055
H125  H     H_    0.658060 0.933857 0.240514 0.263756
H126  H     H_    0.760913 0.933349 0.380480 0.246886
H127  H     H_    0.746591 0.845762 0.288469 0.217401
H128  H     H_    0.850746 0.881482 0.325695 0.172924
H129  H     H_    0.785056 0.912657 0.144288 0.194987
H130  H     H_    0.668357 0.895631 0.092216 0.193932
C119  C     C_3   0.154734 0.615066 0.043512 -0.423040
C120  C     C_3   0.192567 0.561039 0.029463 -0.237451
C121  C     C_3   0.132340 0.511925 0.017837 -0.989760
H131  H     H_    0.140666 0.504354 0.096281 0.272751
H132  H     H_    0.056817 0.519497 0.952778 0.272056
H133  H     H_    0.154588 0.474875 0.994920 0.252840
H134  H     H_    0.189908 0.562646 0.953417 0.218667
H135  H     H_    0.266371 0.554183 0.101352 0.203805
H136  H     H_    0.142186 0.607194 0.107208 0.212488
H137  H     H_    0.085145 0.623437 0.965774 0.191488
C122  C     C_3   0.241563 0.381162 0.149776 -0.420604
C123  C     C_3   0.272562 0.382360 0.269498 -0.240692
C124  C     C_3   0.236362 0.433565 0.293307 -0.971940
H138  H     H_    0.263021 0.471529 0.278132 0.269059
H139  H     H_    0.158065 0.433848 0.240527 0.263756
H140  H     H_    0.260919 0.433339 0.380491 0.246882
H141  H     H_    0.246605 0.345756 0.288477 0.217396
H142  H     H_    0.350753 0.381481 0.325696 0.172922
H143  H     H_    0.285055 0.412657 0.144288 0.194986
H144  H     H_    0.168357 0.395630 0.092223 0.193933
C125  C     C_3   0.597243 0.214073 0.104882 -0.424562
C126  C     C_3   0.632681 0.195535 0.221495 -0.252678
C127  C     C_3   0.551252 0.178113 0.227465 -0.959390
H145  H     H_    0.502682 0.213191 0.205653 0.257340
H146  H     H_    0.511701 0.143103 0.170570 0.262380
H147  H     H_    0.579286 0.164801 0.312335 0.246993
H148  H     H_    0.682766 0.160769 0.249330 0.190756
H149  H     H_    0.671262 0.230298 0.279722 0.182439
H150  H     H_    0.559916 0.253529 0.090629 0.191580
H151  H     H_    0.542346 0.185643 0.041842 0.195476
C128  C     C_3   0.603037 0.789867 0.108768 -0.379476
C129  C     C_3   0.607431 0.765283 0.207156 -0.276745
C130  C     C_3   0.549514 0.799126 0.234518 -0.968826
H152  H     H_    0.583109 0.840082 0.267906 0.271744
H153  H     H_    0.476995 0.805343 0.159915 0.266905
H154  H     H_    0.545599 0.777331 0.297240 0.249268
H155  H     H_    0.578990 0.722502 0.186813 0.199453
H156  H     H_    0.680897 0.763300 0.281960 0.181934
H157  H     H_    0.591119 0.834508 0.105477 0.213925
H158  H     H_    0.536535 0.774089 0.034204 0.166499
C131  C     C_3   0.097249 0.714074 0.104890 -0.424565
C132  C     C_3   0.132692 0.695538 0.221506 -0.252678
C133  C     C_3   0.051266 0.678114 0.227482 -0.959383
H159  H     H_    0.002693 0.713191 0.205667 0.257340
H160  H     H_    0.011717 0.643103 0.170591 0.262377
H161  H     H_    0.079303 0.664805 0.312353 0.247000
H162  H     H_    0.182779 0.660774 0.249343 0.190757
H163  H     H_    0.171271 0.730302 0.279730 0.182445
H164  H     H_    0.059920 0.753529 0.090635 0.191580
H165  H     H_    0.042354 0.685642 0.041854 0.195475
C134  C     C_3   0.103042 0.289865 0.108777 -0.379473
C135  C     C_3   0.107442 0.265280 0.207169 -0.276737
C136  C     C_3   0.049530 0.299122 0.234539 -0.968853
H166  H     H_    0.083124 0.340079 0.267925 0.271733
H167  H     H_    0.977008 0.305338 0.159940 0.266916
H168  H     H_    0.045621 0.277326 0.297266 0.249281
H169  H     H_    0.079000 0.222499 0.186826 0.199454
H170  H     H_    0.180910 0.263296 0.281970 0.181930
H171  H     H_    0.091123 0.334506 0.105489 0.213925
H172  H     H_    0.036538 0.274087 0.034217 0.166497
O1    O     O_3   0.559438 0.921677 0.611176 -0.685584
C137  C     C_3   0.502425 0.876701 0.544740 0.181175
H173  H     H_    0.470095 0.882715 0.456733 0.112587
H174  H     H_    0.446387 0.869021 0.557597 0.105326
C138  C     C_3   0.562282 0.825084 0.576433 -0.963226
H175  H     H_    0.593564 0.813832 0.662726 0.252145
H176  H     H_    0.517688 0.790132 0.523073 0.216190
H177  H     H_    0.619689 0.831866 0.565661 0.248403
O2    O     O_3   0.543660 0.011687 0.651994 -0.671146
C139  C     C_3   0.499281 0.990936 0.700461 0.341316
H178  H     H_    0.553494 0.971711 0.780429 0.131594
H179  H     H_    0.443418 0.959513 0.649475 0.070740
C140  C     C_3   0.453794 0.038461 0.720057 -1.029298
H180  H     H_    0.399861 0.058395 0.640858 0.256665
H181  H     H_    0.418935 0.022862 0.758284 0.220777
H182  H     H_    0.508013 0.069552 0.775256 0.271427
O3    O     O_3   0.059497 0.421699 0.611171 -0.685616
C141  C     C_3   0.002427 0.376717 0.544832 0.181199
H183  H     H_    0.969879 0.382719 0.456772 0.112549
H184  H     H_    0.946566 0.369019 0.557976 0.105408
C142  C     C_3   0.062308 0.325122 0.576347 -0.963664
H185  H     H_    0.094473 0.314137 0.662947 0.252490
H186  H     H_    0.017534 0.290051 0.523699 0.216300
H187  H     H_    0.119059 0.331785 0.564439 0.248205
O4    O     O_3   0.043741 0.511704 0.652028 -0.671163
C143  C     C_3   0.999373 0.490958 0.700512 0.341242
H188  H     H_    0.053592 0.471737 0.780480 0.131589
H189  H     H_    0.943512 0.459532 0.649539 0.070672
C144  C     C_3   0.953887 0.538484 0.720105 -1.029232
H190  H     H_    0.899963 0.558422 0.640907 0.256665
H191  H     H_    0.919019 0.522887 0.758321 0.220770
H192  H     H_    0.008109 0.569572 0.775312 0.271403

loop_
_geom_bond_atom_site_label_1
_geom_bond_atom_site_label_2
_ccdc_geom_bond_type
O2    C139  S    
C55   C59   S    
C15   C109  A    
C77   C101  A    
C121  H131  S    
C42   C58   S    
C49   H61   S    
C126  H149  S    
C124  H138  S    
C118  H126  S    
C70   C134  S    
C109  N21   A    
C46   C62   S    
C72   H60   S    
C49   H41   S    
C111  H103  S    
C82   H86   S    
C86   C88   S    
C96   H96   S    
N27   Ni8   S    
C115  H117  S    
C106  H98   S    
N28   N31   A    
C62   C70   S    
C139  C140  S    
C26   H14   S    
N1    N6    A    
C77   H81   S    
C117  H127  S    
C96   N16   A    
C144  H192  S    
C21   H5    S    
C17   C61   S    
N25   N30   A    
C5    H105  S    
C19   C63   S    
C32   C104  S    
C79   C102  A    
C36   C97   A    
C51   C57   S    
C129  H156  S    
C71   C125  S    
C76   H76   S    
C142  H187  S    
C7    N27   A    
C78   N10   A    
N17   N18   A    
C78   C101  A    
C1    H1    S    
C73   C81   S    
C138  H176  S    
C44   C46   S    
C68   H52   S    
C80   H84   S    
C40   H23   S    
C11   C20   A    
C24   H8    S    
C132  C133  S    
C135  C136  S    
C11   H111  S    
C8    N28   A    
C11   N31   A    
C35   H45   S    
C134  H172  S    
C73   H69   S    
C90   C92   S    
N16   Ni3   S    
C81   H77   S    
C52   C58   S    
C85   H90   S    
C14   C107  A    
C63   C71   S    
C7    C19   A    
C96   C104  A    
C53   C71   S    
C4    N4    A    
C123  C124  S    
C55   C119  S    
C124  H140  S    
C22   H6    S    
C89   C101  S    
C13   C106  A    
C108  N20   A    
C119  H136  S    
C14   C88   S    
O3    C141  S    
C81   H85   S    
C2    H2    S    
C122  H143  S    
N11   Ni8   S    
C137  H173  S    
C10   H110  S    
C61   C65   S    
C5    C17   A    
C130  H152  S    
C65   H49   S    
C67   H67   S    
C25   H9    S    
N19   Ni3   S    
C30   H19   S    
C16   C111  A    
N20   Ni4   S    
C39   H22   S    
C123  H141  S    
C92   O4    S    
O1    C137  S    
C91   O1    S    
C94   H94   S    
N17   Ni1   S    
C93   C103  A    
C21   C31   S    
C51   H43   S    
N21   N22   A    
C82   C89   S    
C120  H135  S    
C64   C68   S    
C110  H102  S    
C23   H7    S    
C36   N6    A    
C79   H83   S    
N13   N14   A    
N21   Ni5   S    
C143  H188  S    
C90   C102  S    
C16   C34   S    
C29   H17   S    
C74   C87   S    
C89   C91   S    
C43   C59   S    
N9    N10   A    
C59   C100  S    
C56   H56   S    
C55   C69   S    
C84   C90   S    
C131  H164  S    
C108  H100  S    
C37   N7    A    
C136  H167  S    
N7    Ni7   S    
C46   H36   S    
C62   C66   S    
C117  C118  S    
C3    N3    A    
C18   C62   S    
C42   C48   S    
N26   N29   A    
C80   C102  A    
C143  C144  S    
C116  H129  S    
C133  H160  S    
C125  H151  S    
C26   C33   S    
C130  H154  S    
C13   C87   S    
C119  C120  S    
C41   C47   S    
C113  H122  S    
C69   H57   S    
C139  H179  S    
C43   C45   S    
C141  C142  S    
C105  N17   A    
N3    N8    A    
C128  H157  S    
C132  H162  S    
C127  H146  S    
C71   H59   S    
C92   O3    S    
C135  H169  S    
C21   C25   S    
N27   N32   A    
N4    Ni4   S    
C45   H35   S    
C114  H120  S    
C24   C28   S    
C73   H73   S    
C28   H12   S    
C74   H70   S    
N1    Ni1   S    
N25   Ni6   S    
C118  H125  S    
C134  H171  S    
C56   C70   S    
C49   C59   S    
C50   C60   S    
C37   H47   S    
C38   H48   S    
C93   N13   A    
C51   C67   S    
C65   H65   S    
C30   H20   S    
C112  H104  S    
C133  H161  S    
C117  H128  S    
C144  H191  S    
C2    N2    A    
N5    Ni5   S    
C67   H51   S    
C9    C18   A    
C40   H24   S    
C86   H91   S    
C37   C100  A    
C25   C33   S    
C142  H186  S    
C115  H119  S    
C47   H33   S    
C54   C116  S    
C9    N29   A    
C42   H26   S    
C43   H31   S    
N11   N12   A    
C55   H55   S    
C76   C84   S    
C138  H175  S    
N23   N24   A    
C110  N22   A    
C140  H181  S    
C83   H79   S    
C54   H54   S    
C47   C63   S    
C48   C64   S    
C107  H99   S    
N15   N16   A    
C105  H97   S    
C66   H50   S    
C120  C121  S    
C78   H82   S    
C25   H13   S    
C141  H183  S    
C12   H112  S    
N3    Ni3   S    
C6    H106  S    
C27   H15   S    
N24   Ni8   S    
C73   C87   S    
C116  C117  S    
C35   N5    A    
C35   C98   A    
C52   H64   S    
C41   H25   S    
N18   Ni2   S    
C85   H89   S    
C81   C89   S    
C14   C108  A    
C28   C34   S    
C44   H28   S    
C113  C114  S    
C77   N9    A    
C15   C110  A    
C74   C82   S    
N32   Ni3   S    
C140  H182  S    
C126  H148  S    
C124  H139  S    
C56   C122  S    
C95   H95   S    
N29   Ni2   S    
N22   Ni6   S    
C13   C105  A    
N31   Ni4   S    
C53   C57   S    
C137  C138  S    
C136  H166  S    
C56   C60   S    
N9    Ni6   S    
C122  C123  S    
C134  C135  S    
C8    C20   A    
C129  H155  S    
C137  H174  S    
C22   H114  S    
C53   H53   S    
N28   Ni7   S    
C47   H39   S    
C94   C103  A    
N13   Ni2   S    
C48   H40   S    
C138  H177  S    
C16   C112  A    
C93   H93   S    
C39   H21   S    
C123  H142  S    
C126  C127  S    
C121  H132  S    
C4    H4    S    
C75   H75   S    
C38   N8    A    
C38   C99   A    
C23   C32   S    
C70   H58   S    
C41   C57   S    
C3    H3    S    
C129  C130  S    
C75   C83   S    
C44   C60   S    
C57   C98   S    
C12   C19   A    
C45   C61   S    
C143  H189  S    
C128  C129  S    
C9    H109  S    
C22   C26   S    
N8    Ni8   S    
C114  C115  S    
C26   H10   S    
C111  N23   A    
C28   H16   S    
C74   H74   S    
C127  H145  S    
N26   Ni5   S    
C131  C132  S    
C79   N11   A    
C133  H159  S    
C60   C99   S    
C75   H71   S    
C24   C32   S    
C85   C91   S    
C125  C126  S    
C84   H88   S    
C66   H66   S    
C33   C39   S    
C49   C65   S    
C34   C40   S    
C119  H137  S    
C107  N19   A    
C50   H42   S    
C109  H101  S    
C122  H144  S    
N6    Ni6   S    
C10   C17   A    
C5    N25   A    
C6    N26   A    
N2    N5    A    
C125  H150  S    
C130  H153  S    
C48   H34   S    
C42   H30   S    
C10   N30   A    
C43   H27   S    
C23   C27   S    
C76   C88   S    
C52   C68   S    
C36   H46   S    
C7    H107  S    
C132  H163  S    
C82   H78   S    
N12   Ni7   S    
C58   C97   S    
C135  H170  S    
C112  N24   A    
C85   C87   S    
C27   C34   S    
C6    C18   A    
C63   C67   S    
C22   C31   S    
C120  H134  S    
C114  H121  S    
C121  H133  S    
C1    C97   A    
C27   H11   S    
C118  H124  S    
C68   H68   S    
N4    N7    A    
C31   C103  S    
C20   C64   S    
N23   Ni7   S    
C51   H63   S    
C41   H29   S    
C8    H108  S    
C3    C99   A    
C72   C128  S    
C29   H18   S    
C44   H32   S    
C29   C39   S    
C30   C40   S    
C106  N18   A    
C50   C66   S    
C144  H190  S    
C46   H38   S    
C53   C113  S    
C4    C100  A    
N30   Ni1   S    
N15   Ni4   S    
C83   H87   S    
C86   H92   S    
C131  H165  S    
C24   H116  S    
C95   C104  A    
C142  H185  S    
C54   C58   S    
C136  H168  S    
C61   C69   S    
C115  H118  S    
C83   C90   S    
N10   Ni5   S    
C23   H115  S    
N19   N20   A    
C69   C131  S    
C52   H44   S    
C21   H113  S    
C140  H180  S    
C50   H62   S    
C116  H130  S    
C80   N12   A    
C94   N14   A    
C29   C31   S    
C86   C92   S    
O4    C143  S    
C30   C32   S    
C91   O2    S    
N2    Ni2   S    
N14   Ni1   S    
C113  H123  S    
C84   H80   S    
C45   H37   S    
C64   C72   S    
C139  H178  S    
C141  H184  S    
C1    N1    A    
C75   C88   S    
C54   C72   S    
C128  H158  S    
C2    C98   A    
C127  H147  S    
C12   N32   A    
C76   H72   S    
C15   C33   S    
C95   N15   A    
