data_mof_unit_67369.cif
_audit_creation_date              2013-03-05T16:08:38-0500
_audit_creation_method            fapswitch 2.2
_symmetry_space_group_name_H-M    P1
_symmetry_Int_Tables_number       1
_space_group_crystal_system       triclinic
_cell_length_a                    8.668209
_cell_length_b                    15.295021
_cell_length_c                    16.162087
_cell_angle_alpha                 110.16258
_cell_angle_beta                  96.823816
_cell_angle_gamma                 81.202181
_cell_volume                      1982.74504531

loop_
_atom_site_label
_atom_site_type_symbol
_atom_site_description
_atom_site_fract_x
_atom_site_fract_y
_atom_site_fract_z
_atom_type_partial_charge
P1    P     P_3+3 0.592580 0.619750 0.703570 0.545459
O1    O     O_2   0.428380 0.595300 0.716110 -0.287279
O2    O     O_3   0.649320 0.571650 0.606870 -0.401313
O3    O     O_3   0.202060 0.415880 0.655570 -0.364216
O4    O     O_2   0.306622 0.511062 0.813226 -0.381010
O5    O     O_3   0.607229 0.741416 0.757634 -0.600294
O6    O     O_3   0.281258 0.333711 0.789562 -0.559212
C1    C     C_3   0.216712 0.178566 0.781237 -1.027248
H1    H     H_    0.143037 0.123083 0.741062 0.214415
H2    H     H_    0.336100 0.143482 0.788722 0.268817
P2    P     P_3+3 0.156510 0.273300 0.422380 0.456162
P3    P     P_3+3 0.665500 0.247365 0.617013 0.551745
O7    O     O_2   0.338790 0.265210 0.448200 -0.324318
O8    O     O_3   0.612600 0.359140 0.609510 -0.239255
O9    O     O_2   0.545470 0.194069 0.546890 -0.394647
O10   O     O_3   0.171334 0.232224 0.305917 -0.582473
O11   O     O_3   0.596833 0.246175 0.719524 -0.549680
C2    C     C_3   0.670331 0.298263 0.802976 0.305291
C3    C     C_3   0.648589 0.262626 0.884029 0.034116
C4    C     C_3   0.590216 0.195727 0.276014 0.316545
H3    H     H_    0.471631 0.217803 0.300495 0.126677
C5    C     C_3   0.593674 0.092780 0.204541 0.160579
Ba1   Ba    Ba6+2 0.364200 0.465260 0.540900 1.616491
C6    C     C_3   0.528739 0.812665 0.725918 0.336509
C7    C     C_3   0.558753 0.908831 0.798664 -0.199155
H4    H     H_    0.512912 0.967098 0.772705 0.115013
C8    C     C_3   0.079425 0.284713 0.257415 0.365227
H5    H     H_    0.018454 0.349608 0.300296 0.097200
C9    C     C_3   0.963444 0.224097 0.192581 -0.382603
H6    H     H_    0.879246 0.267848 0.161274 0.215902
H7    H     H_    0.900343 0.198517 0.232772 0.207378
P4    P     P_3+3 0.597130 0.380170 0.296420 0.532522
O12   O     O_2   0.761310 0.404660 0.283830 -0.415581
O13   O     O_3   0.540390 0.428270 0.393120 -0.355353
O14   O     O_3   0.987650 0.584040 0.344420 -0.381422
O15   O     O_3   0.625117 0.258014 0.236211 -0.574943
P5    P     P_3+3 0.531451 0.759777 0.400178 0.492980
O16   O     O_3   0.122130 0.620580 0.549200 -0.321272
O17   O     O_3   0.577110 0.640790 0.390470 -0.325984
O18   O     O_2   0.680942 0.803577 0.446904 -0.343182
O19   O     O_3   0.538845 0.761750 0.293096 -0.497559
Ba2   Ba    Ba6+2 0.825630 0.534670 0.459090 1.640499
P6    P     P_3+3 0.192346 0.437458 0.768061 0.458792
C10   C     C_3   0.214512 0.251503 0.734226 0.655417
H8    H     H_    0.096861 0.267620 0.708610 0.115551
H9    H     H_    0.173969 0.207495 0.847845 0.282234
O20   O     O_3   0.067580 0.379340 0.450790 -0.412863
C11   C     C_3   0.031293 0.731152 0.739686 0.375462
H10   H     H_    0.909044 0.718775 0.740830 0.066105
H11   H     H_    0.101794 0.662481 0.709848 0.138019
C12   C     C_3   0.102098 0.777359 0.834135 -0.373597
H12   H     H_    0.059768 0.853566 0.857702 0.211181
H13   H     H_    0.231336 0.770502 0.834255 0.237954
P7    P     P_3+3 0.031378 0.738792 0.578710 0.502046
O21   O     O_2   0.850900 0.734750 0.551740 -0.384335
O22   O     O_3   0.031386 0.794321 0.693644 -0.599823
C13   C     C_3   0.390785 0.749395 0.248402 0.373364
H14   H     H_    0.357426 0.680515 0.243480 0.071747
H15   H     H_    0.301038 0.806402 0.282313 0.066814
C14   C     C_3   0.395790 0.753067 0.155914 -0.963851
H16   H     H_    0.477901 0.693866 0.117566 0.275322
H17   H     H_    0.277459 0.748631 0.121227 0.205561
H18   H     H_    0.434979 0.820186 0.159736 0.259081
P8    P     P_3+3 0.993363 0.553162 0.229994 0.454570
C15   C     C_3   0.964953 0.721112 0.229905 0.443066
H19   H     H_    0.081292 0.703644 0.202442 -0.071049
O23   O     O_2   0.899169 0.468578 0.188449 -0.412755
O24   O     O_3   0.881737 0.642969 0.198614 -0.485797
H20   H     H_    0.981648 0.744752 0.303457 0.063059
C16   C     C_3   0.874433 0.802141 0.202622 -0.114347
H21   H     H_    0.767953 0.827913 0.240244 0.215194
C17   C     C_2   0.312041 0.495321 0.256692 -0.488960
C18   C     C_R   0.885040 0.524653 0.750957 -0.382430
C19   C     C_2   0.518617 0.449812 0.153697 -0.162957
C20   C     C_2   0.470957 0.447238 0.229038 0.376712
C21   C     C_2   0.201633 0.521822 0.199577 0.025352
C22   C     C_3   0.247081 0.504868 0.106765 0.162478
C23   C     C_3   0.421590 0.507069 0.102069 -0.059795
C24   C     C_2   0.139790 0.547056 0.044967 -0.173910
C25   C     C_2   0.074148 0.491065 0.968511 -0.029372
C26   C     C_R   0.827464 0.578999 0.929077 0.041627
C27   C     C_R   0.971836 0.527559 0.902688 -0.139491
C28   C     C_R   0.714322 0.603544 0.868797 -0.264398
C29   C     C_R   0.738511 0.573391 0.778372 0.367821
C30   C     C_R   0.001617 0.500325 0.811501 0.259457
H22   H     H_    0.631492 0.414640 0.131449 0.165457
H23   H     H_    0.606058 0.645234 0.892832 0.182727
H24   H     H_    0.909302 0.505947 0.682441 0.144204
H25   H     H_    0.126591 0.621954 0.058367 0.122176
C31   C     C_R   0.347148 0.826886 0.457175 0.148912
C32   C     C_R   0.274185 0.918548 0.457816 -0.042459
C33   C     C_R   0.118383 0.098568 0.456182 -0.072034
C34   C     C_R   0.247221 0.052246 0.406247 0.323006
C35   C     C_R   0.341621 0.977191 0.425242 0.149515
C36   C     C_R   0.066094 0.196229 0.472387 0.128190
C37   C     C_R   0.943528 0.238046 0.530443 -0.358288
C38   C     C_R   0.120171 0.809437 0.525737 0.249029
C39   C     C_R   0.050550 0.898685 0.526215 -0.111351
C40   C     C_R   0.124373 0.953884 0.492600 0.070025
C41   C     C_R   0.913124 0.936412 0.566548 -0.078277
C42   C     C_R   0.854134 0.029421 0.584546 0.187282
C43   C     C_R   0.918596 0.088609 0.549855 -0.081555
C44   C     C_R   0.051812 0.047090 0.498599 0.008460
C45   C     C_R   0.861710 0.186410 0.566219 0.236335
C46   C     C_R   0.269286 0.777276 0.494366 -0.420408
H26   H     H_    0.857244 0.896325 0.594111 0.216997
H27   H     H_    0.903970 0.311870 0.543713 0.187311
H28   H     H_    0.330490 0.714560 0.503399 0.223492
C47   C     C_3   0.296765 0.201845 0.651071 -0.700662
H29   H     H_    0.226711 0.148170 0.609357 0.134484
H30   H     H_    0.309635 0.250859 0.616518 0.290588
H31   H     H_    0.404073 0.158508 0.662219 0.259706
C48   C     C_3   0.723316 0.067266 0.140309 -0.807805
H32   H     H_    0.839786 0.057077 0.174390 0.232133
H33   H     H_    0.709079 0.999428 0.086566 0.242623
H34   H     H_    0.715980 0.121227 0.108125 0.276280
C49   C     C_3   0.619459 0.016534 0.247973 -1.215071
H35   H     H_    0.739190 0.010959 0.279056 0.316371
H36   H     H_    0.543666 0.034986 0.301084 0.263075
H37   H     H_    0.596650 0.947110 0.199749 0.287321
C50   C     C_2   0.441146 0.082726 0.147680 0.745932
H38   H     H_    0.354972 0.044327 0.158285 -0.040616
O25   O     O_2   0.415763 0.114174 0.086714 -0.546141
C51   C     C_2   0.360428 0.806631 0.710673 0.320561
H39   H     H_    0.274958 0.867941 0.733567 0.012335
O26   O     O_2   0.319325 0.731861 0.665613 -0.555606
C52   C     C_2   0.581699 0.804132 0.638542 0.451153
H40   H     H_    0.595364 0.735628 0.588261 0.114922
O27   O     O_2   0.590174 0.873544 0.619345 -0.650200
C53   C     C_2   0.475329 0.926825 0.881227 0.551601
H41   H     H_    0.387172 0.987078 0.901933 0.039089
O28   O     O_2   0.505464 0.874407 0.924939 -0.574124
C54   C     C_3   0.733912 0.914298 0.825079 -0.812007
H42   H     H_    0.783466 0.857807 0.852140 0.281202
H43   H     H_    0.797806 0.908106 0.767595 0.258227
H44   H     H_    0.753883 0.981285 0.877705 0.218103
C55   C     C_2   0.176863 0.311890 0.202266 0.383783
H45   H     H_    0.121598 0.350556 0.160218 0.113543
O29   O     O_2   0.314901 0.284089 0.197160 -0.561679
C56   C     C_3   0.038681 0.140277 0.118057 -0.852836
H46   H     H_    0.096792 0.084981 0.144600 0.253605
H47   H     H_    0.949763 0.109547 0.065213 0.237244
H48   H     H_    0.122199 0.161150 0.083714 0.306808
C57   C     C_3   0.063453 0.734945 0.900269 -1.018621
H49   H     H_    0.935549 0.733521 0.897965 0.273869
H50   H     H_    0.126211 0.663487 0.886294 0.292266
H51   H     H_    0.103744 0.777839 0.967941 0.274425
C58   C     C_3   0.767202 0.299959 0.964103 -1.021391
H52   H     H_    0.766171 0.377127 0.984371 0.239400
H53   H     H_    0.740398 0.282693 0.021871 0.278392
H54   H     H_    0.887488 0.265627 0.949422 0.287903
C59   C     C_2   0.975030 0.879813 0.226511 0.368782
H55   H     H_    0.029165 0.894540 0.176254 0.073749
O30   O     O_2   0.000587 0.925318 0.303941 -0.627248
C60   C     C_2   0.606374 0.400207 0.826829 0.736355
H56   H     H_    0.604261 0.446279 0.894944 -0.160921
O31   O     O_2   0.566264 0.433879 0.768836 -0.479826
C61   C     C_3   0.822983 0.772512 0.103860 -0.949751
H57   H     H_    0.741249 0.718742 0.086824 0.296230
H58   H     H_    0.760717 0.833522 0.086457 0.262277
H59   H     H_    0.925740 0.743994 0.063759 0.244698
C62   C     C_2   0.272139 0.503118 0.344505 0.768823
H60   H     H_    0.209596 0.451918 0.354060 -0.014832
O32   O     O_2   0.310972 0.567763 0.408051 -0.575479
C63   C     C_2   0.091330 0.389098 0.949106 0.542725
H61   H     H_    0.071419 0.347205 0.882891 0.046233
O33   O     O_2   0.122959 0.351691 0.005571 -0.586272
C64   C     C_3   0.241255 0.049966 0.312858 -0.880817
H62   H     H_    0.119917 0.069272 0.288688 0.257821
H63   H     H_    0.317876 0.098897 0.309769 0.254112
H64   H     H_    0.281628 0.978755 0.267802 0.227242
C65   C     C_3   0.515292 0.976838 0.429956 -0.859758
H65   H     H_    0.568591 0.963034 0.490387 0.286017
H66   H     H_    0.566358 0.926076 0.370009 0.283588
H67   H     H_    0.545967 0.046319 0.436747 0.255759
C66   C     C_3   0.740870 0.062180 0.653232 -0.912812
H68   H     H_    0.788944 0.120682 0.704215 0.245217
H69   H     H_    0.622950 0.075936 0.623936 0.286129
H70   H     H_    0.733306 0.012005 0.687695 0.253948
C67   C     C_2   0.837626 0.290995 0.791512 0.256245
H71   H     H_    0.918470 0.234968 0.803133 0.046513
O34   O     O_2   0.879638 0.343338 0.759493 -0.676488
C68   C     C_2   0.488837 0.297300 0.922069 0.737404
H72   H     H_    0.435429 0.368401 0.931434 -0.017147
O35   O     O_2   0.424633 0.249818 0.951750 -0.538836
C69   C     C_3   0.675347 0.154950 0.857849 -0.815597
H73   H     H_    0.798193 0.127009 0.842337 0.222614
H74   H     H_    0.654295 0.132776 0.913764 0.270754
H75   H     H_    0.594033 0.122490 0.801469 0.244886
C70   C     C_2   0.703238 0.200756 0.354267 0.447043
H76   H     H_    0.817051 0.159387 0.347431 -0.017630
O36   O     O_2   0.668454 0.255733 0.426073 -0.536467

loop_
_geom_bond_atom_site_label_1
_geom_bond_atom_site_label_2
_geom_bond_distance
_ccdc_geom_bond_type
C5    C49   1.532964 S    
C40   C44   1.443007 A    
C6    C7    1.570252 S    
O2    Ba2   2.834063 S    
C42   C43   1.423097 A    
C8    C9    1.527523 S    
P2    O20   1.619831 S    
C36   C37   1.426026 A    
O13   Ba2   3.050705 S    
C56   H48   1.105642 S    
C17   C21   1.364429 D    
C5    C48   1.535130 S    
P4    C20   1.891658 S    
C38   C39   1.403379 A    
C13   H14   1.108959 S    
C63   H61   1.050156 S    
C12   C57   1.518250 S    
C67   H71   1.075491 S    
P1    C29   1.875540 S    
C55   O29   1.209528 D    
C8    C55   1.490745 S    
Ba1   Ba2   4.732528 S    
P5    C31   1.910682 S    
C14   H18   1.109541 S    
O12   Ba2   2.892987 S    
P4    O15   1.777843 S    
C58   H53   1.111644 S    
O16   Ba2   3.045896 S    
P5    O18   1.543528 D    
C68   O35   1.222507 D    
C3    C69   1.539883 S    
C4    C70   1.492247 S    
C13   H15   1.109156 S    
C60   O31   1.210442 D    
C15   C16   1.530730 S    
C6    C51   1.462145 S    
O7    Ba1   2.936476 S    
C14   H17   1.108790 S    
P1    O1    1.578095 D    
P2    Ba1   3.528592 S    
O14   Ba2   2.808026 S    
C41   C42   1.377442 A    
C61   H59   1.107761 S    
C35   C65   1.497548 S    
O2    Ba1   3.049738 S    
C11   C12   1.540360 S    
C34   C64   1.492565 S    
C67   O34   1.208697 D    
C1    H1    1.112200 S    
P3    O11   1.832494 S    
C6    C52   1.493560 S    
C58   H54   1.106616 S    
P7    C38   1.881922 S    
C16   H21   1.110796 S    
O6    P6    1.781882 S    
C7    C54   1.534514 S    
C18   C29   1.407726 A    
C33   C44   1.424059 A    
C65   H67   1.100549 S    
C48   H34   1.108074 S    
C38   C46   1.399656 A    
C10   C47   1.499940 S    
C15   O24   1.401753 S    
O10   C8    1.408379 S    
C64   H63   1.090601 S    
O4    P6    1.544096 D    
C2    C67   1.466272 S    
C63   O33   1.219770 D    
C61   H58   1.109947 S    
C57   H51   1.110520 S    
C7    C53   1.514758 S    
C26   C28   1.401571 A    
C65   H66   1.102574 S    
C26   C27   1.400481 A    
O17   Ba2   2.847586 S    
C62   O32   1.210521 D    
C22   C24   1.522782 S    
P4    Ba2   3.511522 S    
P5    O17   1.758105 S    
C46   H28   1.070222 S    
P7    O22   1.756224 S    
C60   H56   1.083927 S    
Ba1   O20   3.046844 S    
C19   C20   1.346284 D    
C12   H12   1.111143 S    
P6    C30   1.864135 S    
P8    O23   1.544406 D    
C64   H62   1.110378 S    
C16   C59   1.497144 S    
C56   H46   1.105230 S    
C25   C27   1.504522 S    
C49   H37   1.109573 S    
C3    C68   1.526346 S    
O3    Ba1   2.808760 S    
C2    C3    1.622039 S    
C13   C14   1.521023 S    
C7    H4    1.112632 S    
C22   C23   1.529614 S    
C33   C36   1.434113 A    
C19   H22   1.079469 S    
P1    O5    1.779751 S    
C14   H16   1.109693 S    
C16   C61   1.531697 S    
P4    O13   1.582739 S    
O8    Ba1   2.846859 S    
C53   O28   1.221752 D    
C68   H72   1.081219 S    
C52   O27   1.218644 D    
C18   H24   1.082070 S    
C9    H6    1.110289 S    
Ba2   O21   2.936553 S    
C54   H44   1.105299 S    
P2    O10   1.780948 S    
C28   C29   1.403960 A    
O16   P7    1.781846 S    
P3    O9    1.540722 D    
Ba1   O13   2.833402 S    
O5    C6    1.410180 S    
O11   C2    1.438774 S    
P8    C21   1.874675 S    
C34   C35   1.406250 A    
O6    C10   1.428262 S    
C21   C22   1.521042 S    
C43   C45   1.443388 A    
C18   C30   1.420595 A    
C50   H38   1.079952 S    
O14   P8    1.748750 S    
C57   H50   1.103911 S    
C66   H68   1.085109 S    
C37   H27   1.081957 S    
C4    C5    1.598275 S    
P1    Ba1   3.510844 S    
C39   C41   1.375458 A    
C37   C45   1.429902 A    
C61   H57   1.109016 S    
C47   H31   1.091294 S    
C70   H76   1.082871 S    
C69   H74   1.111041 S    
C52   H40   1.081754 S    
Ba1   O16   2.896009 S    
P8    O24   1.742797 S    
C25   C63   1.468238 S    
C8    H5    1.094159 S    
C65   H65   1.103191 S    
C5    C50   1.514030 S    
C51   O26   1.205817 D    
C48   H32   1.107185 S    
C59   O30   1.216731 D    
P2    C36   1.935718 S    
C11   O22   1.408274 S    
C9    C56   1.544689 S    
P7    O21   1.578032 D    
C11   H10   1.107942 S    
C70   O36   1.215602 D    
C10   H8    1.079507 S    
C1    C10   1.548056 S    
C31   C46   1.400030 A    
P3    O8    1.742878 S    
C57   H49   1.108198 S    
C42   C66   1.473903 S    
C28   H23   1.082135 S    
P3    C45   1.937768 S    
C56   H47   1.105478 S    
O3    P6    1.742322 S    
C62   H60   1.078954 S    
C27   C30   1.430545 A    
C55   H45   1.074297 S    
C41   H26   1.067445 S    
C3    C58   1.553058 S    
C32   C40   1.429626 A    
P4    O12   1.578442 D    
C66   H70   1.105544 S    
C69   H75   1.102799 S    
C49   H36   1.076298 S    
C53   H41   1.085346 S    
O19   C13   1.401586 S    
C9    H7    1.095125 S    
C47   H29   1.082089 S    
C32   C35   1.407987 A    
P2    O7    1.582747 D    
C17   C20   1.499330 S    
C31   C32   1.444284 A    
C54   H42   1.106654 S    
C15   H20   1.115189 S    
C47   H30   1.102415 S    
C11   H11   1.110733 S    
C33   C34   1.406601 A    
Ba2   O20   2.895486 S    
C15   H19   1.107952 S    
P5    O19   1.750188 S    
C43   C44   1.436418 A    
C1    H9    1.099195 S    
C50   O25   1.222100 D    
C12   H13   1.108906 S    
C24   C25   1.355196 D    
C4    O15   1.403518 S    
C4    H3    1.107052 S    
C1    H2    1.103943 S    
C39   C40   1.407666 A    
C19   C23   1.510692 S    
O1    Ba1   2.892358 S    
C54   H43   1.106539 S    
C17   C62   1.461317 S    
C51   H39   1.085619 S    
C24   H25   1.080309 S    
C59   H55   1.086161 S    
C64   H64   1.111870 S    
P1    O2    1.582739 S    
C69   H73   1.108949 S    
C49   H35   1.102428 S    
C58   H52   1.109680 S    
C2    C60   1.503052 S    
C66   H69   1.095962 S    
C48   H33   1.112964 S    
