data_mof_unit_58958.cif
_audit_creation_date              2012-12-10T18:20:29-0500
_audit_creation_method            fapswitch 2.2
_symmetry_space_group_name_H-M    P1
_symmetry_Int_Tables_number       1
_space_group_crystal_system       triclinic
_cell_length_a                    14.119576
_cell_length_b                    13.610251
_cell_length_c                    14.977344
_cell_angle_alpha                 88.444677
_cell_angle_beta                  92.055843
_cell_angle_gamma                 82.194303
_cell_volume                      2848.21672146

loop_
_atom_site_label
_atom_site_type_symbol
_atom_type_description
_atom_site_fract_x
_atom_site_fract_y
_atom_site_fract_z
_atom_type_partial_charge
C1    C     C_R   0.498546 0.500944 0.326664 0.874516
C2    C     C_R   0.343462 0.442184 0.949003 0.459991
C3    C     C_R   0.811014 0.424064 0.544881 0.165886
C4    C     C_R   0.189117 0.571229 0.448911 0.168810
C5    C     C_R   0.787049 0.574364 0.456843 -0.064940
C6    C     C_R   0.212884 0.428653 0.547538 -0.065986
C7    C     C_R   0.886453 0.577855 0.460020 0.003728
C8    C     C_R   0.113620 0.424326 0.543806 -0.000303
C9    C     C_R   0.949833 0.498983 0.500034 0.035528
C10   C     C_R   0.050391 0.502750 0.502900 0.036111
C11   C     C_R   0.912821 0.415664 0.535500 -0.027153
C12   C     C_R   0.501175 0.500133 0.673295 0.878827
C13   C     C_R   0.087880 0.583351 0.462716 -0.037153
C14   C     C_R   0.922700 0.660680 0.426154 -0.244773
C15   C     C_R   0.077725 0.339547 0.574077 -0.243484
C16   C     C_R   0.517666 0.314221 0.500055 0.909444
C17   C     C_R   0.482492 0.685796 0.500682 0.892946
C18   C     C_R   0.021339 0.667391 0.430834 0.111788
C19   C     C_R   0.979945 0.330338 0.562865 0.113699
C20   C     C_1   0.469539 0.789355 0.507232 -0.186887
C21   C     C_1   0.531963 0.210264 0.499686 -0.182962
C22   C     C_2   0.464518 0.980884 0.521361 0.391099
C23   C     C_R   0.498008 0.505610 0.953350 -0.001144
C24   C     C_2   0.545048 0.016716 0.500339 0.392124
C25   C     C_1   0.541229 0.122269 0.499629 -0.098522
C26   C     C_1   0.463664 0.876670 0.514101 -0.076528
C27   C     C_R   0.424420 0.470664 0.812594 -0.226188
C28   C     C_R   0.573079 0.536362 0.187302 -0.223081
C29   C     C_R   0.501849 0.501189 0.769099 -0.093935
C30   C     C_R   0.496110 0.504767 0.230730 -0.084277
C31   C     C_R   0.576884 0.535116 0.816659 -0.229043
C32   C     C_R   0.418692 0.475759 0.182808 -0.229484
C33   C     C_R   0.576115 0.536583 0.909045 0.081382
C34   C     C_R   0.496886 0.506902 0.046147 -0.001716
C35   C     C_R   0.418652 0.476146 0.090380 0.077743
C36   C     C_3   0.708754 0.999111 0.473251 0.123461
C37   C     C_3   0.794211 0.922509 0.455642 -0.851377
C38   C     C_3   0.332222 0.004365 0.609163 0.119779
C39   C     C_3   0.252688 0.082656 0.637480 -0.874474
C40   C     C_3   0.718467 0.699389 0.105540 0.086048
C41   C     C_3   0.795067 0.726676 0.170798 -0.820040
C42   C     C_3   0.275618 0.311656 0.896935 0.088935
C43   C     C_3   0.199769 0.283128 0.831463 -0.833356
C44   C     C_3   0.773133 0.366160 0.620861 -0.394216
C45   C     C_R   0.421286 0.472879 0.904743 0.011997
C46   C     C_3   0.803268 0.403579 0.711989 -0.363941
C47   C     C_3   0.763890 0.347175 0.788760 -0.881888
C48   C     C_3   0.217705 0.599447 0.354852 -0.366204
C49   C     C_3   0.273546 0.689016 0.345009 -0.302514
C50   C     C_3   0.260368 0.736408 0.250757 -0.945097
C51   C     C_3   0.048607 0.769848 0.412936 -0.424123
C52   C     C_3   0.087448 0.812306 0.498467 -0.334295
C53   C     C_3   0.110058 0.917564 0.481630 -0.909647
C54   C     C_3   0.957240 0.224697 0.558897 -0.414057
C55   C     C_3   0.967887 0.171211 0.651180 -0.351438
C56   C     C_R   0.574356 0.538051 0.094878 0.011070
C57   C     C_3   0.926003 0.073707 0.649420 -0.899978
C58   C     C_R   0.652332 0.568039 0.957526 -0.330102
C59   C     C_R   0.342125 0.445310 0.041857 -0.326299
C60   C     C_R   0.651641 0.569798 0.050480 0.460020
H1    H     H_    0.366759 0.444455 0.774317 0.198957
H2    H     H_    0.127729 0.276055 0.597908 0.147668
H3    H     H_    0.723272 0.034224 0.537683 0.134476
H4    H     H_    0.700898 0.055920 0.417609 0.149416
H5    H     H_    0.783023 0.888413 0.390250 0.247952
H6    H     H_    0.859985 0.958806 0.453918 0.206877
H7    H     H_    0.803650 0.863759 0.509405 0.264590
H8    H     H_    0.380294 0.980838 0.668789 0.131783
H9    H     H_    0.299273 0.939854 0.584790 0.153691
H10   H     H_    0.202579 0.106072 0.579624 0.259251
H11   H     H_    0.212667 0.051697 0.691602 0.205990
H12   H     H_    0.631969 0.559884 0.225851 0.199294
H13   H     H_    0.283280 0.148280 0.662319 0.256808
H14   H     H_    0.647271 0.728080 0.131604 0.131264
H15   H     H_    0.726560 0.736080 0.039425 0.144854
H16   H     H_    0.867293 0.700819 0.146402 0.262160
H17   H     H_    0.787010 0.808443 0.177292 0.202579
H18   H     H_    0.787912 0.691472 0.237576 0.248625
H19   H     H_    0.265574 0.277740 0.963819 0.146617
H20   H     H_    0.347125 0.280804 0.872843 0.127521
H21   H     H_    0.209082 0.315119 0.763819 0.248034
H22   H     H_    0.206514 0.201103 0.827804 0.203184
H23   H     H_    0.635255 0.560875 0.781822 0.160197
H24   H     H_    0.127215 0.311459 0.853729 0.264947
H25   H     H_    0.684924 0.351897 0.781021 0.269715
H26   H     H_    0.795364 0.267827 0.790393 0.256406
H27   H     H_    0.782152 0.379753 0.853268 0.263119
H28   H     H_    0.882484 0.394722 0.720308 0.226724
H29   H     H_    0.776290 0.483855 0.715641 0.229524
H30   H     H_    0.695883 0.372882 0.617084 0.263476
H31   H     H_    0.793095 0.285658 0.618512 0.187821
H32   H     H_    0.184188 0.764256 0.233783 0.260372
H33   H     H_    0.302050 0.799816 0.246210 0.258771
H34   H     H_    0.359845 0.450517 0.217348 0.150164
H35   H     H_    0.286889 0.681263 0.200907 0.277778
H36   H     H_    0.253498 0.745453 0.395347 0.223865
H37   H     H_    0.350776 0.665805 0.353811 0.257350
H38   H     H_    0.257267 0.533335 0.325402 0.204896
H39   H     H_    0.152365 0.612908 0.310105 0.180383
H40   H     H_    0.169900 0.917225 0.435443 0.273833
H41   H     H_    0.046240 0.966126 0.452489 0.259083
H42   H     H_    0.130916 0.948567 0.545965 0.256080
H43   H     H_    0.032890 0.814074 0.550367 0.228902
H44   H     H_    0.153343 0.764773 0.524608 0.224806
H45   H     H_    0.712845 0.590423 0.923531 0.163690
H46   H     H_    0.098188 0.770060 0.358552 0.217795
H47   H     H_    0.985118 0.822054 0.387963 0.199311
H48   H     H_    0.847722 0.088357 0.634454 0.253438
H49   H     H_    0.960244 0.024973 0.598090 0.271571
H50   H     H_    0.938672 0.034744 0.715736 0.254291
H51   H     H_    0.044790 0.155219 0.672166 0.221571
H52   H     H_    0.931850 0.218531 0.702294 0.236166
H53   H     H_    0.886759 0.221299 0.524948 0.191438
H54   H     H_    0.008557 0.182811 0.514308 0.197984
H55   H     H_    0.281462 0.423229 0.075813 0.163015
H56   H     H_    0.738613 0.633720 0.423552 0.148876
H57   H     H_    0.261326 0.370809 0.582865 0.145161
H58   H     H_    0.872755 0.722591 0.399007 0.139930
N1    N     N_R   0.750030 0.500040 0.500070 -0.116171
N2    N     N_R   0.249970 0.499960 0.499930 -0.113067
O1    O     O_R   0.580280 0.500020 0.367860 -0.615134
O2    O     O_3   0.382755 0.045217 0.540836 -0.620121
O3    O     O_3   0.729964 0.595334 0.098035 -0.606688
O4    O     O_3   0.265490 0.416027 0.901252 -0.605930
O5    O     O_R   0.419720 0.499980 0.632140 -0.617523
O6    O     O_R   0.419730 0.500030 0.367840 -0.641372
O7    O     O_R   0.580270 0.499970 0.632160 -0.639232
O8    O     O_R   0.591830 0.359650 0.500030 -0.644875
O9    O     O_R   0.408170 0.640350 0.499970 -0.631733
O10   O     O_R   0.431280 0.359660 0.500010 -0.598744
O11   O     O_R   0.568720 0.640340 0.499990 -0.599032
O12   O     O_3   0.625759 0.951880 0.477570 -0.627039
Zn1   Zn    Zn3+2 0.607200 0.499990 0.500020 0.932047
Zn2   Zn    Zn3+2 0.392800 0.500010 0.499980 0.936247

loop_
_geom_bond_atom_site_label_1
_geom_bond_atom_site_label_2
_ccdc_geom_bond_type
O5    Zn2   S    
C32   H34   S    
C52   H43   S    
C34   C56   A    
C33   C58   A    
C23   C45   A    
C55   H52   S    
C17   O11   A    
C14   C18   A    
C28   C56   A    
C42   O4    S    
C46   H29   S    
C28   H12   S    
C15   C19   A    
C11   C19   A    
N1    Zn1   S    
C13   C18   A    
C5    N1    A    
C47   H25   S    
C36   C37   S    
C36   O12   S    
C41   H17   S    
C38   C39   S    
C12   C29   S    
C50   H35   S    
C27   C29   A    
C58   C60   A    
C54   H53   S    
C54   H54   S    
C17   C20   S    
C31   H23   S    
C35   C59   A    
C34   C35   A    
C4    C13   A    
C48   H39   S    
C27   H1    S    
C46   C47   S    
C39   H10   S    
C7    C14   A    
C57   H49   S    
C53   H41   S    
C23   C33   A    
C37   H5    S    
C31   C33   A    
C36   H3    S    
C16   O10   A    
C9    C10   A    
C6    H57   S    
C27   C45   A    
C38   H9    S    
C42   H19   S    
C53   H40   S    
C12   O7    A    
C43   H24   S    
O10   Zn2   S    
C6    N2    A    
C44   C46   S    
C18   C51   S    
C22   O2    S    
C46   H28   S    
C2    C45   A    
C3    C44   S    
C17   O9    A    
C51   C52   S    
C47   H26   S    
C24   C25   S    
C41   H18   S    
C5    C7    A    
C2    C59   A    
C6    C8    A    
C12   O5    A    
C14   H58   S    
C56   C60   A    
C47   H27   S    
C60   O3    S    
C32   C35   A    
C16   O8    A    
C24   O12   S    
C57   H50   S    
C53   H42   S    
C23   C34   A    
C37   H6    S    
C50   H33   S    
C1    O6    A    
C9    C11   A    
C38   O2    S    
C44   H31   S    
C3    N1    A    
C19   C54   S    
C59   H55   S    
C48   C49   S    
C38   H8    S    
C8    C15   A    
C55   C57   S    
C5    H56   S    
C43   H21   S    
C22   C24   D    
C42   C43   S    
C44   H30   S    
C52   C53   S    
C4    C48   S    
C50   H32   S    
C7    C9    A    
C40   O3    S    
C21   C25   T    
C54   C55   S    
C52   H44   S    
C55   H51   S    
C8    C10   A    
O7    Zn1   S    
O11   Zn1   S    
C10   C13   A    
C16   C21   S    
C2    O4    S    
C48   H38   S    
C40   H15   S    
C58   H45   S    
C28   C30   A    
C29   C31   A    
O8    Zn1   S    
C41   H16   S    
C30   C32   A    
C20   C26   T    
C51   H46   S    
C37   H7    S    
C1    C30   S    
C15   H2    S    
C40   H14   S    
N2    Zn2   S    
C39   H13   S    
C49   H36   S    
C1    O1    A    
C3    C11   A    
C49   H37   S    
O9    Zn2   S    
C57   H48   S    
O6    Zn2   S    
C51   H47   S    
C49   C50   S    
C22   C26   S    
C42   H20   S    
C43   H22   S    
C39   H11   S    
C4    N2    A    
C40   C41   S    
O1    Zn1   S    
C36   H4    S    
