data_mof_unit_20460.cif
_audit_creation_date              2012-12-10T18:11:04-0500
_audit_creation_method            fapswitch 2.2
_symmetry_space_group_name_H-M    P1
_symmetry_Int_Tables_number       1
_space_group_crystal_system       triclinic
_cell_length_a                    11.254717
_cell_length_b                    9.681956
_cell_length_c                    10.784906
_cell_angle_alpha                 90.090158
_cell_angle_beta                  87.203941
_cell_angle_gamma                 89.355055
_cell_volume                      1173.73002613

loop_
_atom_site_label
_atom_site_type_symbol
_atom_type_description
_atom_site_fract_x
_atom_site_fract_y
_atom_site_fract_z
_atom_type_partial_charge
C1    C     C_R   0.259138 0.500501 0.501762 0.770668
C2    C     C_3   0.508567 0.500229 0.126186 -0.066014
C3    C     C_3   0.063301 0.641508 0.574839 0.395054
C4    C     C_3   0.064828 0.362672 0.574041 0.453642
C5    C     C_3   0.921891 0.648921 0.551740 -0.044721
C6    C     C_3   0.925265 0.385190 0.602341 -0.070699
C7    C     C_3   0.071398 0.499213 0.373711 -0.436634
C8    C     C_3   0.118315 0.501545 0.508285 -0.096929
C9    C     C_3   0.875696 0.500184 0.510329 -0.134396
C10   C     C_3   0.933336 0.476603 0.376924 -0.406544
C11   C     C_3   0.613288 0.081361 0.539945 -0.220388
C12   C     C_3   0.617586 0.917582 0.529676 -0.257962
C13   C     C_3   0.402455 0.078911 0.584465 0.258458
C14   C     C_3   0.411629 0.915145 0.596079 0.214759
C15   C     C_3   0.483151 0.083320 0.375495 -0.143073
C16   C     C_3   0.476520 0.917002 0.377476 -0.149028
C17   C     C_R   0.502371 0.499909 0.261188 0.852362
C18   C     C_R   0.738635 0.499355 0.503696 0.780020
C19   C     C_R   0.507412 0.501073 0.740179 0.790453
C20   C     C_3   0.442612 0.607591 0.049055 -0.244274
C21   C     C_3   0.469501 0.380790 0.044449 -0.278107
C22   C     C_3   0.405878 0.488626 0.965633 0.276069
C23   C     C_3   0.517231 0.506406 0.878697 -0.149306
C24   C     C_3   0.556952 0.625764 0.965010 -0.005856
C25   C     C_3   0.583349 0.400823 0.960085 -0.089063
C26   C     C_3   0.621643 0.518947 0.044592 0.251039
Cu1   Cu    Cu3+1 0.499860 0.642410 0.500060 0.959961
Cu2   Cu    Cu3+1 0.499860 0.357590 0.500060 0.940949
H1    H     H_    0.893997 0.548930 0.311032 0.193196
H2    H     H_    0.906395 0.378041 0.337799 0.187253
H3    H     H_    0.629510 0.114143 0.635602 0.205374
H4    H     H_    0.654963 0.872201 0.612485 0.192153
H5    H     H_    0.685447 0.122108 0.476995 0.183183
H6    H     H_    0.683364 0.889213 0.454526 0.187025
H7    H     H_    0.560894 0.111585 0.313073 0.130661
H8    H     H_    0.547593 0.879594 0.309648 0.141571
H9    H     H_    0.320265 0.090087 0.535445 0.030995
H10   H     H_    0.326233 0.869845 0.574908 0.162729
H11   H     H_    0.382618 0.691068 0.085758 0.164325
H12   H     H_    0.433063 0.280446 0.076393 0.172327
H13   H     H_    0.091755 0.594429 0.321272 0.170015
H14   H     H_    0.121194 0.422745 0.315493 0.203385
N1    N     N_3   0.500250 0.143650 0.502780 -0.190868
N2    N     N_3   0.500250 0.856350 0.502780 -0.203247
O1    O     O_R   0.317570 0.620260 0.500070 -0.559921
O2    O     O_R   0.317570 0.379740 0.500070 -0.597092
O3    O     O_R   0.499850 0.620240 0.316900 -0.592192
O4    O     O_R   0.499850 0.379760 0.316900 -0.592115
O5    O     O_R   0.682190 0.620260 0.500030 -0.586324
O6    O     O_R   0.682190 0.379740 0.500030 -0.598724
O7    O     O_R   0.499910 0.620280 0.683200 -0.557617
O8    O     O_R   0.499910 0.379720 0.683200 -0.583279
N3    N     N_2   0.286643 0.473638 0.924459 -0.452567
H15   H     H_    0.282260 0.396309 0.859909 0.249888
C27   C     C_3   0.194673 0.464867 0.022505 -0.703512
H16   H     H_    0.106303 0.459176 0.981543 0.242349
H17   H     H_    0.194986 0.557910 0.082799 0.238650
H18   H     H_    0.207980 0.370809 0.079209 0.239978
N4    N     N_2   0.373908 0.153760 0.699102 -0.418982
H19   H     H_    0.327374 0.244287 0.690049 0.304816
C28   C     C_3   0.430839 0.136859 0.815245 -0.610449
H20   H     H_    0.438693 0.237603 0.856787 0.218377
H21   H     H_    0.520665 0.091471 0.804543 0.245615
H22   H     H_    0.372807 0.081239 0.883172 0.221279
N5    N     N_2   0.436936 0.870932 0.720619 -0.381961
H23   H     H_    0.521042 0.875535 0.750887 0.278974
C29   C     C_3   0.343014 0.833618 0.809837 -0.661359
H24   H     H_    0.374156 0.843430 0.905177 0.212111
H25   H     H_    0.319631 0.725084 0.796621 0.257069
H26   H     H_    0.265764 0.903946 0.804247 0.214792
C30   C     C_1   0.379713 0.145904 0.315574 0.295033
N6    N     N_1   0.299226 0.193494 0.267557 -0.346038
C31   C     C_1   0.367280 0.862740 0.325663 0.292577
N7    N     N_1   0.283596 0.821846 0.280337 -0.349526
C32   C     C_1   0.601306 0.766170 0.945835 0.244277
N8    N     N_1   0.637125 0.877442 0.935956 -0.300220
C33   C     C_1   0.662208 0.286014 0.919296 0.254274
N9    N     N_1   0.724393 0.195099 0.888304 -0.268814
N10   N     N_2   0.738325 0.523812 0.097013 -0.454343
H27   H     H_    0.789764 0.435809 0.083827 0.263730
C34   C     C_3   0.803113 0.651569 0.087308 -0.638849
H28   H     H_    0.755145 0.733584 0.142444 0.248124
H29   H     H_    0.815395 0.682841 0.989109 0.255897
H30   H     H_    0.893299 0.637750 0.122557 0.210314
N11   N     N_2   0.122117 0.761898 0.518016 -0.401889
H31   H     H_    0.121037 0.768414 0.423576 0.275301
C35   C     C_3   0.103163 0.896244 0.573190 -0.706365
H32   H     H_    0.153563 0.971784 0.516860 0.207536
H33   H     H_    0.141690 0.899110 0.663718 0.235197
H34   H     H_    0.008154 0.927052 0.580838 0.264929
N12   N     N_2   0.092585 0.239668 0.492310 -0.402147
H35   H     H_    0.179915 0.212454 0.487123 0.283718
C36   C     C_3   0.032052 0.177641 0.388265 -0.643542
H36   H     H_    0.060816 0.069166 0.374732 0.233752
H37   H     H_    0.057672 0.224836 0.298114 0.220095
H38   H     H_    0.934703 0.172948 0.400063 0.228798
N13   N     N_2   0.095251 0.636328 0.705950 -0.437779
H39   H     H_    0.183797 0.613231 0.714031 0.249960
C37   C     C_3   0.048795 0.719006 0.811180 -0.657551
H40   H     H_    0.120796 0.744746 0.873308 0.215104
H41   H     H_    0.986413 0.657968 0.869293 0.254194
H42   H     H_    0.005199 0.816663 0.785302 0.245373
N14   N     N_2   0.122513 0.335577 0.691983 -0.489685
H43   H     H_    0.116978 0.411651 0.757071 0.274891
C38   C     C_3   0.102908 0.205053 0.755541 -0.725669
H44   H     H_    0.157596 0.199548 0.838349 0.229429
H45   H     H_    0.131245 0.119603 0.694716 0.254113
H46   H     H_    0.009190 0.192981 0.789206 0.262651
C39   C     C_1   0.849891 0.703064 0.659094 0.258457
N15   N     N_1   0.792192 0.744583 0.742859 -0.304745
C40   C     C_1   0.894914 0.426725 0.732075 0.213751
N16   N     N_1   0.870376 0.454736 0.834424 -0.307947
C41   C     C_1   0.898074 0.751045 0.451773 0.225130
N17   N     N_1   0.883093 0.829146 0.372656 -0.339979
C42   C     C_1   0.872572 0.247656 0.605842 0.309661
N18   N     N_1   0.842712 0.134466 0.616909 -0.339499

loop_
_geom_bond_atom_site_label_1
_geom_bond_atom_site_label_2
_ccdc_geom_bond_type
C7    C10   S    
C27   H16   S    
C36   H36   S    
C3    N11   S    
C1    C8    S    
C6    C40   S    
C40   N16   T    
C17   O4    A    
C4    C8    S    
C6    C9    S    
N13   H39   S    
C7    C8    S    
N11   H31   S    
C38   H45   S    
Cu2   O2    S    
C25   C33   S    
C24   C26   S    
C1    O2    A    
N12   C36   S    
C42   N18   T    
C4    N14   S    
C31   N7    T    
C7    H14   S    
C28   H21   S    
C3    N13   S    
C34   H29   S    
Cu2   O6    S    
Cu1   N2    S    
C20   C24   S    
N5    C29   S    
C23   C24   S    
C11   N1    S    
C9    C10   S    
C16   N2    S    
C13   H9    S    
C4    N12   S    
Cu1   O1    S    
N11   C35   S    
C11   H3    S    
N4    H19   S    
C36   H37   S    
C21   C22   S    
C12   H4    S    
C2    C17   S    
C19   O8    A    
C15   H7    S    
N13   C37   S    
Cu1   O7    S    
C34   H28   S    
C22   N3    S    
N3    C27   S    
C38   H46   S    
N4    C28   S    
C15   C16   S    
C2    C20   S    
C29   H24   S    
C11   H5    S    
N14   C38   S    
C3    C8    S    
N12   H35   S    
N10   C34   S    
C20   H11   S    
C25   C26   S    
C33   N9    T    
C16   C31   S    
C29   H25   S    
C28   H22   S    
C19   C23   S    
C32   N8    T    
C5    C9    S    
C14   H10   S    
C10   H2    S    
C37   H40   S    
C37   H42   S    
C2    C21   S    
C2    C26   S    
C4    C6    S    
C37   H41   S    
C20   C22   S    
C36   H38   S    
C27   H17   S    
C35   H34   S    
C12   H6    S    
C13   N1    S    
C34   H30   S    
C18   O6    A    
C14   N2    S    
C41   N17   T    
Cu1   O3    S    
C21   C25   S    
Cu2   O4    S    
C5    C41   S    
C17   O3    A    
C3    C5    S    
C11   C12   S    
C24   C32   S    
N3    H15   S    
C13   N4    S    
C15   C30   S    
C38   H44   S    
Cu2   N1    S    
C26   N10   S    
C29   H26   S    
C35   H33   S    
C15   N1    S    
C30   N6    T    
C12   N2    S    
C39   N15   T    
C16   H8    S    
Cu2   O8    S    
C10   H1    S    
C1    O1    A    
C21   H12   S    
C5    C39   S    
C14   N5    S    
C7    H13   S    
C28   H20   S    
C6    C42   S    
N10   H27   S    
C19   O7    A    
C9    C18   S    
C23   C25   S    
C35   H32   S    
N5    H23   S    
C27   H18   S    
N14   H43   S    
C22   C23   S    
C13   C14   S    
Cu1   O5    S    
C18   O5    A    
Cu1   Cu2   S    
