data_mof_unit_9729.cif
_audit_creation_date              2013-03-05T16:45:22-0500
_audit_creation_method            fapswitch 2.2
_symmetry_space_group_name_H-M    P1
_symmetry_Int_Tables_number       1
_space_group_crystal_system       triclinic
_cell_length_a                    8.894237
_cell_length_b                    10.679284
_cell_length_c                    9.908251
_cell_angle_alpha                 89.975703
_cell_angle_beta                  89.887939
_cell_angle_gamma                 89.962933
_cell_volume                      941.124053143

loop_
_atom_site_label
_atom_site_type_symbol
_atom_site_description
_atom_site_fract_x
_atom_site_fract_y
_atom_site_fract_z
_atom_type_partial_charge
O1    O     O_R   0.500020 0.316790 0.614690 -0.598275
O2    O     O_R   0.500000 0.316760 0.385350 -0.599294
C1    C     C_R   0.503543 0.260144 0.500086 0.918846
O3    O     O_R   0.285350 0.500020 0.614650 -0.576346
O4    O     O_R   0.285340 0.499980 0.385310 -0.585153
C2    C     C_R   0.218881 0.500043 0.500054 0.938638
Zn1   Zn    Zn3+2 0.500010 0.500020 0.653130 1.012560
Zn2   Zn    Zn3+2 0.499990 0.499980 0.346870 1.015937
O5    O     O_R   0.500000 0.683240 0.614650 -0.623106
O6    O     O_R   0.499980 0.683210 0.385310 -0.633553
O7    O     O_R   0.714660 0.500020 0.614690 -0.609446
O8    O     O_R   0.714650 0.499980 0.385350 -0.561322
C3    C     C_R   0.504007 0.739828 0.500033 0.847879
C4    C     C_R   0.781146 0.499957 0.499922 0.909365
C5    C     C_1   0.065486 0.500008 0.500024 -0.100215
C6    C     C_1   0.934566 0.499971 0.499807 -0.116230
C7    C     C_R   0.510113 0.063592 0.622483 0.078989
C8    C     C_R   0.523743 0.128520 0.501232 -0.057361
C9    C     C_R   0.563842 0.064817 0.382732 -0.211061
H1    H     H_    0.585685 0.114086 0.289120 0.192900
C10   C     C_R   0.564323 0.935256 0.382736 -0.222600
H2    H     H_    0.586075 0.886125 0.289060 0.172541
C11   C     C_R   0.525232 0.871322 0.501367 -0.054043
C12   C     C_R   0.511983 0.935949 0.622727 0.066550
C13   C     C_3   0.394255 0.927062 0.730349 -0.550915
C14   C     C_3   0.391447 0.069336 0.729793 0.271231
H3    H     H_    0.288625 0.882712 0.694020 0.220078
H4    H     H_    0.439676 0.887223 0.825597 0.173751
H5    H     H_    0.430718 0.114238 0.824813 0.121794
C15   C     C_R   0.405244 0.575149 0.071078 -0.065031
N1    N     N_R   0.499010 0.499140 0.142800 -0.108598
C16   C     C_R   0.603210 0.430246 0.072352 0.504913
C17   C     C_R   0.603104 0.431254 0.927565 -0.162612
H6    H     H_    0.683804 0.375498 0.872004 0.159472
N2    N     N_R   0.499010 0.499180 0.857150 -0.082036
C18   C     C_R   0.403784 0.573632 0.929374 0.012446
C19   C     C_3   0.234932 0.578256 0.923844 0.093529
C20   C     C_3   0.236472 0.581282 0.078184 0.199430
H7    H     H_    0.192536 0.666010 0.876833 0.059420
H8    H     H_    0.195406 0.671233 0.120951 0.113936
N3    N     N_R   0.163151 0.465295 0.869527 0.271536
O9    O     O_R   0.233245 0.358251 0.865927 -0.395116
O10   O     O_R   0.021370 0.469148 0.837930 -0.394583
O11   O     O_3   0.166838 0.476699 0.138838 -0.673761
H9    H     H_    0.229402 0.401107 0.122924 0.368638
O12   O     O_3   0.255604 0.117314 0.680162 -0.707437
H10   H     H_    0.183435 0.112727 0.756456 0.361877
O13   O     O_3   0.704639 0.358614 0.143588 -0.726749
H11   H     H_    0.771861 0.315133 0.078795 0.328587

loop_
_geom_bond_atom_site_label_1
_geom_bond_atom_site_label_2
_geom_bond_distance
_ccdc_geom_bond_type
O4    Zn2   1.946037 S    
C20   H8    1.111324 S    
C11   C12   1.391469 A    
C20   O11   1.411033 S    
C19   C20   1.529689 S    
C13   H3    1.112913 S    
C16   O13   1.377805 S    
N3    O9    1.302225 A    
N1    C16   1.372769 A    
C15   C18   1.404228 A    
Zn2   O8    1.947665 S    
C16   C17   1.434626 A    
O2    C1    1.287822 A    
C2    C5    1.364331 S    
C19   H7    1.112328 S    
C10   H2    1.083417 S    
C12   C13   1.496065 S    
C13   H4    1.111662 S    
Zn1   O7    1.946039 S    
N3    O10   1.300527 A    
C15   C20   1.503995 S    
C15   N1    1.363957 A    
C1    C8    1.417018 S    
O3    Zn1   1.947665 S    
C7    C14   1.497948 S    
Zn2   O6    1.993646 S    
C18   C19   1.503698 S    
C9    C10   1.383621 A    
O8    C4    1.281063 A    
C7    C8    1.391987 A    
C10   C11   1.402399 A    
C19   N3    1.468125 S    
O4    C2    1.280371 A    
O7    C4    1.280687 A    
C4    C6    1.364554 S    
C7    C12   1.363230 A    
C14   O12   1.401944 S    
C5    C6    1.164438 T    
C17   H6    1.082114 S    
O11   H9    0.992664 S    
C3    C11   1.417087 S    
C14   H5    1.113650 S    
O3    C2    1.281159 A    
C8    C9    1.402601 A    
Zn1   O5    1.993299 S    
O5    C3    1.286655 A    
O12   H10   0.991957 S    
O13   H11   0.991773 S    
C17   N2    1.367985 A    
C13   C14   1.519582 S    
O1    Zn1   1.993646 S    
Zn2   N1    2.022036 S    
Zn1   N2    2.021500 S    
O6    C3    1.288307 A    
O2    Zn2   1.993301 S    
C9    H1    1.083469 S    
O1    C1    1.287151 A    
N2    C18   1.363399 A    
