data_mof_unit_61301.cif
_audit_creation_date              2012-12-10T18:42:53-0500
_audit_creation_method            fapswitch 2.2
_symmetry_space_group_name_H-M    P1
_symmetry_Int_Tables_number       1
_space_group_crystal_system       triclinic
_cell_length_a                    45.107668
_cell_length_b                    31.874702
_cell_length_c                    31.875367
_cell_angle_alpha                 90.000732
_cell_angle_beta                  135.046248
_cell_angle_gamma                 89.997788
_cell_volume                      32380.6727193

loop_
_atom_site_label
_atom_site_type_symbol
_atom_type_description
_atom_site_fract_x
_atom_site_fract_y
_atom_site_fract_z
_atom_type_partial_charge
C1    C     C_R   0.581359 0.000004 0.581382 0.903108
C2    C     C_R   0.081359 0.500002 0.581382 0.900539
C3    C     C_3   0.464718 0.264135 0.483093 -0.195902
C4    C     C_3   0.467199 0.735867 0.489630 -0.195773
C5    C     C_3   0.963734 0.764119 0.479984 -0.196817
C6    C     C_3   0.966916 0.235878 0.488826 -0.195312
C7    C     C_3   0.499625 0.291387 0.498358 0.084478
C8    C     C_3   0.499518 0.708613 0.498292 0.084190
C9    C     C_3   0.999802 0.791381 0.498661 0.080695
C10   C     C_3   0.999673 0.208618 0.498554 0.079702
C11   C     C_3   0.465273 0.235651 0.443927 -0.249178
C12   C     C_3   0.463022 0.764347 0.445940 -0.248642
C13   C     C_3   0.966799 0.735667 0.443436 -0.240530
C14   C     C_3   0.963484 0.264322 0.445795 -0.238717
C15   C     C_3   0.500140 0.263410 0.459444 -0.032097
C16   C     C_3   0.495336 0.736587 0.454892 -0.030916
C17   C     C_3   0.002823 0.763419 0.462382 -0.011433
C18   C     C_3   0.996248 0.236571 0.455847 -0.012719
C19   C     C_1   0.499709 0.163209 0.499544 -0.042797
C20   C     C_1   0.499712 0.836792 0.499567 -0.043077
C21   C     C_1   0.999768 0.663209 0.499617 -0.045117
C22   C     C_1   0.999760 0.336791 0.499616 -0.043079
C23   C     C_1   0.499812 0.336789 0.499097 0.013552
C24   C     C_1   0.499765 0.663211 0.499072 0.012941
C25   C     C_1   0.999884 0.836787 0.499242 0.012416
C26   C     C_1   0.999830 0.163213 0.499204 0.012005
C27   C     C_3   0.764083 0.967735 0.788658 -0.257637
C28   C     C_3   0.764119 0.036674 0.781525 -0.265697
C29   C     C_3   0.264091 0.466713 0.787267 -0.258111
C30   C     C_3   0.264107 0.535896 0.783072 -0.266623
C31   C     C_3   0.735918 0.963487 0.720773 -0.189941
C32   C     C_3   0.735942 0.032701 0.713604 -0.229352
C33   C     C_3   0.235929 0.464157 0.719238 -0.190490
C34   C     C_3   0.235934 0.533617 0.715019 -0.230326
C35   C     C_1   0.625805 0.000049 0.625921 -0.153033
C36   C     C_1   0.125805 0.500028 0.625922 -0.154706
C37   C     C_1   0.874181 0.000010 0.874573 -0.168021
C38   C     C_1   0.374181 0.500007 0.874576 -0.168193
C39   C     C_R   0.499989 0.081341 0.499993 0.907671
C40   C     C_R   0.499992 0.918659 0.499997 0.906732
C41   C     C_R   0.999985 0.581341 0.499990 0.905050
C42   C     C_R   0.999988 0.418658 0.499992 0.906643
C43   C     C_3   0.736292 0.004223 0.776517 0.055247
C44   C     C_3   0.236288 0.502488 0.776659 0.055877
C45   C     C_3   0.708716 0.000156 0.709682 0.146232
C46   C     C_3   0.208716 0.500095 0.709688 0.146835
C47   C     C_3   0.791287 0.000127 0.792537 0.125553
C48   C     C_3   0.291287 0.500084 0.792547 0.126320
C49   C     C_3   0.763460 0.996143 0.725997 0.286645
C50   C     C_3   0.263463 0.497749 0.725873 0.287337
C51   C     C_1   0.663287 0.000099 0.663697 0.012468
C52   C     C_1   0.163288 0.500059 0.663700 0.011015
C53   C     C_1   0.836701 0.000047 0.837475 -0.046227
C54   C     C_1   0.336700 0.500031 0.837481 -0.046412
C55   C     C_3   0.235593 0.036081 0.253721 -0.207922
C56   C     C_3   0.235610 0.966234 0.257786 -0.207879
C57   C     C_3   0.735598 0.535240 0.255372 -0.250936
C58   C     C_3   0.735608 0.465280 0.256208 -0.166238
C59   C     C_3   0.263291 0.032562 0.241897 0.206500
C60   C     C_3   0.263308 0.965179 0.245804 0.206504
C61   C     C_3   0.763302 0.533543 0.243436 0.204733
C62   C     C_3   0.763291 0.466051 0.244195 0.208632
C63   C     C_1   0.374254 0.000003 0.374235 -0.171063
C64   C     C_1   0.874254 0.499986 0.374233 -0.170329
C65   C     C_1   0.125732 0.999994 0.125755 -0.177450
C66   C     C_1   0.625732 0.500002 0.125759 -0.177602
C67   C     C_R   0.418655 0.000001 0.418648 0.904625
C68   C     C_R   0.918655 0.499996 0.418648 0.904627
C69   C     C_3   0.263353 0.002239 0.302263 0.208907
C70   C     C_3   0.763357 0.500495 0.302328 0.209658
C71   C     C_3   0.291397 0.999999 0.291418 0.001734
C72   C     C_3   0.791396 0.500007 0.291413 0.001713
C73   C     C_3   0.208521 0.999985 0.208495 0.089724
C74   C     C_3   0.708520 0.500017 0.208500 0.089813
C75   C     C_3   0.235544 0.997650 0.195203 -0.200555
C76   C     C_3   0.735538 0.499551 0.195135 -0.201377
C77   C     C_1   0.336802 0.000003 0.336803 -0.052093
C78   C     C_1   0.836802 0.499984 0.336799 -0.050805
C79   C     C_1   0.163187 0.999988 0.163178 -0.025584
C80   C     C_1   0.663187 0.500009 0.163183 -0.025493
C81   C     C_R   0.499989 0.500000 0.581419 0.896859
C82   C     C_R   0.999989 0.999999 0.581419 0.896877
C83   C     C_R   0.499987 0.418644 0.500021 0.910814
C84   C     C_R   0.499985 0.581356 0.500016 0.909141
C85   C     C_R   0.999988 0.918644 0.500024 0.910619
C86   C     C_R   0.999986 0.081356 0.500021 0.909660
C87   C     C_R   0.499993 0.500000 0.418723 0.925167
C88   C     C_R   0.999993 0.999999 0.418723 0.925387
C89   C     C_R   0.000078 0.000001 0.081463 0.906255
C90   C     C_R   0.500078 0.500000 0.081463 0.906260
C91   C     C_3   0.533125 0.263629 0.552444 0.224661
C92   C     C_3   0.535220 0.736372 0.550452 0.224829
C93   C     C_3   0.031976 0.763645 0.553509 0.210223
C94   C     C_3   0.035092 0.236364 0.551112 0.209772
C95   C     C_R   0.918628 0.000001 0.918686 0.910112
C96   C     C_R   0.418627 0.500001 0.918686 0.910261
C97   C     C_R   0.999923 1.000000 0.918623 0.899037
C98   C     C_R   0.499922 0.499999 0.918622 0.899245
C99   C     C_R   0.081329 0.999999 0.081391 0.907670
C100  C     C_R   0.581329 0.500000 0.081392 0.907749
C101  C     C_3   0.019651 0.034536 0.783187 0.028744
C102  C     C_3   0.021352 0.966474 0.784889 0.029016
C103  C     C_3   0.522858 0.532512 0.786396 0.029209
C104  C     C_3   0.518054 0.464599 0.781589 0.028332
C105  C     C_3   0.483200 0.535839 0.719136 -0.213189
C106  C     C_3   0.478322 0.466884 0.714256 -0.212352
C107  C     C_3   0.979856 0.034066 0.715790 -0.213141
C108  C     C_3   0.981583 0.964960 0.717518 -0.212512
C109  C     C_1   0.500052 0.499992 0.625939 -0.187606
C110  C     C_1   0.000052 1.000000 0.625939 -0.187696
C111  C     C_1   0.000140 0.000000 0.874394 -0.121675
C112  C     C_1   0.500139 0.499994 0.874393 -0.121635
C113  C     C_3   0.540584 0.497129 0.776162 -0.307556
C114  C     C_3   0.040673 0.001009 0.776250 -0.307601
C115  C     C_3   0.500525 0.499961 0.709298 0.187610
C116  C     C_3   0.000526 0.000008 0.709299 0.187702
C117  C     C_3   0.000956 0.000017 0.792255 0.166468
C118  C     C_3   0.500953 0.499937 0.792252 0.166411
C119  C     C_3   0.533872 0.236029 0.513984 0.170242
C120  C     C_3   0.531295 0.763970 0.507503 0.170280
C121  C     C_3   0.035206 0.736043 0.517657 0.172002
C122  C     C_3   0.031910 0.263959 0.508828 0.171701
C123  C     C_3   0.961013 0.999021 0.725049 -0.198056
C124  C     C_3   0.461097 0.502755 0.725133 -0.197879
C125  C     C_1   0.500215 0.499980 0.663588 -0.054700
C126  C     C_1   0.000215 0.000002 0.663588 -0.054801
C127  C     C_1   0.000454 0.000006 0.837226 0.068471
C128  C     C_1   0.500451 0.499975 0.837224 0.068554
C129  C     C_3   0.018102 0.964966 0.253912 -0.241588
C130  C     C_3   0.018788 0.034750 0.254587 -0.284074
C131  C     C_3   0.520176 0.466087 0.255980 -0.241950
C132  C     C_3   0.516661 0.535785 0.252464 -0.284293
C133  C     C_3   0.480373 0.464706 0.244076 -0.078835
C134  C     C_3   0.476926 0.533155 0.240638 -0.078897
C135  C     C_3   0.978288 0.965990 0.241993 -0.078125
C136  C     C_3   0.978967 0.034521 0.242675 -0.079672
C137  C     C_1   0.499847 0.499973 0.374215 -0.106717
C138  C     C_1   0.999846 0.000010 0.374215 -0.106567
C139  C     C_1   0.999760 0.000008 0.125513 -0.159553
C140  C     C_1   0.499757 0.499996 0.125511 -0.159830
C141  C     C_3   0.537178 0.501890 0.300725 0.256415
C142  C     C_3   0.037227 0.999688 0.300775 0.256333
C143  C     C_3   0.498272 0.499909 0.289817 0.092266
C144  C     C_3   0.998272 0.000056 0.289818 0.092233
C145  C     C_3   0.998568 0.000048 0.207089 0.134789
C146  C     C_3   0.498565 0.499937 0.207087 0.135105
C147  C     C_1   0.499852 0.125752 0.499818 -0.180727
C148  C     C_1   0.499858 0.874249 0.499828 -0.181280
C149  C     C_1   0.999874 0.625752 0.499841 -0.181610
C150  C     C_1   0.999873 0.374248 0.499841 -0.179577
C151  C     C_3   0.958827 0.000450 0.194624 -0.074192
C152  C     C_3   0.458873 0.497940 0.194672 -0.073923
C153  C     C_1   0.499310 0.499942 0.336251 0.089538
C154  C     C_1   0.999309 0.000025 0.336250 0.089821
C155  C     C_1   0.999301 0.000025 0.162486 0.032409
C156  C     C_1   0.499298 0.499976 0.162483 0.032173
C157  C     C_1   0.499946 0.374241 0.499639 -0.145060
C158  C     C_1   0.499932 0.625759 0.499633 -0.146404
C159  C     C_1   0.999962 0.874240 0.499690 -0.145217
C160  C     C_1   0.999948 0.125760 0.499682 -0.145915
C161  C     C_3   0.498828 0.236179 0.538270 -0.213609
C162  C     C_3   0.503566 0.763824 0.542860 -0.213712
C163  C     C_3   0.996452 0.736161 0.535869 -0.219370
C164  C     C_3   0.002953 0.263845 0.542398 -0.218017
C165  C     C_3   0.499589 0.208581 0.499159 0.097206
C166  C     C_3   0.499575 0.791420 0.499183 0.096975
C167  C     C_3   0.999718 0.708582 0.499341 0.094878
C168  C     C_3   0.999689 0.291417 0.499326 0.094139
H1    H     H_    0.223813 0.065441 0.256484 0.144187
H2    H     H_    0.223846 0.938940 0.264154 0.143933
H3    H     H_    0.723853 0.563822 0.259671 0.147553
H4    H     H_    0.723811 0.437097 0.261106 0.140476
H5    H     H_    0.223723 0.995570 0.150674 0.148064
H6    H     H_    0.723714 0.498987 0.150541 0.148221
H7    H     H_    0.468985 0.565301 0.692931 0.139457
H8    H     H_    0.460103 0.439715 0.684044 0.140008
H9    H     H_    0.962894 0.062038 0.686837 0.139727
H10   H     H_    0.966040 0.936177 0.689984 0.139554
H11   H     H_    0.928390 0.998207 0.704554 0.147958
H12   H     H_    0.428545 0.505059 0.704708 0.148053
H13   H     H_    0.573157 0.494823 0.796633 0.146910
H14   H     H_    0.073317 0.001823 0.796792 0.146824
H15   H     H_    0.034426 0.936517 0.258537 0.148258
H16   H     H_    0.035842 0.062777 0.259971 0.151662
H17   H     H_    0.538180 0.438673 0.262282 0.147840
H18   H     H_    0.531997 0.564790 0.256133 0.151374
H19   H     H_    0.437217 0.223401 0.399212 0.156597
H20   H     H_    0.433187 0.776597 0.402900 0.156988
H21   H     H_    0.939851 0.723439 0.398072 0.155122
H22   H     H_    0.933899 0.276541 0.402419 0.156391
H23   H     H_    0.436100 0.276388 0.470050 0.158360
H24   H     H_    0.440642 0.723615 0.481943 0.158171
H25   H     H_    0.934186 0.776367 0.464177 0.158173
H26   H     H_    0.940010 0.223627 0.480290 0.158872
H27   H     H_    0.498426 0.224502 0.570673 0.150548
H28   H     H_    0.507070 0.775500 0.578990 0.150265
H29   H     H_    0.993901 0.724417 0.565997 0.151412
H30   H     H_    0.005752 0.275596 0.577861 0.152425
H31   H     H_    0.724010 0.933768 0.695140 0.144117
H32   H     H_    0.724086 0.058879 0.682056 0.147372
H33   H     H_    0.224029 0.435047 0.692358 0.143130
H34   H     H_    0.224072 0.560607 0.684599 0.146757
H35   H     H_    0.776120 0.941497 0.820204 0.157229
H36   H     H_    0.776184 0.066347 0.807288 0.157414
H37   H     H_    0.276135 0.439668 0.817680 0.156922
H38   H     H_    0.276163 0.564960 0.810083 0.156815
O1    O     O_R   0.561630 0.000000 0.596420 -0.593857
O2    O     O_R   0.061630 0.500000 0.596420 -0.594658
O3    O     O_R   0.465210 0.438380 0.465220 -0.612808
O4    O     O_R   0.465210 0.561620 0.465220 -0.610484
O5    O     O_R   0.965210 0.938380 0.465220 -0.613489
O6    O     O_R   0.965210 0.061620 0.465220 -0.610789
O7    O     O_R   0.534790 0.500000 0.473270 -0.622583
O8    O     O_R   0.034790 1.000000 0.473270 -0.622406
O9    O     O_R   0.465230 0.500000 0.403640 -0.593855
O10   O     O_R   0.965230 1.000000 0.403640 -0.594176
O11   O     O_R   0.000030 0.965220 0.061700 -0.617259
O12   O     O_R   0.000030 0.034780 0.061700 -0.616845
O13   O     O_R   0.500030 0.465220 0.061700 -0.616331
O14   O     O_R   0.500030 0.534780 0.061700 -0.617954
O15   O     O_R   0.938380 0.965210 0.938430 -0.614082
O16   O     O_R   0.938380 0.034790 0.938430 -0.617275
O17   O     O_R   0.438380 0.465210 0.938430 -0.613398
O18   O     O_R   0.438380 0.534790 0.938430 -0.618137
O19   O     O_R   0.999950 0.965200 0.938400 -0.606611
O20   O     O_R   0.999950 0.034800 0.938400 -0.606885
O21   O     O_R   0.499950 0.465200 0.938400 -0.604937
O22   O     O_R   0.499950 0.534800 0.938400 -0.608601
O23   O     O_R   0.061600 0.965210 0.061670 -0.615014
O24   O     O_R   0.061600 0.034790 0.061670 -0.615170
O25   O     O_R   0.561600 0.465210 0.061670 -0.615385
O26   O     O_R   0.561600 0.534790 0.061670 -0.614899
O27   O     O_R   0.561580 0.000000 0.526800 -0.626814
O28   O     O_R   0.061580 0.500000 0.526800 -0.625814
O29   O     O_R   0.500020 0.061610 0.534810 -0.612524
O30   O     O_R   0.500020 0.938390 0.534810 -0.613921
O31   O     O_R   0.000020 0.561610 0.534810 -0.615613
O32   O     O_R   0.000020 0.438390 0.534810 -0.614048
O33   O     O_R   0.499970 0.061600 0.465200 -0.620239
O34   O     O_R   0.499970 0.938400 0.465200 -0.620534
O35   O     O_R   0.999970 0.561600 0.465200 -0.616682
O36   O     O_R   0.999970 0.438400 0.465200 -0.617356
O37   O     O_R   0.438410 1.000000 0.473200 -0.617451
O38   O     O_R   0.938410 0.500000 0.473200 -0.617277
O39   O     O_R   0.438360 0.000000 0.403580 -0.616939
O40   O     O_R   0.938360 0.500000 0.403580 -0.616470
O41   O     O_R   0.534760 0.500000 0.596460 -0.620684
O42   O     O_R   0.034760 0.000000 0.596460 -0.620744
O43   O     O_R   0.465190 0.500000 0.526830 -0.620162
O44   O     O_R   0.965190 1.000000 0.526830 -0.620207
O45   O     O_R   0.534770 0.438380 0.534860 -0.617036
O46   O     O_R   0.534770 0.561620 0.534860 -0.620114
O47   O     O_R   0.034770 0.938380 0.534860 -0.616456
O48   O     O_R   0.034770 0.061620 0.534860 -0.619888
Zn1   Zn    Zn3+2 0.500030 0.000000 0.546480 0.994552
Zn2   Zn    Zn3+2 0.000030 0.500000 0.546480 0.992754
Zn3   Zn    Zn3+2 0.499960 0.000000 0.453520 0.965216
Zn4   Zn    Zn3+2 0.999960 0.500000 0.453520 0.971113
Zn5   Zn    Zn3+2 0.546440 0.500000 0.546540 0.980284
Zn6   Zn    Zn3+2 0.046440 1.000000 0.546540 0.980666
Zn7   Zn    Zn3+2 0.453540 0.500000 0.453560 1.005086
Zn8   Zn    Zn3+2 0.953540 1.000000 0.453560 1.004173
Zn9   Zn    Zn3+2 0.999990 0.953540 0.000050 0.993167
Zn10  Zn    Zn3+2 0.999990 0.046460 0.000050 0.991200
Zn11  Zn    Zn3+2 0.499990 0.453540 0.000050 0.995000
Zn12  Zn    Zn3+2 0.499990 0.546460 0.000050 0.988507
N1    N     N_2   0.570791 0.219079 0.530554 -0.317574
H39   H     H_    0.563808 0.195824 0.502199 0.221636
C169  C     C_3   0.600170 0.249652 0.543847 -0.760585
H40   H     H_    0.629017 0.233356 0.561997 0.237518
H41   H     H_    0.609171 0.272439 0.577570 0.274931
H42   H     H_    0.586369 0.266694 0.502984 0.240544
N2    N     N_2   0.565542 0.780911 0.517170 -0.317605
H43   H     H_    0.556115 0.804256 0.487430 0.221832
C170  C     C_3   0.592711 0.750330 0.524764 -0.763538
H44   H     H_    0.620209 0.766583 0.538424 0.237594
H45   H     H_    0.575793 0.733553 0.482432 0.239890
H46   H     H_    0.604386 0.727318 0.559805 0.274911
N3    N     N_2   0.073197 0.719155 0.537296 -0.318812
H47   H     H_    0.085732 0.694485 0.566571 0.227550
C171  C     C_3   0.104182 0.749714 0.555534 -0.758238
H48   H     H_    0.129736 0.733651 0.563747 0.236170
H49   H     H_    0.117935 0.765486 0.597131 0.261477
H50   H     H_    0.090072 0.773565 0.520356 0.257056
N4    N     N_2   0.066393 0.280849 0.519017 -0.318284
H51   H     H_    0.081476 0.305524 0.548577 0.226885
C172  C     C_3   0.094892 0.250292 0.529898 -0.758840
H52   H     H_    0.117273 0.266356 0.531006 0.236374
H53   H     H_    0.077551 0.226436 0.494063 0.256723
H54   H     H_    0.112995 0.234528 0.573244 0.261370
C173  C     C_2   0.722016 0.008865 0.806724 0.394541
H55   H     H_    0.745104 0.011431 0.854705 0.068971
O49   O     O_2   0.684720 0.009789 0.777939 -0.551571
C174  C     C_2   0.222007 0.505212 0.807018 0.392769
H56   H     H_    0.245093 0.506721 0.855086 0.069157
O50   O     O_2   0.184710 0.505751 0.778262 -0.552488
N5    N     N_2   0.279563 0.068042 0.235051 -0.298360
H57   H     H_    0.301351 0.085049 0.273670 0.230081
C175  C     C_3   0.248050 0.094060 0.183862 -0.760408
H58   H     H_    0.263600 0.119082 0.180851 0.241105
H59   H     H_    0.227871 0.108952 0.187872 0.234932
H60   H     H_    0.228344 0.075087 0.142545 0.250740
N6    N     N_2   0.279589 0.927389 0.242975 -0.299924
H61   H     H_    0.301634 0.933397 0.242159 0.232153
C176  C     C_3   0.248063 0.897569 0.198281 -0.762956
H62   H     H_    0.263600 0.868817 0.201792 0.241096
H63   H     H_    0.228386 0.911173 0.153214 0.238317
H64   H     H_    0.227845 0.888593 0.204957 0.248022
N7    N     N_2   0.779587 0.570050 0.238272 -0.298100
H65   H     H_    0.801391 0.586243 0.277673 0.225224
C177  C     C_3   0.748082 0.596974 0.188339 -0.755819
H66   H     H_    0.763637 0.622827 0.186515 0.239806
H67   H     H_    0.727922 0.610731 0.193047 0.234252
H68   H     H_    0.728356 0.579039 0.146150 0.251092
N8    N     N_2   0.779554 0.429184 0.239608 -0.296780
H69   H     H_    0.801578 0.436248 0.239053 0.232769
C178  C     C_3   0.748015 0.400006 0.193559 -0.763664
H70   H     H_    0.763540 0.371864 0.195681 0.242497
H71   H     H_    0.728286 0.414786 0.149148 0.237276
H72   H     H_    0.727851 0.389753 0.199871 0.247727
N9    N     N_2   0.279661 0.004557 0.360878 -0.294526
H73   H     H_    0.301625 0.981651 0.389128 0.233183
C179  C     C_3   0.248156 0.008245 0.361722 -0.778790
H74   H     H_    0.263715 0.012072 0.408230 0.241899
H75   H     H_    0.228321 0.979587 0.342737 0.233294
H76   H     H_    0.228095 0.036171 0.335972 0.246791
N10   N     N_2   0.779679 0.501165 0.361010 -0.291325
H77   H     H_    0.801500 0.524581 0.387518 0.228235
C180  C     C_3   0.748198 0.499523 0.362067 -0.776361
H78   H     H_    0.763778 0.498116 0.408791 0.241576
H79   H     H_    0.728441 0.471049 0.338674 0.246715
H80   H     H_    0.728060 0.527959 0.340698 0.231996
C181  C     C_2   0.041120 0.073883 0.818724 0.384735
H81   H     H_    0.052824 0.095827 0.807230 0.059336
O51   O     O_2   0.045585 0.081485 0.860438 -0.556940
C182  C     C_2   0.044761 0.928247 0.822366 0.384927
H82   H     H_    0.057547 0.906913 0.811955 0.059154
O52   O     O_2   0.049600 0.920876 0.864455 -0.557029
C183  C     C_2   0.547986 0.569631 0.825595 0.384418
H83   H     H_    0.561728 0.590359 0.816142 0.059473
O53   O     O_2   0.553160 0.576771 0.868020 -0.557842
C184  C     C_2   0.537706 0.424313 0.815308 0.385649
H84   H     H_    0.548401 0.401857 0.802806 0.059111
O54   O     O_2   0.541815 0.416514 0.856666 -0.556039
C185  C     C_2   0.459975 0.424836 0.237890 0.409711
H85   H     H_    0.448660 0.402573 0.203457 0.068580
O55   O     O_2   0.455954 0.417194 0.271147 -0.534655
C186  C     C_2   0.452630 0.570771 0.230569 0.405266
H86   H     H_    0.439128 0.591793 0.193956 0.071025
O56   O     O_2   0.447877 0.577961 0.263096 -0.538558
C187  C     C_2   0.955523 0.927423 0.233441 0.410085
H87   H     H_    0.942895 0.905875 0.197694 0.068548
O57   O     O_2   0.951038 0.920047 0.266235 -0.536856
C188  C     C_2   0.956980 0.073534 0.234913 0.405938
H88   H     H_    0.944765 0.095326 0.199586 0.071605
O58   O     O_2   0.952674 0.081005 0.267887 -0.537399
N11   N     N_2   0.569367 0.279958 0.610708 -0.312193
H89   H     H_    0.562053 0.304457 0.623189 0.223445
C189  C     C_3   0.595554 0.248644 0.656694 -0.765571
H90   H     H_    0.624075 0.263891 0.698186 0.240250
H91   H     H_    0.605572 0.224616 0.643598 0.272500
H92   H     H_    0.578313 0.233209 0.665495 0.231939
N12   N     N_2   0.573822 0.720042 0.606607 -0.311540
H93   H     H_    0.568914 0.695569 0.622256 0.223952
C190  C     C_3   0.602199 0.751357 0.651482 -0.768709
H94   H     H_    0.632040 0.736097 0.690844 0.240253
H95   H     H_    0.588191 0.766859 0.665355 0.231652
H96   H     H_    0.609424 0.775332 0.634519 0.271987
N13   N     N_2   0.066742 0.780218 0.612422 -0.306327
H97   H     H_    0.058538 0.805929 0.622029 0.226550
C191  C     C_3   0.090280 0.749463 0.659588 -0.790672
H98   H     H_    0.118141 0.764706 0.701792 0.245132
H99   H     H_    0.101367 0.723843 0.649925 0.250136
H100  H     H_    0.070560 0.736097 0.665281 0.235908
N14   N     N_2   0.073323 0.219803 0.607518 -0.305774
H101  H     H_    0.068140 0.194091 0.621246 0.227458
C192  C     C_3   0.100376 0.250567 0.654060 -0.792284
H102  H     H_    0.130203 0.235335 0.693502 0.245355
H103  H     H_    0.085059 0.263921 0.667037 0.236139
H104  H     H_    0.107919 0.276193 0.639322 0.249379
C193  C     C_2   0.914104 0.000895 0.135275 0.366021
H105  H     H_    0.888973 0.001144 0.133042 0.081189
O59   O     O_2   0.905723 0.000978 0.089541 -0.559558
C194  C     C_2   0.414203 0.495696 0.135376 0.365760
H106  H     H_    0.389104 0.494424 0.133176 0.081234
O60   O     O_2   0.405832 0.495288 0.089652 -0.559725
N15   N     N_2   0.579519 0.504192 0.359320 -0.296641
H107  H     H_    0.583342 0.527772 0.384951 0.228702
C195  C     C_3   0.612068 0.503784 0.360355 -0.771121
H108  H     H_    0.643263 0.503545 0.407097 0.242022
H109  H     H_    0.609745 0.532161 0.337912 0.232006
H110  H     H_    0.609490 0.475201 0.338015 0.246323
N16   N     N_2   0.079629 0.999435 0.359432 -0.296265
H111  H     H_    0.084852 0.022709 0.386504 0.228727
C196  C     C_3   0.112098 0.997143 0.360386 -0.770212
H112  H     H_    0.143220 0.994969 0.407051 0.242108
H113  H     H_    0.111506 0.025666 0.339756 0.232090
H114  H     H_    0.107794 0.968827 0.336235 0.246176
C197  C     C_2   0.500059 0.277314 0.414492 0.403759
H115  H     H_    0.500239 0.254030 0.389870 0.054307
O61   O     O_2   0.499871 0.314537 0.405411 -0.533392
C198  C     C_2   0.489924 0.722680 0.404931 0.401531
H116  H     H_    0.487130 0.745962 0.377486 0.054276
O62   O     O_2   0.488714 0.685456 0.394910 -0.536593
C199  C     C_2   0.005446 0.777289 0.420196 0.405563
H117  H     H_    0.007272 0.753990 0.397303 0.068889
O63   O     O_2   0.005612 0.814505 0.411434 -0.541680
C200  C     C_2   0.991551 0.222692 0.406503 0.404792
H118  H     H_    0.989302 0.245986 0.379559 0.069171
O64   O     O_2   0.990304 0.185474 0.396420 -0.540252
N17   N     N_2   0.779777 0.991885 0.700200 -0.304789
H119  H     H_    0.801815 0.014416 0.714996 0.224524
C201  C     C_3   0.748284 0.986844 0.636439 -0.793099
H120  H     H_    0.763853 0.981552 0.621326 0.244145
H121  H     H_    0.728562 0.015510 0.614486 0.234312
H122  H     H_    0.728111 0.959283 0.623138 0.247588
N18   N     N_2   0.279789 0.495322 0.699944 -0.305103
H123  H     H_    0.301703 0.518253 0.715555 0.224387
C202  C     C_3   0.248314 0.491448 0.636023 -0.791615
H124  H     H_    0.263902 0.487640 0.620719 0.244202
H125  H     H_    0.228352 0.520018 0.615102 0.234520
H126  H     H_    0.228379 0.463443 0.621752 0.247672

loop_
_geom_bond_atom_site_label_1
_geom_bond_atom_site_label_2
_ccdc_geom_bond_type
C101  C107  S    
C22   C150  T    
C28   C47   S    
N11   H89   S    
C55   C59   S    
N17   C201  S    
C135  C187  S    
C32   C45   S    
C81   O41   A    
C173  H55   S    
C120  C166  S    
N6    C176  S    
C93   N13   S    
C181  H81   S    
C171  H50   S    
C15   C197  S    
C93   C121  S    
C41   C149  S    
C10   C94   S    
C29   C33   S    
O37   Zn1   S    
C131  C146  S    
C197  O61   D    
C192  H104  S    
N18   C202  S    
C134  C143  S    
C11   C15   S    
C133  C185  S    
C12   C16   S    
C1    O27   A    
C25   C159  T    
C172  H53   S    
C26   C160  T    
C8    C92   S    
O34   Zn3   S    
C4    C12   S    
C5    C13   S    
C47   C53   S    
C22   C168  S    
C138  C154  T    
C7    C15   S    
C97   O20   A    
C129  H15   S    
C201  H121  S    
C44   C174  S    
C109  C125  T    
C73   C75   S    
C31   H31   S    
C44   C46   S    
C95   O16   A    
C34   C50   S    
C27   C31   S    
C179  H74   S    
C164  C168  S    
C202  H126  S    
C65   C99   S    
C184  H84   S    
C58   C70   S    
C129  C142  S    
C68   O40   A    
C33   C50   S    
C42   O36   A    
C178  H72   S    
C102  C114  S    
N6    H61   S    
C83   C157  S    
C137  C153  T    
C118  C124  S    
C88   C138  S    
C83   O3    A    
C18   C122  S    
C82   O44   A    
C94   C122  S    
C200  O64   D    
C169  H41   S    
C29   C44   S    
C35   C51   T    
C195  H108  S    
C142  C144  S    
C2    O2    A    
C14   C168  S    
N15   H107  S    
C6    H26   S    
C16   C198  S    
O28   Zn4   S    
C136  C188  S    
C56   C73   S    
C28   C43   S    
O33   Zn3   S    
C121  N3    S    
C182  H82   S    
C194  O60   D    
C90   C140  S    
N14   H101  S    
C57   C61   S    
N16   H111  S    
C82   O42   A    
C106  C115  S    
C101  C117  S    
N4    C172  S    
C199  H117  S    
C50   N18   S    
O47   Zn6   S    
C10   C18   S    
C186  H86   S    
C84   O4    A    
N3    C171  S    
O30   Zn1   S    
C144  C154  S    
C3    C11   S    
C132  C134  S    
N9    H73   S    
O38   Zn2   S    
C106  C124  S    
C189  H90   S    
C11   C165  S    
C19   C165  S    
C190  H94   S    
C161  C165  S    
C113  C115  S    
C65   C79   T    
C94   N14   S    
O31   Zn2   S    
C187  H87   S    
C39   O33   A    
C42   O32   A    
C161  H27   S    
C74   C76   S    
C134  C186  S    
C5    C163  S    
C30   C48   S    
C173  O49   D    
C64   C68   S    
O18   Zn12  S    
C136  C144  S    
C93   C163  S    
C197  H115  S    
C29   H37   S    
C178  H71   S    
C66   C100  S    
O44   Zn8   S    
C72   C78   S    
C129  C135  S    
C17   C199  S    
C176  H63   S    
C43   C173  S    
C195  H110  S    
C20   C148  T    
C34   C46   S    
C21   C149  T    
C119  C165  S    
C90   O14   A    
C36   C52   T    
C37   C53   T    
C96   O17   A    
C69   N9    S    
C162  C166  S    
C107  H9    S    
N5    C175  S    
C85   O5    A    
C28   C32   S    
C99   O23   A    
N7    C177  S    
C61   C76   S    
C87   O7    A    
O24   Zn10  S    
C98   C112  S    
O35   Zn4   S    
C30   C34   S    
C170  H46   S    
C123  H11   S    
C190  H96   S    
N10   C180  S    
C84   C158  S    
O21   Zn11  S    
C41   O35   A    
C179  H75   S    
C5    C9    S    
C6    C14   S    
C139  C155  T    
N3    H47   S    
C191  H100  S    
C73   C79   S    
C103  C105  S    
C43   C45   S    
C55   C69   S    
C102  C117  S    
C110  C126  T    
C131  H17   S    
C177  H67   S    
C91   C119  S    
O19   Zn9   S    
C162  H28   S    
C71   C77   S    
C58   C74   S    
C195  H109  S    
C198  H116  S    
C27   C47   S    
C132  C141  S    
O5    Zn8   S    
C56   H2    S    
C64   C78   T    
C105  C115  S    
C100  O25   A    
N15   C195  S    
C114  C116  S    
N1    H39   S    
O3    Zn7   S    
C86   O48   A    
C66   C80   T    
C13   C17   S    
C76   H6    S    
C92   C120  S    
O10   Zn8   S    
C40   O34   A    
C67   O39   A    
C101  C181  S    
C34   H34   S    
C7    C23   S    
C23   C157  T    
C48   C50   S    
N2    C170  S    
C15   C119  S    
C189  H92   S    
C130  C142  S    
C175  H60   S    
C32   C49   S    
C192  H103  S    
C104  C113  S    
C55   C73   S    
C163  H29   S    
C8    C16   S    
C188  H88   S    
C105  H7    S    
C106  H8    S    
C27   H35   S    
N13   C191  S    
C58   C62   S    
N8    C178  S    
C97   O19   A    
C201  H120  S    
O11   Zn9   S    
C59   C75   S    
O36   Zn4   S    
C4    H24   S    
C170  H44   S    
C107  C123  S    
C62   C76   S    
C104  C106  S    
C9    C25   S    
C41   O31   A    
C95   O15   A    
C202  H125  S    
C122  N4    S    
C86   O6    A    
C98   O21   A    
C3    C7    S    
C141  C143  S    
C174  H56   S    
C97   C111  S    
C196  H114  S    
C184  O54   D    
C143  C153  S    
C84   O46   A    
C101  C114  S    
C191  H98   S    
C37   C95   S    
N5    H57   S    
C103  C183  S    
C152  C194  S    
C14   C18   S    
C92   N12   S    
O45   Zn5   S    
C89   O12   A    
O42   Zn6   S    
C2    O28   A    
C202  H124  S    
C62   N8    S    
N12   H93   S    
C57   C70   S    
C185  O55   D    
O39   Zn3   S    
C40   O30   A    
O4    Zn7   S    
O23   Zn9   S    
N8    H69   S    
N11   C189  S    
C74   C80   S    
C169  H40   S    
C130  C145  S    
C33   C46   S    
C30   C44   S    
C133  C152  S    
C102  C182  S    
C31   C49   S    
C90   O13   A    
C164  H30   S    
C104  C118  S    
C181  O51   D    
C121  C167  S    
C113  H13   S    
C122  C168  S    
C40   C148  S    
C182  O52   D    
C94   C164  S    
C81   O43   A    
C67   O37   A    
C60   C71   S    
C114  H14   S    
C19   C147  T    
C56   C60   S    
C105  C124  S    
C58   H4    S    
C175  H58   S    
N4    H51   S    
O16   Zn10  S    
C183  H83   S    
C38   C54   T    
O48   Zn6   S    
C134  C152  S    
C186  O56   D    
C172  H54   S    
C108  H10   S    
C117  C127  S    
C61   C72   S    
C17   C121  S    
C81   C109  S    
C201  H122  S    
O25   Zn11  S    
C4    C162  S    
C103  C118  S    
C171  H49   S    
C108  C123  S    
O20   Zn10  S    
C136  C151  S    
C5    H25   S    
C92   C162  S    
C170  H45   S    
O13   Zn11  S    
O15   Zn9   S    
C6    C10   S    
C196  H112  S    
C187  O57   D    
C20   C166  S    
C60   C75   S    
C21   C167  S    
C132  C146  S    
C108  C116  S    
C190  H95   S    
N10   H77   S    
C32   H32   S    
C130  H16   S    
N1    C169  S    
C135  C151  S    
C24   C158  T    
C112  C128  T    
C3    C161  S    
O29   Zn1   S    
C27   C43   S    
C200  H118  S    
C176  H62   S    
C31   C45   S    
C169  H42   S    
C38   C96   S    
N17   H119  S    
C193  O59   D    
C87   O9    A    
C91   C161  S    
C85   C159  S    
C86   C160  S    
C55   H1    S    
O46   Zn5   S    
C30   H38   S    
C174  O50   D    
C177  H66   S    
C75   H5    S    
O12   Zn10  S    
C180  H78   S    
O9    Zn7   S    
C198  O62   D    
C4    C8    S    
O14   Zn12  S    
C194  H106  S    
N18   H123  S    
C104  C184  S    
C120  N2    S    
C47   C49   S    
N7    H65   S    
C48   C54   S    
N16   C196  S    
O6    Zn8   S    
C88   O8    A    
C11   H19   S    
C82   C110  S    
C103  C113  S    
C91   N11   S    
C199  O63   D    
C12   C166  S    
C18   C200  S    
C13   C167  S    
C45   C51   S    
C12   H20   S    
C46   C52   S    
C13   H21   S    
C69   C71   S    
O1    Zn1   S    
C8    C24   S    
C59   N5    S    
C49   N17   S    
C172  H52   S    
C191  H99   S    
C102  C108  S    
C142  N16   S    
C10   C26   S    
C141  N15   S    
C7    C91   S    
C116  C126  S    
O7    Zn5   S    
N12   C190  S    
O8    Zn6   S    
C118  C128  S    
C87   C137  S    
C1    O1    A    
C98   O22   A    
N14   C192  S    
C107  C116  S    
C63   C67   S    
C133  C143  S    
O17   Zn11  S    
C29   C48   S    
C28   H36   S    
C100  O26   A    
C132  H18   S    
C96   O18   A    
O27   Zn3   S    
N9    C179  S    
C171  H48   S    
O32   Zn2   S    
C14   H22   S    
C57   C74   S    
C163  C167  S    
O40   Zn4   S    
C3    H23   S    
C61   N7    S    
C151  C193  S    
C176  H64   S    
C119  N1    S    
N2    H43   S    
C180  H79   S    
C62   C72   S    
C189  H91   S    
C175  H59   S    
C192  H102  S    
C145  C151  S    
O22   Zn12  S    
C146  C152  S    
C9    C17   S    
C135  C144  S    
C183  O53   D    
C140  C156  T    
C56   C69   S    
C188  O58   D    
C111  C127  T    
C180  H80   S    
C9    C93   S    
C99   O24   A    
C1    C35   S    
C89   C139  S    
N13   H97   S    
C63   C77   T    
C2    C36   S    
C60   N6    S    
C88   O10   A    
C16   C120  S    
C83   O45   A    
C130  C136  S    
C6    C164  S    
C131  C133  S    
C131  C141  S    
O41   Zn5   S    
C70   N10   S    
C85   O47   A    
C115  C125  S    
C179  H76   S    
C117  C123  S    
C39   O29   A    
C196  H113  S    
C193  H105  S    
C68   O38   A    
C33   H33   S    
O26   Zn12  S    
C129  C145  S    
C178  H70   S    
C42   C150  S    
C124  H12   S    
C89   O11   A    
C145  C155  S    
C146  C156  S    
C177  H68   S    
C39   C147  S    
C70   C72   S    
O2    Zn2   S    
O43   Zn7   S    
C185  H85   S    
C59   C71   S    
C57   H3    S    
