data_mof_unit_59159.cif
_audit_creation_date              2012-12-10T22:11:07-0500
_audit_creation_method            fapswitch 2.2
_symmetry_space_group_name_H-M    P1
_symmetry_Int_Tables_number       1
_space_group_crystal_system       triclinic
_cell_length_a                    12.135259
_cell_length_b                    12.294478
_cell_length_c                    23.00677
_cell_angle_alpha                 90.751838
_cell_angle_beta                  91.022086
_cell_angle_gamma                 91.14724
_cell_volume                      3430.9875461

loop_
_atom_site_label
_atom_site_type_symbol
_atom_type_description
_atom_site_fract_x
_atom_site_fract_y
_atom_site_fract_z
_atom_type_partial_charge
C1    C     C_R   0.656877 0.998342 0.579433 0.869758
C2    C     C_R   0.343123 0.001658 0.420567 0.869757
C3    C     C_R   0.899038 0.804813 0.130165 -0.211791
C4    C     C_R   0.100964 0.195189 0.869833 -0.211790
C5    C     C_R   0.088180 0.850567 0.197673 -0.227332
C6    C     C_R   0.911817 0.149428 0.802329 -0.227330
C7    C     C_R   0.088932 0.766188 0.157382 -0.003789
C8    C     C_R   0.911063 0.233804 0.842621 -0.003790
C9    C     C_R   0.897597 0.157159 0.190983 -0.163271
C10   C     C_R   0.102404 0.842840 0.809017 -0.163270
C11   C     C_R   0.899758 0.239567 0.150875 -0.186604
C12   C     C_R   0.100242 0.760432 0.849124 -0.186604
C13   C     C_R   0.104634 0.915544 0.325900 -0.154264
C14   C     C_R   0.895366 0.084456 0.674100 -0.154260
C15   C     C_R   0.188161 0.912440 0.367379 -0.200264
C16   C     C_R   0.811839 0.087560 0.632621 -0.200264
C17   C     C_R   0.873428 0.105610 0.323427 0.039696
C18   C     C_R   0.126572 0.894390 0.676573 0.039695
C19   C     C_R   0.793297 0.101345 0.365387 -0.236105
C20   C     C_R   0.206702 0.898655 0.634612 -0.236105
C21   C     C_3   0.993219 0.008652 0.248213 -0.102162
C22   C     C_3   0.006781 0.991348 0.751787 -0.102162
C23   C     C_R   0.653822 0.002063 0.420474 0.879292
C24   C     C_R   0.346177 0.997937 0.579526 0.879292
C25   C     C_R   0.091207 0.007974 0.290866 0.117454
C26   C     C_R   0.908793 0.992025 0.709134 0.117454
C27   C     C_R   0.257702 0.003045 0.376086 -0.025019
C28   C     C_R   0.742297 0.996954 0.623914 -0.025018
C29   C     C_R   0.894522 0.011309 0.288822 0.068172
C30   C     C_R   0.105478 0.988690 0.711177 0.068173
C31   C     C_R   0.735493 0.004595 0.375519 -0.042928
C32   C     C_R   0.264506 0.995405 0.624481 -0.042927
C33   C     C_R   0.995018 0.103007 0.206134 0.142112
C34   C     C_R   0.004982 0.896993 0.793865 0.142114
C35   C     C_R   0.998079 0.266488 0.123286 -0.021970
C36   C     C_R   0.001921 0.733512 0.876714 -0.021970
C37   C     C_R   0.992148 0.909857 0.207188 0.105615
C38   C     C_R   0.007852 0.090142 0.792812 0.105617
C39   C     C_R   0.994032 0.744142 0.122162 -0.076720
C40   C     C_R   0.005967 0.255856 0.877839 -0.076721
C41   C     C_R   0.993585 0.660314 0.076628 0.862977
C42   C     C_R   0.006415 0.339685 0.923372 0.862975
C43   C     C_R   0.999020 0.351625 0.080548 0.865961
C44   C     C_R   0.000980 0.648375 0.919452 0.865961
C45   C     C_R   0.161459 0.099149 0.300853 -0.173837
C46   C     C_R   0.838539 0.900851 0.699148 -0.173838
C47   C     C_R   0.244054 0.096360 0.342900 -0.192881
C48   C     C_R   0.755944 0.903640 0.657100 -0.192881
C49   C     C_R   0.835051 0.914193 0.300391 -0.204845
C50   C     C_R   0.164948 0.085807 0.699609 -0.204846
C51   C     C_R   0.756150 0.911237 0.342888 -0.194625
C52   C     C_R   0.243849 0.088763 0.657112 -0.194625
C53   C     C_R   0.091096 0.124963 0.174498 -0.171272
C54   C     C_R   0.908904 0.875037 0.825502 -0.171272
C55   C     C_R   0.093490 0.208026 0.134580 -0.193680
C56   C     C_R   0.906510 0.791975 0.865420 -0.193681
C57   C     C_R   0.898281 0.887082 0.171878 -0.158646
C58   C     C_R   0.101721 0.112920 0.828120 -0.158648
H1    H     H_    0.296970 0.167613 0.349607 0.159727
H2    H     H_    0.703028 0.832387 0.650394 0.159726
H3    H     H_    0.852309 0.837960 0.278878 0.154213
H4    H     H_    0.147689 0.162041 0.721121 0.154212
H5    H     H_    0.164836 0.078288 0.181321 0.139388
H6    H     H_    0.835164 0.921713 0.818680 0.139386
H7    H     H_    0.824468 0.934290 0.176290 0.141647
H8    H     H_    0.175535 0.065715 0.823707 0.141647
H9    H     H_    0.819107 0.136083 0.209789 0.132015
H10   H     H_    0.180894 0.863916 0.790210 0.132015
H11   H     H_    0.712443 0.835283 0.350715 0.162646
H12   H     H_    0.287556 0.164717 0.649285 0.162646
H13   H     H_    0.169173 0.224932 0.111818 0.158904
H14   H     H_    0.830827 0.775069 0.888182 0.158903
H15   H     H_    0.824135 0.281659 0.141277 0.158428
H16   H     H_    0.175865 0.718339 0.858722 0.158427
H17   H     H_    0.196812 0.840185 0.393388 0.158584
H18   H     H_    0.803188 0.159816 0.606611 0.158584
H19   H     H_    0.778075 0.173583 0.391411 0.164337
H20   H     H_    0.221923 0.826417 0.608588 0.164337
O1    O     O_R   0.621380 0.090460 0.561410 -0.628225
O2    O     O_R   0.378620 0.909540 0.438590 -0.628225
O3    O     O_R   0.617150 0.909540 0.438590 -0.625953
O4    O     O_R   0.382850 0.090460 0.561410 -0.625954
O5    O     O_R   0.619720 0.093230 0.440890 -0.631698
O6    O     O_R   0.380280 0.906770 0.559110 -0.631699
O7    O     O_R   0.618800 0.906770 0.559110 -0.625053
O8    O     O_R   0.381200 0.093230 0.440890 -0.625053
O9    O     O_R   0.087590 0.627480 0.058790 -0.611495
O10   O     O_R   0.912410 0.372520 0.941210 -0.611495
O11   O     O_R   0.905660 0.383870 0.059980 -0.628139
O12   O     O_R   0.094340 0.616130 0.940020 -0.628139
O13   O     O_R   0.092570 0.390420 0.063230 -0.624398
O14   O     O_R   0.907430 0.609580 0.936770 -0.624399
O15   O     O_R   0.900680 0.620930 0.055550 -0.627178
O16   O     O_R   0.099320 0.379070 0.944450 -0.627177
Zn1   Zn    Zn3+2 0.501730 0.123520 0.501540 0.952860
Zn2   Zn    Zn3+2 0.498270 0.876480 0.498460 0.952860
Zn3   Zn    Zn3+2 0.125690 0.504390 0.002180 0.968848
Zn4   Zn    Zn3+2 0.874310 0.495610 0.997820 0.968847
H21   H     H_    0.164678 0.870553 0.220602 0.148488
H22   H     H_    0.835319 0.129438 0.779402 0.148486
H23   H     H_    0.050385 0.844997 0.320667 0.145188
H24   H     H_    0.949614 0.155004 0.679333 0.145188
C59   C     C_1   0.933305 0.207953 0.318801 0.144114
N1    N     N_1   0.980118 0.290529 0.315410 -0.209215
C60   C     C_1   0.066693 0.792046 0.681198 0.144114
N2    N     N_1   0.019880 0.709471 0.684589 -0.209216
H25   H     H_    0.825738 0.790099 0.103428 0.164031
H26   H     H_    0.174266 0.209907 0.896568 0.164032
C61   C     C_1   0.188636 0.703822 0.154489 0.190734
N3    N     N_1   0.268494 0.654102 0.152381 -0.204061
C62   C     C_1   0.811350 0.296156 0.845521 0.190740
N4    N     N_1   0.731484 0.345863 0.847635 -0.204063
H27   H     H_    0.151846 0.174407 0.277917 0.162230
H28   H     H_    0.848152 0.825592 0.722084 0.162230

loop_
_geom_bond_atom_site_label_1
_geom_bond_atom_site_label_2
_ccdc_geom_bond_type
C16   C28   A    
C15   H17   S    
C5    C37   A    
C17   C29   A    
C62   N4    T    
C19   C31   A    
C9    H9    S    
O14   Zn4   S    
C39   C41   S    
C29   C49   A    
C4    H26   S    
C43   O11   A    
C23   O5    A    
C12   H16   S    
O7    Zn2   S    
C14   H24   S    
C21   C33   S    
C22   C38   S    
O6    Zn2   S    
C19   H19   S    
C24   O4    A    
C32   C52   A    
C38   C58   A    
C58   H8    S    
C41   O15   A    
C4    C40   A    
C49   C51   A    
C1    C28   S    
C50   C52   A    
C6    C38   A    
C55   H13   S    
C2    C27   S    
C18   C30   A    
O2    Zn2   S    
C35   C43   S    
O12   Zn3   S    
C44   O14   A    
C53   C55   A    
C30   C50   A    
C3    C39   A    
C42   O16   A    
C9    C33   A    
C13   C25   A    
C22   C34   S    
C48   H2    S    
C46   C48   A    
C45   C47   A    
C33   C53   A    
C41   O9    A    
C54   C56   A    
C49   H3    S    
C46   H28   S    
C35   C55   A    
C5    H21   S    
C52   H12   S    
C11   H15   S    
C8    C62   S    
C31   C51   A    
C5    C7    A    
O3    Zn2   S    
C6    C8    A    
O16   Zn3   S    
C3    H25   S    
C21   C29   S    
O13   Zn3   S    
C7    C61   S    
C6    H22   S    
C24   C32   S    
O1    Zn1   S    
C36   C56   A    
C15   C27   A    
O5    Zn1   S    
C10   C34   A    
C14   C26   A    
C9    C11   A    
C10   C12   A    
C3    C57   A    
C34   C54   A    
C42   O10   A    
C13   C15   A    
C1    O1    A    
C14   C16   A    
C36   C44   S    
C1    O7    A    
C12   C36   A    
C13   H23   S    
C25   C45   A    
C44   O12   A    
C20   C32   A    
C27   C47   A    
C21   C25   S    
C28   C48   A    
O4    Zn1   S    
C23   O3    A    
C56   H14   S    
C16   H18   S    
C57   H7    S    
C37   C57   A    
C10   H10   S    
C51   H11   S    
C60   N2    T    
C20   H20   S    
O11   Zn4   S    
C11   C35   A    
C24   O6    A    
C18   C60   S    
C22   C30   S    
C61   N3    T    
C53   H5    S    
C54   H6    S    
C50   H4    S    
C40   C42   S    
C17   C19   A    
C2    O8    A    
C18   C20   A    
C17   C59   S    
C43   O13   A    
C2    O2    A    
O8    Zn1   S    
C26   C46   A    
C47   H1    S    
C45   H27   S    
C21   C37   S    
C22   C26   S    
C4    C58   A    
C59   N1    T    
C7    C39   A    
C8    C40   A    
O15   Zn4   S    
O10   Zn4   S    
C23   C31   S    
O9    Zn3   S    
