data_mof_unit_8090.cif
_audit_creation_date              2012-12-11T17:41:42-0500
_audit_creation_method            fapswitch 2.2
_symmetry_space_group_name_H-M    P1
_symmetry_Int_Tables_number       1
_space_group_crystal_system       triclinic
_cell_length_a                    15.48367
_cell_length_b                    14.871706
_cell_length_c                    15.083019
_cell_angle_alpha                 109.642951
_cell_angle_beta                  121.244221
_cell_angle_gamma                 59.140622
_cell_volume                      2537.37540938

loop_
_atom_site_label
_atom_site_type_symbol
_atom_type_description
_atom_site_fract_x
_atom_site_fract_y
_atom_site_fract_z
_atom_type_partial_charge
C1    C     C_R   0.755927 0.993037 0.790586 -0.074718
C2    C     C_R   0.459635 0.323193 0.134690 0.813499
C3    C     C_R   0.509160 0.704952 0.788043 -0.276418
C4    C     C_R   0.495145 0.214005 0.116750 -0.380862
C5    C     C_R   0.573005 0.734697 0.891220 0.030751
C6    C     C_R   0.416965 0.170841 0.060306 0.059723
C7    C     C_R   0.674374 0.657228 0.951083 -0.145724
C8    C     C_R   0.302820 0.238162 0.021372 -0.051595
C9    C     C_R   0.711190 0.552653 0.908447 -0.136062
C10   C     C_R   0.267551 0.347091 0.041553 -0.216119
C11   C     C_R   0.647433 0.524233 0.805860 -0.238014
C12   C     C_R   0.197004 0.061457 0.227136 -0.054523
C13   C     C_R   0.345898 0.389497 0.096986 -0.256035
C14   C     C_R   0.540374 0.869856 0.036686 -0.235063
C15   C     C_R   0.448850 0.035316 0.922948 -0.220677
C16   C     C_R   0.233111 0.290374 0.483102 0.646670
C17   C     C_R   0.801850 0.725399 0.558886 0.631310
C18   C     C_R   0.501294 0.975026 0.077901 0.107233
C19   C     C_R   0.489708 0.931125 0.881960 0.068312
C20   C     C_R   0.453839 0.058605 0.020550 0.094115
C21   C     C_R   0.534036 0.846158 0.936599 0.072099
C22   C     C_2   0.126401 0.401033 0.595236 0.597670
C23   C     C_R   0.195475 0.301250 0.553817 -0.469950
C24   C     C_2   0.977937 0.646689 0.529785 0.612379
C25   C     C_2   0.136760 0.488896 0.606119 -0.138623
C26   C     C_2   0.047143 0.591306 0.613155 -0.126325
C27   C     C_2   0.848819 0.117812 0.898516 -0.198542
C28   C     C_2   0.015279 0.048056 0.157277 -0.189219
C29   C     C_R   0.089177 0.725574 0.237017 -0.246514
C30   C     C_R   0.851771 0.131773 0.416339 -0.272300
C31   C     C_R   0.196898 0.658409 0.298124 -0.245597
C32   C     C_R   0.744556 0.212491 0.390645 -0.228105
C33   C     C_R   0.287441 0.633415 0.279501 -0.128555
C34   C     C_R   0.863950 0.724163 0.516951 -0.452887
C35   C     C_R   0.720920 0.299151 0.463079 -0.102393
C36   C     C_R   0.267676 0.680476 0.198717 0.452898
C37   C     C_R   0.807909 0.303522 0.563905 0.451569
C38   C     C_R   0.158850 0.748850 0.139225 -0.306761
C39   C     C_R   0.915311 0.222342 0.587719 -0.316780
C40   C     C_R   0.595297 0.216023 0.491176 -0.118823
C41   C     C_R   0.405463 0.769398 0.443714 -0.051261
C42   C     C_R   0.069919 0.769548 0.156768 0.716703
C43   C     C_R   0.937227 0.136980 0.514515 0.793113
C44   C     C_R   0.406304 0.457847 0.344436 -0.179376
C45   C     C_R   0.506086 0.298852 0.434464 0.025386
C46   C     C_R   0.599844 0.482925 0.425828 -0.138542
C47   C     C_R   0.508625 0.378385 0.399147 0.065939
C48   C     C_R   0.497037 0.570689 0.398448 0.049005
C49   C     C_R   0.607796 0.386559 0.428897 0.119660
C50   C     C_R   0.398842 0.554217 0.341481 0.114086
C51   C     C_2   0.863818 0.103950 0.989657 -0.076649
C52   C     C_2   0.958441 0.114454 0.084259 -0.094957
C53   C     C_R   0.406936 0.976268 0.707514 -0.099190
C54   C     C_R   0.594230 0.968488 0.269913 -0.231236
C55   C     C_R   0.411700 0.289046 0.411887 -0.025065
C56   C     C_R   0.496747 0.674667 0.446729 0.044108
C57   C     C_R   0.590611 0.694222 0.516337 -0.098391
C58   C     C_R   0.589656 0.906674 0.785224 0.529415
C59   C     C_R   0.408801 0.047496 0.195500 0.521746
C60   C     C_R   0.233447 0.200075 0.574913 0.682365
C61   C     C_R   0.801151 0.815030 0.467097 0.644244
C62   C     C_R   0.757460 0.084946 0.700574 -0.097707
C63   C     C_R   0.195633 0.970809 0.316458 -0.136432
C64   C     C_R   0.787640 0.069055 0.800380 0.092401
C65   C     C_R   0.132718 0.024019 0.228444 0.106577
C66   C     C_R   0.496685 0.919038 0.788145 -0.179240
C67   C     C_R   0.501500 0.995120 0.176704 -0.047339
C68   C     C_R   0.546682 0.600360 0.745518 0.805057
F1    F     F_    0.485018 0.572708 0.645818 -0.710543
F2    F     F_    0.535268 0.364843 0.184947 -0.720001
F3    F     F_    0.964389 0.830690 0.094393 -0.707112
F4    F     F_    0.041592 0.059017 0.538952 -0.669251
F5    F     F_    0.204759 0.367657 0.432046 -0.699222
F6    F     F_    0.840067 0.664515 0.632171 -0.677106
F7    F     F_    0.212844 0.173859 0.637475 -0.699866
F8    F     F_    0.842127 0.858357 0.440469 -0.702594
H1    H     H_    0.768665 0.960100 0.852167 0.176843
H2    H     H_    0.241378 0.206264 0.972745 0.171154
H3    H     H_    0.789384 0.493602 0.954963 0.153494
H4    H     H_    0.179547 0.398678 0.011271 0.176478
H5    H     H_    0.572759 0.807091 0.081709 0.145071
H6    H     H_    0.417618 0.099669 0.880191 0.167812
H7    H     H_    0.026313 0.609411 0.677314 0.203300
H8    H     H_    0.199122 0.486236 0.590522 0.189548
H9    H     H_    0.020295 0.742395 0.251158 0.187808
H10   H     H_    0.868684 0.065499 0.359649 0.181762
H11   H     H_    0.209650 0.624692 0.359686 0.214666
H12   H     H_    0.167214 0.119684 0.179329 0.115464
H13   H     H_    0.679738 0.207730 0.314064 0.194382
H14   H     H_    0.142785 0.783974 0.076894 0.193505
H15   H     H_    0.982148 0.225269 0.663940 0.206550
H16   H     H_    0.330312 0.447469 0.306694 0.123954
H17   H     H_    0.675998 0.490219 0.453226 0.141028
H18   H     H_    0.682102 0.188670 0.513338 0.119514
H19   H     H_    0.318684 0.785777 0.402826 0.116042
H20   H     H_    0.320982 0.994373 0.682898 0.224976
H21   H     H_    0.680245 0.932735 0.283318 0.206894
H22   H     H_    0.327808 0.330092 0.356471 0.151092
H23   H     H_    0.979200 0.001910 0.157188 0.195305
H24   H     H_    0.676193 0.638458 0.540661 0.182433
H25   H     H_    0.771239 0.138258 0.680572 0.110989
H26   H     H_    0.164377 0.945422 0.348770 0.131865
H27   H     H_    0.992313 0.162393 0.083826 0.131723
H28   H     H_    0.820468 0.067098 0.992623 0.153450
H29   H     H_    0.945696 0.661579 0.391254 0.342479
H30   H     H_    0.039655 0.339084 0.590060 0.356547
H31   H     H_    0.417646 0.598320 0.206112 0.345480
H32   H     H_    0.711548 0.427324 0.620846 0.327912
H33   H     H_    0.701369 0.813907 0.894061 0.333888
H34   H     H_    0.893015 0.154585 0.896653 0.146390
H35   H     H_    0.271160 0.167944 0.170638 0.294949
H36   H     H_    0.676094 0.443125 0.773324 0.157759
H37   H     H_    0.318188 0.473740 0.108969 0.167253
H38   H     H_    0.429858 0.762437 0.740708 0.165457
H39   H     H_    0.582972 0.162974 0.140826 0.155403
H40   H     H_    0.725688 0.677879 0.030337 0.137905
N1    N     N_R   0.705410 0.966550 0.689210 -0.051066
N2    N     N_R   0.556610 0.796750 0.548620 -0.043351
N3    N     N_R   0.556610 0.951620 0.703500 -0.087441
N4    N     N_R   0.443390 0.048380 0.296500 -0.111211
N5    N     N_R   0.294590 0.131500 0.522480 -0.140275
N6    N     N_R   0.705410 0.868500 0.477520 -0.135764
N7    N     N_R   0.705410 0.023370 0.632390 -0.054947
N8    N     N_R   0.294590 0.976630 0.367610 -0.051009
N9    N     N_R   0.294590 0.033450 0.310790 -0.060940
N10   N     N_R   0.294590 0.188320 0.465660 -0.146101
N11   N     N_R   0.705410 0.811680 0.534340 -0.138192
N12   N     N_R   0.556610 0.157790 0.497330 -0.051326
N13   N     N_R   0.443390 0.842210 0.502670 -0.060420
N14   N     N_R   0.443390 0.997080 0.657540 -0.080141
N15   N     N_R   0.556610 0.002920 0.342460 -0.060325
N16   N     N_R   0.443390 0.203250 0.451380 -0.059280
Ni1   Ni    Ni4+2 0.629830 0.882720 0.617850 0.308197
Ni2   Ni    Ni4+2 0.370170 0.117280 0.382150 0.209294
Ni3   Ni    Ni4+2 0.629830 0.013030 0.487540 0.244013
Ni4   Ni    Ni4+2 0.370170 0.986970 0.512460 0.244154
O1    O     O_3   0.010044 0.621616 0.451128 -0.696796
O2    O     O_3   0.045094 0.407455 0.614529 -0.692296
O3    O     O_3   0.349733 0.660010 0.172481 -0.729366
O4    O     O_3   0.792139 0.383923 0.641206 -0.722546
O5    O     O_3   0.698362 0.839946 0.839765 -0.726958
O6    O     O_3   0.303389 0.105794 0.127738 -0.784198

loop_
_geom_bond_atom_site_label_1
_geom_bond_atom_site_label_2
_ccdc_geom_bond_type
N9    Ni2   S    
C41   N13   A    
C63   C65   A    
C52   H27   S    
C59   N4    A    
C29   C42   A    
N4    N15   A    
C1    H1    S    
C14   C18   A    
C4    H39   S    
C3    C68   A    
N1    Ni1   S    
C33   C36   A    
C63   N8    A    
C47   C49   A    
C15   C19   A    
C54   N15   A    
C46   C49   A    
N3    Ni1   S    
C26   H7    S    
C14   C21   A    
C35   C37   A    
C24   C26   D    
C38   C42   A    
N15   Ni3   S    
H30   O2    S    
C40   N12   A    
N3    N14   A    
C56   C57   A    
C19   C66   S    
C48   C56   S    
C9    H3    S    
N6    N11   A    
C2    C13   A    
C58   N3    A    
C62   C64   A    
H35   O6    S    
C59   C67   A    
C58   C66   A    
C27   H34   S    
C68   F1    S    
C37   O4    S    
C35   C49   S    
C25   H8    S    
C31   C33   A    
C54   H21   S    
C30   H10   S    
C29   H9    S    
C44   H16   S    
C44   C47   A    
C62   H25   S    
C48   C50   A    
C10   C13   A    
C53   H20   S    
C8    H2    S    
C23   C60   A    
C15   C20   A    
C63   H26   S    
N12   N16   A    
C39   H15   S    
C62   N7    A    
C27   C51   D    
C15   H6    S    
C45   C47   S    
C61   F8    S    
C40   C45   A    
C37   C39   A    
C46   C48   A    
C31   H11   S    
C12   H12   S    
C51   C52   S    
C32   C35   A    
C59   O6    S    
C4    C6    A    
N12   Ni3   S    
C5    C7    A    
C10   H4    S    
C17   N11   A    
N8    Ni4   S    
C39   C43   A    
C12   N9    A    
C25   C26   S    
C57   H24   S    
C22   C25   D    
C34   C61   A    
C24   C34   S    
C16   F5    S    
N7    Ni3   S    
C61   N6    A    
C7    H40   S    
C2    C4    A    
C41   C56   A    
N13   Ni4   S    
C32   H13   S    
C1    N1    A    
C53   C66   A    
C9    C11   A    
C45   C55   A    
N2    Ni1   S    
N16   Ni2   S    
C28   H23   S    
N4    Ni2   S    
C16   C23   A    
C17   F6    S    
C30   C43   A    
C17   C34   A    
C1    C64   A    
C11   C68   A    
H32   O4    S    
C44   C50   A    
C7    C9    A    
C43   F4    S    
C38   H14   S    
C51   H28   S    
C19   C21   A    
C11   H36   S    
N14   Ni4   S    
N11   Ni1   S    
C40   H18   S    
C3    C5    A    
C3    H38   S    
C6    C8    A    
C54   C67   A    
C24   O1    S    
C6    C20   S    
C12   C65   A    
C22   O2    S    
C60   F7    S    
C36   C38   A    
C28   C65   S    
C33   C50   S    
N5    N10   A    
C29   C31   A    
N2    N13   A    
C30   C32   A    
C28   C52   D    
C58   O5    S    
C41   H19   S    
C46   H17   S    
C55   H22   S    
C42   F3    S    
C18   C20   A    
N5    Ni4   S    
N1    N7    A    
C60   N5    A    
C36   O3    S    
N6    Ni3   S    
C27   C64   S    
H29   O1    S    
C5    C21   S    
N10   Ni2   S    
C8    C10   A    
C55   N16   A    
C18   C67   S    
C22   C23   S    
N8    N9    A    
H33   O5    S    
C53   N14   A    
C14   H5    S    
C2    F2    S    
C16   N10   A    
H31   O3    S    
C13   H37   S    
C57   N2    A    
