data_mof_unit_37102.cif
_audit_creation_date              2012-12-11T14:27:31-0500
_audit_creation_method            fapswitch 2.2
_symmetry_space_group_name_H-M    P1
_symmetry_Int_Tables_number       1
_space_group_crystal_system       triclinic
_cell_length_a                    6.937181
_cell_length_b                    14.783046
_cell_length_c                    16.157354
_cell_angle_alpha                 91.001238
_cell_angle_beta                  90.210793
_cell_angle_gamma                 89.862481
_cell_volume                      1656.71100093

loop_
_atom_site_label
_atom_site_type_symbol
_atom_type_description
_atom_site_fract_x
_atom_site_fract_y
_atom_site_fract_z
_atom_type_partial_charge
O1    O     O_R   0.494510 0.415970 0.413200 -0.518242
O2    O     O_R   0.823800 0.407430 0.586200 -0.540830
O3    O     O_R   0.994130 0.584030 0.586800 -0.550572
C1    C     C_R   0.655220 0.383744 0.612601 0.805095
O4    O     O_R   0.824220 0.405090 0.413820 -0.553878
O5    O     O_R   0.994560 0.581670 0.413190 -0.539063
C2    C     C_R   0.654965 0.384339 0.384400 0.667698
O6    O     O_R   0.494090 0.418330 0.586810 -0.532161
O7    O     O_3   0.660810 0.557940 0.500000 -0.367440
V1    V     V_3+5 0.935650 0.489250 0.500000 1.547080
O8    O     O_R   0.324270 0.592570 0.413800 -0.519881
C3    C     C_R   0.154350 0.615861 0.387677 0.785805
O9    O     O_R   0.323850 0.594910 0.586180 -0.522729
C4    C     C_R   0.155109 0.616664 0.614947 0.743705
V2    V     V_3+5 0.435660 0.510750 0.500000 1.609339
O10   O     O_3   0.160630 0.442060 0.500000 -0.375275
C5    C     C_3   0.954307 0.724996 0.720038 -0.187178
C6    C     C_3   0.032703 0.712729 0.809585 -0.183247
H1    H     H_    0.950510 0.684201 0.861827 0.146127
H2    H     H_    0.806581 0.707005 0.698984 0.169413
C7    C     C_3   0.121201 0.808485 0.807436 -0.088510
C8    C     C_3   0.043711 0.820843 0.718826 -0.027677
C9    C     C_3   0.232565 0.781069 0.683524 -0.072856
C10   C     C_3   0.312234 0.769215 0.772410 -0.213228
C11   C     C_3   0.222090 0.673708 0.773366 0.033114
C12   C     C_3   0.144953 0.685494 0.684713 -0.118499
H3    H     H_    0.460147 0.786896 0.793608 0.137593
C13   C     C_2   0.019641 0.694683 0.265768 -0.129159
C14   C     C_2   0.137985 0.695452 0.333868 -0.236337
C15   C     C_2   0.986567 0.778203 0.217989 0.003350
C16   C     C_2   0.126932 0.805110 0.166322 -0.362769
H4    H     H_    0.261236 0.767012 0.164881 0.157831
C17   C     C_2   0.780577 0.202822 0.776127 0.585936
C18   C     C_2   0.615023 0.170654 0.808144 -0.424043
H5    H     H_    0.478026 0.187026 0.779323 0.162377
C19   C     C_2   0.786695 0.256977 0.698819 -0.116064
C20   C     C_2   0.645542 0.317535 0.680550 -0.406254
H6    H     H_    0.520393 0.323062 0.720373 0.160105
C21   C     C_2   0.777081 0.208860 0.210628 -0.065256
C22   C     C_2   0.613277 0.172628 0.179635 -0.227098
H7    H     H_    0.914179 0.189538 0.183217 0.147794
H8    H     H_    0.475743 0.186169 0.208670 0.203736
C23   C     C_2   0.785826 0.271110 0.284217 -0.197037
C24   C     C_2   0.637915 0.322679 0.311893 0.467017
H9    H     H_    0.924404 0.276159 0.315453 0.129839
O11   O     O_R   0.771000 0.074870 0.906030 -0.489265
O12   O     O_R   0.440710 0.088040 0.078970 -0.549269
O13   O     O_R   0.270540 0.911420 0.079570 -0.549144
C25   C     C_R   0.609262 0.108975 0.108301 0.726944
O14   O     O_R   0.441280 0.085700 0.906600 -0.535609
O15   O     O_R   0.271110 0.909060 0.905960 -0.548028
C26   C     C_R   0.609785 0.107218 0.878285 0.823810
O16   O     O_R   0.770430 0.077230 0.079640 -0.537223
O17   O     O_3   0.604340 0.935220 0.992820 -0.387444
V3    V     V_3+5 0.329430 0.003850 0.992770 1.540464
O18   O     O_R   0.941400 0.898110 0.906530 -0.540535
C27   C     C_R   0.110255 0.876691 0.877569 0.758634
O19   O     O_R   0.940830 0.900450 0.078910 -0.535403
C28   C     C_R   0.110316 0.879104 0.106814 0.775268
V4    V     V_3+5 0.829450 0.982250 0.992700 1.564772
O20   O     O_3   0.104410 0.051000 0.992740 -0.357346
F1    F     F_    0.952277 0.180074 0.811320 -0.629236
C29   C     C_2   0.952392 0.240202 0.642227 0.868129
O21   O     O_2   0.114846 0.230377 0.670354 -0.524224
O22   O     O_R   0.921213 0.232481 0.556797 -0.666166
H10   H     H_    0.044602 0.220761 0.524882 0.295391
F2    F     F_    0.466664 0.324155 0.270732 -0.680327
C30   C     C_2   0.939756 0.901564 0.685677 0.810058
O23   O     O_2   0.883125 0.900459 0.613977 -0.527916
O24   O     O_R   0.908341 0.977529 0.736339 -0.650354
H11   H     H_    0.836123 0.026939 0.706447 0.304448
C31   C     C_2   0.353254 0.817262 0.614868 0.804157
O25   O     O_2   0.303999 0.885666 0.579005 -0.518860
O26   O     O_R   0.523339 0.772365 0.592854 -0.655140
H12   H     H_    0.593241 0.802607 0.545883 0.350026
C32   C     C_2   0.323004 0.592781 0.807482 0.748339
O27   O     O_2   0.379554 0.594566 0.879212 -0.545924
O28   O     O_R   0.351685 0.515835 0.757688 -0.669448
H13   H     H_    0.421247 0.466007 0.788149 0.293481
C33   C     C_2   0.930572 0.610339 0.230443 0.819463
O29   O     O_2   0.995964 0.535712 0.246420 -0.555308
O30   O     O_R   0.775819 0.617076 0.175138 -0.639505
H14   H     H_    0.728534 0.555847 0.154505 0.316360
C34   C     C_2   0.234900 0.779646 0.365632 0.778856
O31   O     O_2   0.382006 0.773688 0.407108 -0.537358
O32   O     O_R   0.156372 0.865187 0.351268 -0.643958
H15   H     H_    0.236002 0.915918 0.376858 0.327762
C35   C     C_2   0.805934 0.830178 0.232937 0.878269
O33   O     O_2   0.806696 0.912926 0.232512 -0.554153
O34   O     O_R   0.636128 0.784331 0.251133 -0.641586
H16   H     H_    0.522970 0.827216 0.257847 0.296428

loop_
_geom_bond_atom_site_label_1
_geom_bond_atom_site_label_2
_ccdc_geom_bond_type
O13   V3    S    
C29   O22   S    
C3    C14   S    
C6    C7    S    
C10   H3    S    
C1    O6    A    
C5    H2    S    
O12   C25   A    
O17   V4    S    
C5    C12   S    
C19   C20   D    
C32   O28   S    
C6    H1    S    
O5    C3    A    
C15   C16   D    
O19   V4    S    
C22   C25   S    
O11   C26   A    
C17   C19   S    
O18   C27   A    
C18   H5    S    
C9    C12   S    
C16   C28   S    
O8    V2    S    
C34   O31   D    
C30   O23   D    
O14   C26   A    
C9    C10   S    
O24   H11   S    
O15   C27   A    
C19   C29   S    
O7    V1    S    
C35   O33   D    
C22   H8    S    
O1    C2    A    
O9    C4    A    
C6    C11   S    
O16   V4    S    
C17   C18   D    
O26   H12   S    
C10   C11   S    
C14   C34   S    
C33   O30   S    
C21   C22   D    
O4    C2    A    
O32   H15   S    
C33   O29   D    
C21   C23   S    
O19   C28   A    
C17   F1    S    
C4    C12   S    
O18   V4    S    
V4    O20   S    
O2    C1    A    
C23   C24   D    
C7    C27   S    
C20   H6    S    
C16   H4    S    
C5    C6    S    
C2    C24   S    
C32   O27   D    
C23   H9    S    
C8    C30   S    
O3    C4    A    
O1    V2    S    
C31   O26   S    
C35   O34   S    
O30   H14   S    
O6    V2    S    
O9    V2    S    
C15   C35   S    
O2    V1    S    
O13   C28   A    
O12   V3    S    
O17   V3    S    
C13   C14   D    
O11   V4    S    
O28   H13   S    
C9    C31   S    
C5    C8    S    
C34   O32   S    
C31   O25   D    
O5    V1    S    
O8    C3    A    
C18   C26   S    
O14   V3    S    
C11   C32   S    
C13   C15   S    
C11   C12   S    
O4    V1    S    
O3    V1    S    
V1    O10   S    
O34   H16   S    
C25   O16   A    
V3    O20   S    
O15   V3    S    
O7    V2    S    
C13   C33   S    
C29   O21   D    
C1    C20   S    
C21   H7    S    
C30   O24   S    
O22   H10   S    
C7    C10   S    
C8    C9    S    
C24   F2    S    
C7    C8    S    
V2    O10   S    
