data_mof_unit_59269.cif
_audit_creation_date              2012-12-10T16:58:27-0500
_audit_creation_method            fapswitch 2.2
_symmetry_space_group_name_H-M    P1
_symmetry_Int_Tables_number       1
_space_group_crystal_system       triclinic
_cell_length_a                    7.747878
_cell_length_b                    8.566614
_cell_length_c                    23.396521
_cell_angle_alpha                 90.993875
_cell_angle_beta                  85.87968
_cell_angle_gamma                 93.681509
_cell_volume                      1545.56273586

loop_
_atom_site_label
_atom_site_type_symbol
_atom_type_description
_atom_site_fract_x
_atom_site_fract_y
_atom_site_fract_z
_atom_type_partial_charge
C1    C     C_R   0.545878 0.794823 0.498509 0.975103
C2    C     C_R   0.648165 0.502592 0.292324 -0.204380
C3    C     C_R   0.356060 0.495527 0.766789 -0.099225
C4    C     C_R   0.643940 0.504446 0.233210 -0.099229
C5    C     C_R   0.515008 0.494872 0.791325 0.323071
C6    C     C_R   0.484991 0.505123 0.208675 0.323078
C7    C     C_2   0.570108 0.958277 0.497649 -0.371600
C8    C     C_2   0.429892 0.041723 0.502351 -0.371600
C9    C     C_R   0.502257 0.499804 0.610656 0.874630
C10   C     C_R   0.497743 0.500195 0.389344 0.874629
C11   C     C_R   0.444927 0.366830 0.120142 0.505421
C12   C     C_R   0.454122 0.205177 0.501491 0.975103
C13   C     C_R   0.555071 0.633166 0.879858 0.505422
C14   C     C_R   0.523779 0.641596 0.119578 0.505730
C15   C     C_R   0.476220 0.358399 0.880422 0.505729
C16   C     C_R   0.531658 0.642664 0.059800 -0.013604
C17   C     C_R   0.468340 0.357332 0.940200 -0.013603
C18   C     C_R   0.495568 0.501146 0.030079 -0.020395
C19   C     C_R   0.504431 0.498849 0.969921 -0.020395
C20   C     C_R   0.450969 0.361861 0.060374 -0.013363
C21   C     C_R   0.549029 0.638134 0.939625 -0.013363
C22   C     C_R   0.575950 0.780765 0.029243 -0.167243
C23   C     C_R   0.670247 0.495752 0.757059 -0.092757
C24   C     C_R   0.424049 0.219231 0.970757 -0.167242
C25   C     C_R   0.584617 0.778508 0.969619 -0.167210
C26   C     C_R   0.415381 0.221487 0.030381 -0.167211
C27   C     C_R   0.329752 0.504266 0.242941 -0.092760
C28   C     C_R   0.666528 0.497092 0.697818 -0.211358
C29   C     C_R   0.333471 0.502928 0.302182 -0.211356
C30   C     C_R   0.507112 0.498172 0.672805 -0.038918
C31   C     C_R   0.492887 0.501826 0.327194 -0.038918
C32   C     C_R   0.351835 0.497383 0.707676 -0.204385
H1    H     H_    0.604463 0.890686 0.051243 0.195101
H2    H     H_    0.772673 0.502106 0.310599 0.161541
H3    H     H_    0.236218 0.495195 0.793658 0.136356
H4    H     H_    0.763782 0.504760 0.206341 0.136353
H5    H     H_    0.702505 0.009397 0.493161 0.180906
H6    H     H_    0.297495 0.990602 0.506839 0.180906
H7    H     H_    0.014035 0.382787 0.456830 0.191248
H8    H     H_    0.985965 0.617213 0.543170 0.191247
H9    H     H_    0.395536 0.109309 0.948757 0.195101
H10   H     H_    0.619173 0.886824 0.947173 0.194886
H11   H     H_    0.380825 0.113172 0.052827 0.194886
H12   H     H_    0.793098 0.495444 0.776400 0.135092
H13   H     H_    0.206900 0.504592 0.223600 0.135089
H14   H     H_    0.787915 0.497927 0.671757 0.159125
H15   H     H_    0.212084 0.502112 0.328243 0.159126
H16   H     H_    0.227328 0.497851 0.689400 0.161542
N1    N     N_R   0.482013 0.504969 0.148076 -0.364223
N2    N     N_R   0.517986 0.495026 0.851924 -0.364222
N3    N     N_2   0.950330 0.457950 0.484560 -0.175359
N4    N     N_2   0.049670 0.542050 0.515440 -0.175359
O1    O     O_R   0.389250 0.738570 0.503790 -0.610638
O2    O     O_2   0.595581 0.765115 0.849759 -0.529747
O3    O     O_2   0.558032 0.775358 0.149163 -0.528770
O4    O     O_2   0.441969 0.224637 0.850837 -0.528771
O5    O     O_R   0.610750 0.261430 0.496210 -0.610638
O6    O     O_R   0.678390 0.711620 0.493890 -0.628784
O7    O     O_R   0.321610 0.288380 0.506110 -0.628784
O8    O     O_R   0.355400 0.513520 0.588790 -0.620964
O9    O     O_R   0.644600 0.486480 0.411210 -0.620964
O10   O     O_R   0.644550 0.486570 0.578900 -0.629307
O11   O     O_R   0.355450 0.513430 0.421100 -0.629307
O12   O     O_2   0.404415 0.234880 0.150241 -0.529747
Zn1   Zn    Zn3+2 0.306930 0.518000 0.506610 0.949639
Zn2   Zn    Zn3+2 0.693070 0.482000 0.493390 0.949639

loop_
_geom_bond_atom_site_label_1
_geom_bond_atom_site_label_2
_ccdc_geom_bond_type
C25   H10   S    
C26   H11   S    
C2    C4    A    
N4    Zn1   S    
C4    H4    S    
C11   N1    A    
C27   C29   A    
O1    Zn1   S    
H7    N3    S    
C6    C27   A    
C5    C23   A    
C3    H3    S    
O5    Zn2   S    
C8    C12   S    
C9    O8    A    
C15   O4    S    
C27   H13   S    
C28   C30   A    
C14   O3    S    
C7    H5    S    
C13   C21   A    
C7    C8    D    
C29   C31   A    
H8    N4    S    
C1    O6    A    
O7    Zn1   S    
C30   C32   A    
C24   H9    S    
C32   H16   S    
C28   H14   S    
C20   C26   A    
C9    C30   S    
C29   H15   S    
C12   O5    A    
O9    Zn2   S    
C4    C6    A    
C13   N2    A    
C17   C19   A    
C24   C26   A    
O8    Zn1   S    
C11   O12   S    
C18   C20   A    
C8    H6    S    
C6    N1    S    
C3    C32   A    
O11   Zn1   S    
C14   C16   A    
C11   C20   A    
C17   C24   A    
C23   C28   A    
O10   Zn2   S    
C9    O10   A    
C14   N1    A    
C5    N2    S    
N3    N4    D    
C16   C18   A    
C13   O2    S    
C15   N2    A    
C15   C17   A    
C22   H1    S    
C1    O1    A    
C18   C19   A    
C21   C25   A    
C19   C21   A    
C2    H2    S    
C1    C7    S    
C12   O7    A    
C10   O9    A    
C10   C31   S    
C22   C25   A    
C23   H12   S    
C10   O11   A    
C16   C22   A    
C2    C31   A    
C3    C5    A    
N3    Zn2   S    
O6    Zn2   S    
