data_mof_unit_21654.cif
_audit_creation_date              2012-12-10T18:53:40-0500
_audit_creation_method            fapswitch 2.2
_symmetry_space_group_name_H-M    P1
_symmetry_Int_Tables_number       1
_space_group_crystal_system       triclinic
_cell_length_a                    10.573591
_cell_length_b                    9.96431
_cell_length_c                    18.897748
_cell_angle_alpha                 91.142272
_cell_angle_beta                  92.128211
_cell_angle_gamma                 90.462919
_cell_volume                      1989.19285022

loop_
_atom_site_label
_atom_site_type_symbol
_atom_type_description
_atom_site_fract_x
_atom_site_fract_y
_atom_site_fract_z
_atom_type_partial_charge
C1    C     C_R   0.260551 0.499605 0.500081 0.869660
C2    C     C_R   0.739450 0.500312 0.500760 0.835888
C3    C     C_R   0.371811 0.517590 0.923608 0.430423
C4    C     C_R   0.410644 0.502013 0.065183 0.412798
C5    C     C_R   0.505352 0.498689 0.364807 0.976297
C6    C     C_R   0.495828 0.501071 0.634472 1.022594
C7    C     C_R   0.060259 0.433020 0.445746 -0.115006
C8    C     C_R   0.939585 0.564508 0.556523 -0.205221
C9    C     C_R   0.930532 0.433078 0.445945 -0.126482
C10   C     C_R   0.069501 0.565005 0.556155 -0.151655
C11   C     C_R   0.871857 0.500154 0.500921 0.037970
C12   C     C_R   0.128123 0.498934 0.500763 0.022685
C13   C     C_R   0.597964 0.074150 0.531558 -0.062826
C14   C     C_R   0.400380 0.926311 0.469942 -0.069876
C15   C     C_R   0.401239 0.069616 0.469219 -0.049806
C16   C     C_R   0.599222 0.930811 0.530295 -0.044416
C17   C     C_R   0.522335 0.616049 0.249488 0.364183
C18   C     C_R   0.362243 0.426853 0.731077 0.331085
C19   C     C_R   0.530800 0.592228 0.756405 0.360757
C20   C     C_R   0.491707 0.372780 0.248208 0.388880
C21   C     C_R   0.501229 0.614203 0.175372 0.355367
C22   C     C_R   0.321806 0.442726 0.800503 0.385178
C23   C     C_R   0.489185 0.609379 0.825345 0.369732
C24   C     C_R   0.453584 0.374496 0.176493 0.385489
C25   C     C_R   0.452080 0.497210 0.140502 -0.291263
C26   C     C_R   0.388749 0.529488 0.848098 -0.295562
C27   C     C_R   0.509030 0.495494 0.286589 -0.410367
C28   C     C_R   0.465240 0.504086 0.708865 -0.402025
H1    H     H_    0.107471 0.384404 0.402545 0.135178
H2    H     H_    0.891990 0.612207 0.599976 0.149671
H3    H     H_    0.876074 0.383075 0.403274 0.123312
H4    H     H_    0.124114 0.614771 0.598864 0.145962
N1    N     N_R   0.500000 0.857200 0.500000 -0.151440
N2    N     N_R   0.500000 0.142800 0.500000 -0.159213
N3    N     N_R   0.414593 0.390440 0.023218 -0.147877
N4    N     N_R   0.361617 0.628535 0.965457 -0.157905
N5    N     N_R   0.395699 0.397953 0.953665 -0.153072
N6    N     N_R   0.379426 0.620475 0.035178 -0.109587
O1    O     O_R   0.316770 0.614620 0.500000 -0.624376
O2    O     O_R   0.683230 0.385380 0.500000 -0.622788
O3    O     O_R   0.683230 0.614620 0.500000 -0.607407
O4    O     O_R   0.316770 0.385380 0.500000 -0.595129
O5    O     O_R   0.499990 0.614700 0.398140 -0.541642
O6    O     O_R   0.500010 0.385300 0.601860 -0.580498
O7    O     O_R   0.500010 0.614700 0.601860 -0.572975
O8    O     O_R   0.499990 0.385300 0.398140 -0.569917
Zn1   Zn    Zn3+2 0.500000 0.653120 0.500000 1.029369
Zn2   Zn    Zn3+2 0.500000 0.346880 0.500000 1.014580
O9    O     O_3   0.571921 0.728973 0.285521 -0.597955
C29   C     C_3   0.497748 0.844089 0.273096 -0.030595
H5    H     H_    0.499089 0.906436 0.322384 0.169281
H6    H     H_    0.396852 0.821082 0.257994 0.174084
H7    H     H_    0.540929 0.905663 0.232054 0.162918
O10   O     O_3   0.293712 0.345848 0.682883 -0.585475
C30   C     C_3   0.328092 0.210899 0.693280 -0.140541
H8    H     H_    0.432525 0.197103 0.693355 0.173437
H9    H     H_    0.286261 0.148926 0.648791 0.190978
H10   H     H_    0.290032 0.172557 0.743093 0.178568
O11   O     O_3   0.635585 0.663177 0.735815 -0.531928
C31   C     C_3   0.743376 0.582321 0.746001 -0.206560
H11   H     H_    0.828247 0.641350 0.732544 0.181067
H12   H     H_    0.738645 0.492007 0.710406 0.123176
H13   H     H_    0.756350 0.552263 0.802231 0.160534
O12   O     O_3   0.502808 0.250170 0.280783 -0.516602
C32   C     C_3   0.632817 0.221068 0.291046 -0.251677
H14   H     H_    0.641642 0.120175 0.314367 0.187335
H15   H     H_    0.681384 0.293792 0.328435 0.158478
H16   H     H_    0.682591 0.219262 0.240200 0.114050
O13   O     O_3   0.526105 0.728068 0.137411 -0.593245
C33   C     C_3   0.652240 0.722490 0.115900 -0.270103
H17   H     H_    0.672288 0.813619 0.085311 0.187257
H18   H     H_    0.667447 0.633729 0.080605 0.166611
H19   H     H_    0.720198 0.721864 0.162318 0.175098
O14   O     O_3   0.220373 0.368211 0.822787 -0.577474
C34   C     C_3   0.109336 0.443292 0.811117 -0.261784
H20   H     H_    0.092374 0.463825 0.753848 0.175511
H21   H     H_    0.112730 0.538997 0.842595 0.146899
H22   H     H_    0.027520 0.383825 0.828673 0.186137
O15   O     O_3   0.557666 0.690918 0.873199 -0.580767
C35   C     C_3   0.519025 0.824741 0.863761 -0.202706
H23   H     H_    0.567906 0.888995 0.905046 0.179210
H24   H     H_    0.415302 0.835849 0.870105 0.146560
H25   H     H_    0.545894 0.862311 0.811321 0.193774
O16   O     O_3   0.405165 0.258447 0.143694 -0.554254
C36   C     C_3   0.505095 0.175914 0.121814 -0.185192
H26   H     H_    0.590096 0.233255 0.105755 0.111921
H27   H     H_    0.470929 0.115106 0.075029 0.192086
H28   H     H_    0.531513 0.104614 0.163912 0.177717
C37   C     C_2   0.700364 0.148664 0.570653 0.981262
O17   O     O_2   0.804482 0.158924 0.545092 -0.565314
O18   O     O_R   0.679597 0.201855 0.638085 -0.824102
H29   H     H_    0.757208 0.249355 0.659862 0.325159
C38   C     C_2   0.289977 0.852862 0.438071 0.957902
O19   O     O_2   0.300439 0.785215 0.384091 -0.643746
O20   O     O_R   0.172839 0.862396 0.469694 -0.759450
H30   H     H_    0.104228 0.807735 0.443271 0.353955
C39   C     C_2   0.295330 0.138567 0.433210 0.962039
O21   O     O_2   0.193192 0.145765 0.461256 -0.577768
O22   O     O_R   0.309835 0.187680 0.365411 -0.745671
H31   H     H_    0.228801 0.225545 0.344021 0.326715
C40   C     C_2   0.708873 0.862947 0.563073 0.948588
O23   O     O_2   0.696453 0.797625 0.616264 -0.581903
O24   O     O_R   0.828269 0.880115 0.535003 -0.757826
H32   H     H_    0.898603 0.840720 0.565676 0.345602

loop_
_geom_bond_atom_site_label_1
_geom_bond_atom_site_label_2
_ccdc_geom_bond_type
C30   H8    S    
C38   O19   D    
C7    H1    S    
C6    O7    A    
O20   H30   S    
C14   N1    A    
C4    C25   S    
C36   H26   S    
C40   O23   D    
C31   H13   S    
N3    N5    A    
C18   O10   S    
C2    O3    A    
C31   H12   S    
C23   C26   A    
O2    Zn2   S    
C5    C27   S    
C6    C28   S    
C20   C24   A    
C32   H15   S    
C29   H6    S    
C33   H17   S    
C37   O18   S    
C15   N2    A    
O7    Zn1   S    
C5    O5    A    
C4    N3    A    
O11   C31   S    
C40   O24   S    
C6    O6    A    
C1    C12   S    
C15   C39   S    
C35   H25   S    
C2    C11   S    
C39   O22   S    
C39   O21   D    
C36   H27   S    
C7    C12   A    
O8    Zn2   S    
C29   H7    S    
O14   C34   S    
C17   C27   A    
C18   C28   A    
C24   C25   A    
C35   H24   S    
C17   O9    S    
O18   H29   S    
C1    O1    A    
C19   O11   S    
C17   C21   A    
C21   O13   S    
C31   H11   S    
C20   O12   S    
C19   C23   A    
C34   H20   S    
C2    O2    A    
C16   N1    A    
C9    C11   A    
C1    O4    A    
O22   H31   S    
C32   H16   S    
C33   H19   S    
C29   H5    S    
O3    Zn1   S    
O4    Zn2   S    
O16   C36   S    
C19   C28   A    
C34   H21   S    
C10   C12   A    
C8    C10   A    
C4    N6    A    
O9    C29   S    
C30   H9    S    
N1    Zn1   S    
C30   H10   S    
N2    Zn2   S    
C22   O14   S    
O1    Zn1   S    
C36   H28   S    
C7    C9    A    
C21   C25   A    
O10   C30   S    
C14   C38   S    
C13   C37   S    
C18   C22   A    
C3    C26   S    
C35   H23   S    
C20   C27   A    
C5    O8    A    
C8    H2    S    
O12   C32   S    
N4    N6    A    
C24   O16   S    
C13   N2    A    
C3    N4    A    
C8    C11   A    
O13   C33   S    
C34   H22   S    
C9    H3    S    
O15   C35   S    
C10   H4    S    
C16   C40   S    
C3    N5    A    
C38   O20   S    
C32   H14   S    
C22   C26   A    
C13   C16   A    
O24   H32   S    
C14   C15   A    
C33   H18   S    
C23   O15   S    
C37   O17   D    
O5    Zn1   S    
O6    Zn2   S    
