data_mof_unit_30202.cif
_audit_creation_date              2012-12-10T17:52:20-0500
_audit_creation_method            fapswitch 2.2
_symmetry_space_group_name_H-M    P1
_symmetry_Int_Tables_number       1
_space_group_crystal_system       triclinic
_cell_length_a                    19.149552
_cell_length_b                    10.663747
_cell_length_c                    9.880516
_cell_angle_alpha                 91.324728
_cell_angle_beta                  89.868372
_cell_angle_gamma                 92.136679
_cell_volume                      2015.71663638

loop_
_atom_site_label
_atom_site_type_symbol
_atom_type_description
_atom_site_fract_x
_atom_site_fract_y
_atom_site_fract_z
_atom_type_partial_charge
C1    C     C_R   0.509386 0.261684 0.498085 0.903625
C2    C     C_R   0.289060 0.495042 0.501462 -0.178149
C3    C     C_R   0.928695 0.438263 0.493169 0.315064
C4    C     C_R   0.069144 0.441726 0.492351 0.338768
C5    C     C_R   0.818415 0.473260 0.622692 0.301238
C6    C     C_R   0.746898 0.490746 0.621520 -0.235041
C7    C     C_R   0.709892 0.485190 0.499281 -0.082549
C8    C     C_R   0.744809 0.461338 0.377275 -0.167631
C9    C     C_R   0.816015 0.443110 0.377522 -0.181603
C10   C     C_R   0.853282 0.448522 0.499467 0.010660
C11   C     C_R   0.591052 0.143167 0.713694 -0.142938
C12   C     C_R   0.365353 0.501838 0.500594 0.936217
C13   C     C_R   0.619613 0.082793 0.822925 -0.082826
C14   C     C_R   0.617997 0.952621 0.825440 -0.112041
C15   C     C_R   0.587390 0.882407 0.719180 -0.152079
C16   C     C_R   0.554391 0.941460 0.611016 0.110921
C17   C     C_R   0.556770 0.073765 0.607458 0.063496
C18   C     C_R   0.528835 0.131700 0.492544 -0.201077
C19   C     C_R   0.517553 0.060402 0.372291 0.284988
C20   C     C_R   0.510019 0.933278 0.380127 -0.214156
C21   C     C_R   0.522273 0.873690 0.501309 -0.186604
C22   C     C_R   0.404820 0.341033 0.136948 -0.174788
C23   C     C_R   0.506666 0.740299 0.501369 0.915895
C24   C     C_R   0.357812 0.262334 0.065059 0.302362
C25   C     C_R   0.357882 0.262174 0.924928 -0.174505
C26   C     C_R   0.405015 0.340049 0.856201 -0.170391
C27   C     C_R   0.452746 0.422037 0.925879 0.188212
C28   C     C_R   0.452665 0.422357 0.070630 0.154080
C29   C     C_R   0.545771 0.573348 0.073387 -0.082658
C30   C     C_R   0.545960 0.572820 0.930166 -0.093665
C31   C     C_R   0.634533 0.498322 0.499787 0.849246
C32   C     C_R   0.249688 0.535304 0.614916 0.226456
C33   C     C_R   0.176867 0.515269 0.614154 0.264364
C34   C     C_R   0.144357 0.457608 0.499845 -0.057984
C35   C     C_R   0.183309 0.423689 0.386454 -0.140178
C36   C     C_R   0.255049 0.441914 0.387362 -0.178087
H1    H     H_    0.645567 0.137180 0.903247 0.161469
H2    H     H_    0.593924 0.782742 0.719754 0.148251
H3    H     H_    0.404467 0.331614 0.243895 0.222298
H4    H     H_    0.322022 0.199947 0.868579 0.194695
H5    H     H_    0.403006 0.331601 0.748839 0.217137
H6    H     H_    0.584059 0.631091 0.878034 0.126299
H7    H     H_    0.158070 0.381817 0.297374 0.195190
H8    H     H_    0.284022 0.412332 0.298905 0.195031
H9    H     H_    0.720471 0.510020 0.716408 0.179433
H10   H     H_    0.717140 0.455690 0.281689 0.176722
H11   H     H_    0.842153 0.424934 0.282043 0.183068
N1    N     N_R   0.034345 0.495161 0.390932 -0.129030
N2    N     N_R   0.965068 0.493430 0.391367 -0.142711
N3    N     N_R   0.963586 0.379695 0.591106 -0.091886
N4    N     N_R   0.032922 0.381669 0.590970 -0.095044
N5    N     N_R   0.499340 0.498800 0.142780 -0.109003
N6    N     N_R   0.499320 0.498720 0.857170 -0.113932
O1    O     O_R   0.500000 0.316780 0.614690 -0.657019
O2    O     O_R   0.499990 0.316750 0.385360 -0.589832
O3    O     O_R   0.398140 0.500000 0.614700 -0.594418
O4    O     O_R   0.398130 0.499970 0.385370 -0.636362
O5    O     O_R   0.500010 0.683250 0.614640 -0.603232
O6    O     O_R   0.500000 0.683220 0.385310 -0.617769
O7    O     O_R   0.601870 0.500030 0.614630 -0.648359
O8    O     O_R   0.601860 0.500000 0.385300 -0.619403
Zn1   Zn    Zn3+2 0.500000 0.500020 0.653130 0.960026
Zn2   Zn    Zn3+2 0.500000 0.499980 0.346870 0.975977
Br1   Br    Br    0.292675 0.625739 0.767057 -0.380190
H12   H     H_    0.600030 0.243602 0.710776 0.168429
H13   H     H_    0.642789 0.905775 0.907605 0.145778
H14   H     H_    0.494136 0.881167 0.289149 0.213452
H15   H     H_    0.583149 0.633183 0.128756 0.143020
Br2   Br    Br    0.295466 0.150271 0.158953 -0.447684
Br3   Br    Br    0.121691 0.574660 0.765038 -0.329461
Br4   Br    Br    0.865084 0.494504 0.794261 -0.441330
Br5   Br    Br    0.516304 0.122971 0.191059 -0.516250

loop_
_geom_bond_atom_site_label_1
_geom_bond_atom_site_label_2
_ccdc_geom_bond_type
C31   O7    A    
O5    Zn1   S    
C23   O5    A    
C1    O1    A    
C27   N6    A    
C15   H2    S    
O4    Zn2   S    
C29   C30   A    
C6    H9    S    
C29   H15   S    
C35   H7    S    
C9    C10   A    
C31   O8    A    
C20   H14   S    
C13   H1    S    
C19   C20   A    
C2    C12   S    
C32   C33   A    
C17   C18   A    
C1    O2    A    
C5    C10   A    
C5    Br4   S    
C3    C10   S    
C22   C28   A    
C13   C14   A    
C24   C25   A    
C23   O6    A    
C28   N5    A    
C1    C18   S    
C16   C21   A    
C33   Br3   S    
C30   H6    S    
C22   H3    S    
O7    Zn1   S    
N1    N2    A    
C12   O3    A    
C3    N3    A    
C33   C34   A    
C24   Br2   S    
C9    H11   S    
C6    C7    A    
O3    Zn1   S    
C21   C23   S    
C25   H4    S    
C26   C27   A    
C5    C6    A    
C30   N6    A    
C22   C24   A    
C36   H8    S    
C7    C31   S    
C12   O4    A    
C4    N4    A    
C2    C36   A    
C15   C16   A    
C3    N2    A    
C16   C17   A    
C11   C13   A    
C19   Br5   S    
C20   C21   A    
C32   Br1   S    
C2    C32   A    
C34   C35   A    
N6    Zn1   S    
C4    N1    A    
C27   C28   A    
O8    Zn2   S    
C7    C8    A    
C14   C15   A    
C18   C19   A    
C35   C36   A    
O1    Zn1   S    
C8    H10   S    
N3    N4    A    
C25   C26   A    
O6    Zn2   S    
C14   H13   S    
N5    Zn2   S    
C11   C17   A    
C11   H12   S    
C26   H5    S    
O2    Zn2   S    
C8    C9    A    
C29   N5    A    
C4    C34   S    
