data_mof_unit_50099.cif
_audit_creation_date              2012-12-11T16:26:22-0500
_audit_creation_method            fapswitch 2.2
_symmetry_space_group_name_H-M    P1
_symmetry_Int_Tables_number       1
_space_group_crystal_system       triclinic
_cell_length_a                    13.992635
_cell_length_b                    13.992648
_cell_length_c                    31.942653
_cell_angle_alpha                 90.0004
_cell_angle_beta                  90.000227
_cell_angle_gamma                 119.940449
_cell_volume                      5419.52628379

loop_
_atom_site_label
_atom_site_type_symbol
_atom_type_description
_atom_site_fract_x
_atom_site_fract_y
_atom_site_fract_z
_atom_type_partial_charge
C1    C     C_R   0.568129 0.443959 0.810792 0.550982
C2    C     C_R   0.876080 0.432118 0.689354 0.557105
C3    C     C_R   0.556103 0.123672 0.810563 0.566911
C4    C     C_R   0.568122 0.443959 0.689210 0.550893
C5    C     C_R   0.876082 0.432118 0.810646 0.557154
C6    C     C_R   0.556103 0.123669 0.689438 0.566926
C7    C     C_R   0.443959 0.568133 0.310793 0.551076
C8    C     C_R   0.432118 0.876081 0.189354 0.557216
C9    C     C_R   0.123673 0.556104 0.310563 0.566900
C10   C     C_R   0.443958 0.568130 0.189207 0.551039
C11   C     C_R   0.432120 0.876085 0.310646 0.557388
C12   C     C_R   0.123671 0.556103 0.189437 0.566910
C13   C     C_1   0.997736 0.523316 0.019298 0.069731
C14   C     C_1   0.518565 0.989233 0.481934 0.071333
C15   C     C_1   0.458338 0.462212 0.018742 0.063852
C16   C     C_1   0.997791 0.523328 0.480708 0.069739
C17   C     C_1   0.518655 0.989331 0.018076 0.071281
C18   C     C_1   0.458346 0.462263 0.481264 0.063873
C19   C     C_1   0.523234 0.997640 0.519308 0.069729
C20   C     C_1   0.989334 0.518652 0.981923 0.071282
C21   C     C_1   0.462200 0.458408 0.518753 0.063839
C22   C     C_1   0.523320 0.997735 0.980702 0.069729
C23   C     C_1   0.989385 0.518663 0.518082 0.071273
C24   C     C_1   0.462196 0.458355 0.981253 0.063847
C25   C     C_R   0.929106 0.470039 0.852012 -0.010646
C26   C     C_R   0.541231 0.069565 0.648322 -0.003639
C27   C     C_R   0.529753 0.460354 0.852020 -0.006643
C28   C     C_R   0.929104 0.470041 0.647989 -0.010696
C29   C     C_R   0.541234 0.069577 0.851681 -0.003633
C30   C     C_R   0.529723 0.460352 0.647986 -0.006794
C31   C     C_R   0.470032 0.929100 0.352015 -0.010363
C32   C     C_R   0.069577 0.541234 0.148318 -0.003627
C33   C     C_R   0.460357 0.529779 0.352026 -0.006493
C34   C     C_R   0.470037 0.929103 0.147987 -0.010625
C35   C     C_R   0.069591 0.541239 0.351684 -0.003614
C36   C     C_R   0.460351 0.529762 0.147977 -0.006594
C37   C     C_R   0.919530 0.553822 0.872680 -0.166956
C38   C     C_R   0.635772 0.085362 0.626668 -0.183206
C39   C     C_R   0.428679 0.376858 0.868311 -0.193067
C40   C     C_R   0.919492 0.553796 0.627316 -0.166980
C41   C     C_R   0.635768 0.085298 0.873321 -0.183188
C42   C     C_R   0.428700 0.376802 0.631681 -0.193012
C43   C     C_R   0.553766 0.919460 0.372691 -0.167029
C44   C     C_R   0.085305 0.635768 0.126679 -0.183176
C45   C     C_R   0.376883 0.428692 0.368316 -0.193092
C46   C     C_R   0.553824 0.919533 0.127321 -0.166946
C47   C     C_R   0.085332 0.635776 0.373326 -0.183191
C48   C     C_R   0.376864 0.428681 0.131687 -0.193060
C49   C     C_R   0.943592 0.574210 0.915479 0.250865
C50   C     C_R   0.630368 0.057869 0.584209 0.241988
C51   C     C_R   0.401651 0.377091 0.910767 0.235670
C52   C     C_R   0.943571 0.574187 0.584518 0.250833
C53   C     C_R   0.630391 0.057835 0.915782 0.241981
C54   C     C_R   0.401682 0.377048 0.589224 0.235716
C55   C     C_R   0.574132 0.943494 0.415492 0.250852
C56   C     C_R   0.057841 0.630390 0.084217 0.241979
C57   C     C_R   0.377112 0.401679 0.410775 0.235600
C58   C     C_R   0.574214 0.943595 0.084522 0.250872
C59   C     C_R   0.057887 0.630401 0.415789 0.241973
C60   C     C_R   0.377090 0.401657 0.089229 0.235669
C61   C     C_R   0.978593 0.510583 0.937386 0.028286
C62   C     C_R   0.528572 0.011414 0.563737 0.027668
C63   C     C_R   0.477076 0.461940 0.936758 0.029610
C64   C     C_R   0.978628 0.510594 0.562618 0.028270
C65   C     C_R   0.528625 0.011484 0.936272 0.027675
C66   C     C_R   0.477059 0.461974 0.563250 0.029551
C67   C     C_R   0.510515 0.978511 0.437396 0.028404
C68   C     C_R   0.011485 0.528623 0.063728 0.027674
C69   C     C_R   0.461934 0.477133 0.436768 0.029674
C70   C     C_R   0.510583 0.978588 0.062613 0.028292
C71   C     C_R   0.011533 0.528635 0.436278 0.027683
C72   C     C_R   0.461926 0.477092 0.063238 0.029624
C73   C     C_R   0.996817 0.433402 0.916542 -0.148318
C74   C     C_R   0.432579 0.986693 0.585665 -0.153909
C75   C     C_R   0.573179 0.549488 0.920127 -0.144629
C76   C     C_R   0.996882 0.433440 0.583469 -0.148286
C77   C     C_R   0.432630 0.986830 0.914359 -0.153906
C78   C     C_R   0.573096 0.549577 0.579897 -0.144526
C79   C     C_R   0.433382 0.996797 0.416546 -0.148563
C80   C     C_R   0.986825 0.432627 0.085641 -0.153894
C81   C     C_R   0.549460 0.573254 0.420139 -0.144709
C82   C     C_R   0.433396 0.996805 0.083456 -0.148330
C83   C     C_R   0.986861 0.432636 0.414363 -0.153882
C84   C     C_R   0.549466 0.573203 0.079867 -0.144652
C85   C     C_R   0.974823 0.414133 0.873664 0.255720
C86   C     C_R   0.437965 0.017399 0.627865 0.264156
C87   C     C_R   0.599199 0.551115 0.877796 0.259104
C88   C     C_R   0.974858 0.414163 0.626344 0.255668
C89   C     C_R   0.437993 0.017509 0.872157 0.264168
C90   C     C_R   0.599107 0.551173 0.622226 0.259019
C91   C     C_R   0.414170 0.974884 0.373655 0.255835
C92   C     C_R   0.017504 0.437991 0.127843 0.264173
C93   C     C_R   0.551102 0.599256 0.377803 0.259131
C94   C     C_R   0.414129 0.974815 0.126334 0.255711
C95   C     C_R   0.017523 0.437997 0.372159 0.264179
C96   C     C_R   0.551102 0.599220 0.122200 0.259111
Cr1   Cr    Cr6+3 0.504240 0.249200 0.750000 1.030737
Cr2   Cr    Cr6+3 0.744960 0.495760 0.750000 1.044889
Cr3   Cr    Cr6+3 0.750800 0.255040 0.750000 1.047211
Cr4   Cr    Cr6+3 0.249200 0.504240 0.250000 1.030773
Cr5   Cr    Cr6+3 0.495760 0.744960 0.250000 1.045071
Cr6   Cr    Cr6+3 0.255040 0.750800 0.250000 1.047376
H1    H     H_    0.886821 0.599021 0.856275 0.169548
H2    H     H_    0.715487 0.125393 0.641983 0.154945
H3    H     H_    0.373166 0.308586 0.848564 0.108719
H4    H     H_    0.886743 0.598968 0.643714 0.169490
H5    H     H_    0.715464 0.125249 0.857991 0.154924
H6    H     H_    0.373227 0.308477 0.651415 0.108781
H7    H     H_    0.598943 0.886722 0.356291 0.169617
H8    H     H_    0.125261 0.715466 0.142008 0.154930
H9    H     H_    0.308631 0.373158 0.348566 0.108665
H10   H     H_    0.599027 0.886830 0.143727 0.169563
H11   H     H_    0.125285 0.715473 0.357997 0.154865
H12   H     H_    0.308602 0.373160 0.151436 0.108711
H13   H     H_    0.947101 0.354131 0.069451 0.129396
H14   H     H_    0.384686 0.023966 0.433921 0.137652
H15   H     H_    0.615034 0.630934 0.059537 0.138834
H16   H     H_    0.947139 0.354141 0.430552 0.129399
H17   H     H_    0.384712 0.024010 0.066092 0.138066
H18   H     H_    0.615004 0.631004 0.440474 0.138740
H19   H     H_    0.354065 0.946898 0.569488 0.129382
H20   H     H_    0.024030 0.384722 0.933904 0.138081
H21   H     H_    0.630770 0.615242 0.559588 0.139037
H22   H     H_    0.354135 0.947110 0.930549 0.129383
H23   H     H_    0.024150 0.384793 0.566116 0.138166
H24   H     H_    0.630901 0.615070 0.940455 0.138871
O1    O     O_R   0.480350 0.140770 0.796330 -0.457909
O2    O     O_R   0.660420 0.519650 0.703670 -0.459909
O3    O     O_R   0.859230 0.339580 0.796330 -0.456418
O4    O     O_R   0.480350 0.140770 0.703670 -0.457963
O5    O     O_R   0.660420 0.519650 0.796330 -0.459790
O6    O     O_R   0.859230 0.339580 0.703670 -0.456468
O7    O     O_R   0.140770 0.480350 0.296330 -0.457929
O8    O     O_R   0.519650 0.660420 0.203670 -0.459720
O9    O     O_R   0.339580 0.859230 0.296330 -0.456218
O10   O     O_R   0.140770 0.480350 0.203670 -0.457923
O11   O     O_R   0.519650 0.660420 0.296330 -0.459645
O12   O     O_R   0.339580 0.859230 0.203670 -0.456354
O13   O     O_R   0.514930 0.348530 0.793250 -0.519217
O14   O     O_R   0.833600 0.485070 0.706750 -0.509953
O15   O     O_R   0.651470 0.166400 0.793250 -0.516203
O16   O     O_R   0.514930 0.348530 0.706750 -0.519201
O17   O     O_R   0.833600 0.485070 0.793250 -0.509945
O18   O     O_R   0.651470 0.166400 0.706750 -0.516203
O19   O     O_R   0.348530 0.514930 0.293250 -0.519247
O20   O     O_R   0.485070 0.833600 0.206750 -0.509958
O21   O     O_R   0.166400 0.651470 0.293250 -0.516232
O22   O     O_R   0.348530 0.514930 0.206750 -0.519224
O23   O     O_R   0.485070 0.833600 0.293250 -0.510023
O24   O     O_R   0.166400 0.651470 0.206750 -0.516206
O25   O     O_3   0.666667 0.333333 0.750000 -0.256092
O26   O     O_3   0.333333 0.666667 0.250000 -0.256194
O27   O     O_3   0.079498 0.723641 0.061847 -0.665981
H25   H     H_    0.113328 0.788416 0.080797 0.334333
O28   O     O_3   0.651524 0.928402 0.436823 -0.663026
H26   H     H_    0.688053 0.902411 0.416910 0.340911
O29   O     O_3   0.293716 0.305043 0.072281 -0.679015
H27   H     H_    0.242282 0.260336 0.094929 0.307003
O30   O     O_3   0.079556 0.723654 0.438161 -0.666039
H28   H     H_    0.113382 0.788429 0.419210 0.334242
O31   O     O_3   0.651654 0.928564 0.063199 -0.663001
H29   H     H_    0.688188 0.902582 0.083113 0.340914
O32   O     O_3   0.293753 0.305057 0.427723 -0.679203
H30   H     H_    0.242327 0.260338 0.405074 0.306871
O33   O     O_3   0.723619 0.079593 0.561824 -0.665935
H31   H     H_    0.788416 0.113498 0.580762 0.334369
O34   O     O_3   0.928554 0.651644 0.936804 -0.663000
H32   H     H_    0.902569 0.688176 0.916891 0.340921
O35   O     O_3   0.305132 0.293615 0.572260 -0.678914
H33   H     H_    0.260448 0.242127 0.594898 0.307066
O36   O     O_3   0.723641 0.079486 0.938152 -0.665971
H34   H     H_    0.788415 0.113308 0.919200 0.334335
O37   O     O_3   0.928500 0.651591 0.563187 -0.662999
H35   H     H_    0.902473 0.688097 0.583095 0.340955
O38   O     O_3   0.305043 0.293711 0.927716 -0.679012
H36   H     H_    0.260339 0.242271 0.905069 0.307005
O39   O     O_3   0.993623 0.343163 0.149873 -0.536651
C97   C     C_3   0.045003 0.289527 0.130686 -0.092966
H37   H     H_    0.130730 0.348553 0.120333 0.123089
H38   H     H_    0.994959 0.238181 0.103960 0.132554
H39   H     H_    0.050232 0.233383 0.153914 0.137548
O40   O     O_3   0.332049 0.986282 0.354238 -0.547013
C98   C     C_3   0.370144 0.099486 0.348073 -0.112476
H40   H     H_    0.448409 0.139703 0.329810 0.115394
H41   H     H_    0.380860 0.142960 0.378360 0.131010
H42   H     H_    0.307432 0.107939 0.329738 0.137560
O41   O     O_3   0.634699 0.699420 0.136663 -0.557588
C99   C     C_3   0.728982 0.689917 0.143934 -0.109044
H43   H     H_    0.761645 0.675569 0.114277 0.126718
H44   H     H_    0.711639 0.623360 0.166946 0.117899
H45   H     H_    0.794375 0.768626 0.157442 0.144407
O42   O     O_3   0.993631 0.343166 0.350128 -0.536637
C100  C     C_3   0.045024 0.289535 0.369308 -0.092972
H46   H     H_    0.995003 0.238201 0.396040 0.132528
H47   H     H_    0.130761 0.348564 0.379652 0.123102
H48   H     H_    0.050230 0.233380 0.346080 0.137526
O43   O     O_3   0.331931 0.986143 0.145708 -0.547021
C101  C     C_3   0.370564 0.099274 0.152353 -0.112129
H49   H     H_    0.382890 0.143908 0.122238 0.130502
H50   H     H_    0.448067 0.138305 0.171083 0.115513
H51   H     H_    0.307449 0.107679 0.170423 0.137623
O44   O     O_3   0.634677 0.699464 0.363333 -0.557639
C102  C     C_3   0.729117 0.690138 0.356209 -0.109162
H52   H     H_    0.711984 0.623406 0.333309 0.117873
H53   H     H_    0.761787 0.676179 0.385941 0.126806
H54   H     H_    0.794426 0.768785 0.342631 0.144401
O45   O     O_3   0.343142 0.993453 0.649911 -0.536694
C103  C     C_3   0.289401 0.044734 0.630730 -0.092972
H55   H     H_    0.238051 0.994643 0.604014 0.132545
H56   H     H_    0.348356 0.130471 0.620367 0.123001
H57   H     H_    0.233247 0.049916 0.653966 0.137595
O46   O     O_3   0.986154 0.331936 0.854290 -0.547015
C104  C     C_3   0.099282 0.370597 0.847628 -0.112211
H58   H     H_    0.143952 0.382957 0.877737 0.130530
H59   H     H_    0.138272 0.448083 0.828889 0.115377
H60   H     H_    0.107693 0.307485 0.829559 0.137557
O47   O     O_3   0.699224 0.634879 0.636698 -0.557524
C105  C     C_3   0.689208 0.728742 0.644286 -0.108847
H61   H     H_    0.622924 0.710840 0.667499 0.117833
H62   H     H_    0.674107 0.761421 0.614782 0.126554
H63   H     H_    0.767966 0.794332 0.657688 0.144426
O48   O     O_3   0.343166 0.993634 0.850127 -0.536672
C106  C     C_3   0.289511 0.044984 0.869321 -0.092988
H64   H     H_    0.348524 0.130698 0.879693 0.123100
H65   H     H_    0.238143 0.994900 0.896035 0.132567
H66   H     H_    0.233384 0.050241 0.846093 0.137531
O49   O     O_3   0.986224 0.331991 0.645717 -0.547008
C107  C     C_3   0.099341 0.370847 0.652506 -0.112099
H67   H     H_    0.137992 0.448155 0.671352 0.115393
H68   H     H_    0.144311 0.383611 0.622445 0.130363
H69   H     H_    0.107780 0.307675 0.670520 0.137598
O50   O     O_3   0.699387 0.634729 0.863333 -0.557566
C108  C     C_3   0.689796 0.728938 0.856002 -0.109043
H70   H     H_    0.675303 0.761605 0.885630 0.126697
H71   H     H_    0.623295 0.711496 0.832950 0.117814
H72   H     H_    0.768518 0.794366 0.842517 0.144383

loop_
_geom_bond_atom_site_label_1
_geom_bond_atom_site_label_2
_ccdc_geom_bond_type
C68   C80   A    
C44   H8    S    
C39   C51   A    
O36   H34   S    
O29   H27   S    
C82   C94   A    
C46   H10   S    
Cr2   O17   S    
C18   C21   T    
C33   C45   A    
O35   H33   S    
O32   H30   S    
C3    O15   A    
C6    O4    A    
C35   C47   A    
C29   C89   A    
C97   H37   S    
C106  H66   S    
C32   C92   A    
O37   H35   S    
C78   C90   A    
C55   O28   S    
C15   C72   S    
C102  H53   S    
C81   H18   S    
C45   C57   A    
O33   H31   S    
C31   C43   A    
Cr3   O6    S    
C99   H45   S    
C83   H16   S    
C8    O12   A    
Cr1   O4    S    
C49   O34   S    
C98   H41   S    
O30   H28   S    
C4    O16   A    
C21   C66   S    
C3    O1    A    
C97   H38   S    
C5    O17   A    
C88   O49   S    
C60   C72   A    
C19   C62   S    
C87   O50   S    
Cr6   O12   S    
C81   C93   A    
C99   H44   S    
C84   C96   A    
Cr5   O23   S    
C20   C61   S    
C3    C29   S    
C36   C96   A    
Cr6   O9    S    
C90   O47   S    
C38   H2    S    
C25   C37   A    
O40   C98   S    
C53   O36   S    
C59   O30   S    
C11   O23   A    
C106  H64   S    
C27   C39   A    
C103  H55   S    
C100  H47   S    
C96   O41   S    
Cr2   O5    S    
C28   C88   A    
C2    O6    A    
C14   C67   S    
C62   C74   A    
C48   C60   A    
C101  H49   S    
C34   C46   A    
C77   H22   S    
C53   C65   A    
C108  H70   S    
C76   C88   A    
C79   C91   A    
C1    O13   A    
Cr1   O1    S    
C18   C69   S    
Cr2   O2    S    
C11   C31   S    
C17   C70   S    
C79   H14   S    
C46   C58   A    
C76   H23   S    
C7    C33   S    
C54   O35   S    
O48   C106  S    
C16   C71   S    
C82   H17   S    
C101  H51   S    
C107  H68   S    
C107  H67   S    
O31   H29   S    
C40   H4    S    
C71   C83   A    
Cr2   O25   S    
C104  H59   S    
C64   C76   A    
C66   C78   A    
C102  H54   S    
C8    O20   A    
Cr5   O20   S    
C65   C77   A    
O44   C102  S    
Cr3   O3    S    
C73   H20   S    
O45   C103  S    
Cr5   O8    S    
C12   O24   A    
Cr3   O18   S    
C67   C79   A    
C60   O29   S    
C52   C64   A    
C98   H42   S    
C89   O48   S    
C7    O11   A    
C4    O2    A    
C2    C28   S    
C58   C70   A    
C9    C35   S    
C61   C73   A    
O47   C105  S    
C56   C68   A    
Cr3   O25   S    
C9    O21   A    
Cr4   O26   S    
Cr2   O14   S    
C99   H43   S    
C80   C92   A    
C27   C87   A    
C98   H40   S    
C22   C65   S    
C78   H21   S    
C11   O9    A    
Cr6   O21   S    
C37   C49   A    
C44   C56   A    
C105  H62   S    
O49   C107  S    
C57   O32   S    
C80   H13   S    
C104  H58   S    
Cr4   O19   S    
C26   C86   A    
C100  H48   S    
C77   C89   A    
C74   H19   S    
C50   O33   S    
C25   C85   A    
Cr1   O25   S    
C51   C63   A    
C8    C34   S    
C83   C95   A    
C74   C86   A    
C51   O38   S    
C93   O44   S    
C108  H71   S    
C41   C53   A    
C72   C84   A    
C95   O42   S    
Cr6   O24   S    
C5    C25   S    
C75   C87   A    
C15   C24   T    
O39   C97   S    
C24   C63   S    
C31   C91   A    
C50   C62   A    
C6    O18   A    
C85   O46   S    
C107  H69   S    
O34   H32   S    
Cr4   O7    S    
C105  H63   S    
C48   H12   S    
Cr6   O26   S    
C73   C85   A    
C104  H60   S    
C43   C55   A    
C47   H11   S    
C23   C64   S    
Cr5   O11   S    
C41   H5    S    
C13   C20   T    
C29   C41   A    
C14   C19   T    
Cr3   O15   S    
C26   C38   A    
C34   C94   A    
C56   O27   S    
C1    O5    A    
C33   C93   A    
C86   O45   S    
C39   H3    S    
C55   C67   A    
C106  H65   S    
C54   C66   A    
C35   C95   A    
C16   C23   T    
Cr5   O26   S    
C17   C22   T    
C38   C50   A    
C94   O43   S    
C2    O14   A    
O42   C100  S    
C75   H24   S    
O41   C99   S    
O38   H36   S    
C40   C52   A    
C45   H9    S    
C42   C54   A    
C49   C61   A    
C105  H61   S    
C6    C26   S    
C63   C75   A    
Cr4   O22   S    
C103  H57   S    
C5    O3    A    
O50   C108  S    
C10   C36   S    
C36   C48   A    
C37   H1    S    
O43   C101  S    
C70   C82   A    
C108  H72   S    
C4    C30   S    
Cr1   O16   S    
C97   H39   S    
C69   C81   A    
C92   O39   S    
C84   H15   S    
C47   C59   A    
C10   O8    A    
O46   C104  S    
C32   C44   A    
C103  H56   S    
C100  H46   S    
C12   O10   A    
C91   O40   S    
C59   C71   A    
O28   H26   S    
C1    C27   S    
C28   C40   A    
C30   C42   A    
C101  H50   S    
C43   H7    S    
C102  H52   S    
C57   C69   A    
O27   H25   S    
C58   O31   S    
C42   H6    S    
C52   O37   S    
Cr1   O13   S    
C30   C90   A    
C12   C32   S    
Cr4   O10   S    
C10   O22   A    
C7    O19   A    
C13   C68   S    
C9    O7    A    
