data_mof_unit_39066.cif
_audit_creation_date              2013-03-05T15:47:46-0500
_audit_creation_method            fapswitch 2.2
_symmetry_space_group_name_H-M    P1
_symmetry_Int_Tables_number       1
_space_group_crystal_system       triclinic
_cell_length_a                    10.854504
_cell_length_b                    13.018186
_cell_length_c                    11.649074
_cell_angle_alpha                 99.740592
_cell_angle_beta                  96.006051
_cell_angle_gamma                 90.361403
_cell_volume                      1612.9638202

loop_
_atom_site_label
_atom_site_type_symbol
_atom_site_description
_atom_site_fract_x
_atom_site_fract_y
_atom_site_fract_z
_atom_type_partial_charge
O1    O     O_R   0.506570 0.354460 0.582000 -0.591389
O2    O     O_R   0.493430 0.645540 0.418000 -0.585654
O3    O     O_R   0.490940 0.341410 0.386200 -0.601919
O4    O     O_R   0.509060 0.658590 0.613800 -0.604547
C1    C     C_R   0.497172 0.299024 0.478635 0.830857
C2    C     C_R   0.501317 0.701014 0.521372 0.828617
O5    O     O_R   0.327470 0.506520 0.597900 -0.567449
O6    O     O_R   0.672530 0.493480 0.402100 -0.574198
O7    O     O_R   0.311840 0.493460 0.402100 -0.593656
O8    O     O_R   0.688160 0.506540 0.597900 -0.590605
C3    C     C_R   0.261861 0.509593 0.498375 0.811517
C4    C     C_R   0.738127 0.490409 0.501681 0.813381
Cu1   Cu    Cu3+1 0.509250 0.507730 0.615930 0.961355
Cu2   Cu    Cu3+1 0.490750 0.492270 0.384070 0.960039
C5    C     C_R   0.141151 0.619362 0.695043 -0.195442
C6    C     C_R   0.858950 0.380227 0.305457 -0.196795
C7    C     C_R   0.097736 0.637753 0.804631 -0.171398
C8    C     C_R   0.902290 0.361952 0.195835 -0.177008
C9    C     C_R   0.987138 0.590279 0.822073 0.408347
C10   C     C_R   0.012587 0.409849 0.178351 0.393480
C11   C     C_R   0.915441 0.532394 0.725042 -0.203409
C12   C     C_R   0.084297 0.467746 0.275335 -0.211970
C13   C     C_R   0.952388 0.522052 0.610259 0.021252
C14   C     C_R   0.047536 0.477847 0.390118 0.022011
C15   C     C_R   0.073969 0.554041 0.599197 0.087706
C16   C     C_R   0.926055 0.445703 0.401220 0.085450
C17   C     C_R   0.874067 0.479044 0.507086 -0.168962
C18   C     C_R   0.125901 0.520850 0.493214 -0.169639
H1    H     H_    0.227557 0.657518 0.685750 0.165178
H2    H     H_    0.772601 0.342019 0.314826 0.168965
H3    H     H_    0.153248 0.685959 0.876651 0.185609
H4    H     H_    0.846823 0.313742 0.123786 0.187667
H5    H     H_    0.835025 0.491273 0.742540 0.206910
H6    H     H_    0.164571 0.509058 0.257827 0.206172
C19   C     C_R   0.501079 0.814306 0.534038 -0.112083
C20   C     C_R   0.492304 0.185825 0.466170 -0.104352
C21   C     C_R   0.462515 0.015696 0.342893 0.174312
C22   C     C_R   0.521968 0.984679 0.657948 0.165907
C23   C     C_R   0.468783 0.124202 0.355168 -0.215944
C24   C     C_R   0.520567 0.876077 0.645345 -0.206023
C25   C     C_R   0.509180 0.139504 0.566128 -0.213514
C26   C     C_R   0.481078 0.860648 0.434264 -0.206428
C27   C     C_R   0.504187 0.031398 0.556743 0.111200
C28   C     C_R   0.482035 0.968842 0.443926 0.106496
H7    H     H_    0.465425 0.811839 0.348811 0.210586
H8    H     H_    0.527284 0.188257 0.651435 0.191103
H9    H     H_    0.535102 0.839862 0.722697 0.164297
H10   H     H_    0.454060 0.160497 0.277880 0.170102
N1    N     N_R   0.523180 0.519350 0.790130 -0.225153
N2    N     N_R   0.476820 0.480650 0.209870 -0.230517
C29   C     C_R   0.407965 0.382999 0.017898 0.294665
C30   C     C_R   0.583341 0.621176 0.981736 0.290691
C31   C     C_R   0.414951 0.397333 0.141254 0.025211
C32   C     C_R   0.581080 0.604621 0.858666 0.020096
C33   C     C_R   0.533685 0.553140 0.159665 0.083610
C34   C     C_R   0.467040 0.446385 0.840233 0.078375
C35   C     C_R   0.527396 0.545470 0.035843 -0.093545
C36   C     C_R   0.466076 0.457585 0.963797 -0.105565
H11   H     H_    0.423242 0.379528 0.782883 0.181838
H12   H     H_    0.586641 0.615336 0.217079 0.190758
H13   H     H_    0.623479 0.662105 0.817243 0.159491
H14   H     H_    0.369580 0.341368 0.182644 0.161668
N3    N     N_R   0.051847 0.399903 0.062818 0.161847
O9    O     O_R   0.995167 0.334746 0.975969 -0.297684
O10   O     O_R   0.141155 0.459138 0.042332 -0.341915
N4    N     N_R   0.947479 0.600921 0.937569 0.166811
O11   O     O_R   0.005739 0.664774 0.024698 -0.309124
O12   O     O_R   0.855326 0.544433 0.957580 -0.355384
N5    N     N_R   0.340543 0.293428 0.950651 0.114784
O13   O     O_R   0.343871 0.205201 0.989301 -0.383998
O14   O     O_R   0.258190 0.304207 0.864212 -0.305600
N6    N     N_R   0.638927 0.716319 0.048505 0.121157
O15   O     O_R   0.733205 0.759328 0.012861 -0.303362
O16   O     O_R   0.581631 0.770400 0.130247 -0.372440
N7    N     N_3   0.436202 0.953208 0.228523 -0.514335
H15   H     H_    0.435512 0.999442 0.163274 0.248051
H16   H     H_    0.346493 0.921765 0.223155 0.227350
N8    N     N_3   0.541942 0.047462 0.772769 -0.567253
H17   H     H_    0.563996 0.000848 0.836495 0.246137
H18   H     H_    0.457955 0.082210 0.790864 0.257203

loop_
_geom_bond_atom_site_label_1
_geom_bond_atom_site_label_2
_geom_bond_distance
_ccdc_geom_bond_type
C24   H9    1.083535 S    
N4    O12   1.301230 A    
N3    O10   1.300980 A    
N7    H15   1.045805 S    
C15   C18   1.413120 A    
O5    C3    1.302378 A    
C16   C17   1.412548 A    
O1    C1    1.288567 A    
C9    C11   1.404073 A    
C14   C16   1.406276 A    
N8    H18   1.045607 S    
C5    C15   1.414927 A    
C11   H5    1.076237 S    
C6    H2    1.082452 S    
N1    C32   1.360501 A    
C1    C20   1.456208 S    
C2    C19   1.457216 S    
C9    N4    1.439980 S    
O4    Cu1   1.968283 S    
N5    O14   1.301423 A    
C19   C26   1.395733 A    
C25   H8    1.083105 S    
C13   C17   1.425895 A    
N4    O11   1.301780 A    
C21   N7    1.438423 S    
Cu1   Cu2   2.660456 S    
C25   C27   1.393291 A    
C20   C25   1.395494 A    
O2    C2    1.289312 A    
C26   C28   1.393753 A    
C30   C32   1.410827 A    
C5    H1    1.082423 S    
C6    C16   1.414903 A    
C12   H6    1.076314 S    
N2    C31   1.360685 A    
C4    C17   1.479738 S    
O4    C2    1.286165 A    
N8    H17   1.045805 S    
C22   N8    1.439192 S    
C29   C31   1.411302 A    
C26   H7    1.082929 S    
O7    Cu2   1.974910 S    
C30   N6    1.438572 S    
O7    C3    1.282676 A    
C31   H14   1.081592 S    
O6    C4    1.302858 A    
C29   C36   1.421399 A    
N7    H16   1.045568 S    
O3    Cu2   1.968286 S    
O8    C4    1.282028 A    
Cu1   N1    1.998828 S    
N6    O16   1.300686 A    
C10   C12   1.403848 A    
C11   C13   1.420849 A    
C27   C28   1.420356 A    
C7    H3    1.082616 S    
C12   C14   1.420274 A    
C8    H4    1.082616 S    
C5    C7    1.390322 A    
O6    Cu2   1.961982 S    
C20   C23   1.399315 A    
C14   C18   1.425477 A    
N6    O15   1.301346 A    
O3    C1    1.286384 A    
O8    Cu1   1.974910 S    
C32   H13   1.081192 S    
N1    C34   1.367107 A    
N2    C33   1.366936 A    
C34   H11   1.077683 S    
C21   C28   1.412269 A    
C33   C35   1.423286 A    
C19   C24   1.400088 A    
C22   C27   1.411927 A    
C21   C23   1.395991 A    
C22   C24   1.396295 A    
C35   C36   1.415966 A    
Cu2   N2    1.998828 S    
C3    C18   1.479923 S    
C10   N3    1.439251 S    
C7    C9    1.395911 A    
C34   C36   1.423162 A    
C8    C10   1.395778 A    
C13   C15   1.406585 A    
N5    O13   1.302031 A    
O2    Cu2   1.966794 S    
C30   C35   1.421301 A    
N3    O9    1.301675 A    
O5    Cu1   1.961981 S    
O1    Cu1   1.966797 S    
C6    C8    1.390299 A    
C29   N5    1.438432 S    
C33   H12   1.078768 S    
C23   H10   1.083597 S    
