data_mof_unit_62650.cif
_audit_creation_date              2012-12-10T17:58:31-0500
_audit_creation_method            fapswitch 2.2
_symmetry_space_group_name_H-M    P1
_symmetry_Int_Tables_number       1
_space_group_crystal_system       triclinic
_cell_length_a                    18.351594
_cell_length_b                    25.784741
_cell_length_c                    18.340427
_cell_angle_alpha                 89.999676
_cell_angle_beta                  89.830479
_cell_angle_gamma                 90.001115
_cell_volume                      8678.48880684

loop_
_atom_site_label
_atom_site_type_symbol
_atom_type_description
_atom_site_fract_x
_atom_site_fract_y
_atom_site_fract_z
_atom_type_partial_charge
C1    C     C_R   0.640790 0.749464 0.360588 0.562159
C2    C     C_R   0.859210 0.750536 0.139412 0.562159
C3    C     C_R   0.770902 0.759220 0.322487 0.242366
C4    C     C_R   0.765320 0.775284 0.683835 0.236051
C5    C     C_R   0.287281 0.296526 0.264164 0.229811
C6    C     C_R   0.287387 0.703496 0.264049 0.229768
C7    C     C_R   0.765435 0.224923 0.683720 0.236152
C8    C     C_R   0.213643 0.796780 0.765185 0.229604
C9    C     C_R   0.729074 0.259047 0.177481 0.242515
C10   C     C_R   0.729098 0.740780 0.177513 0.242366
C11   C     C_R   0.213641 0.203220 0.765186 0.229611
C12   C     C_R   0.212719 0.203474 0.235836 0.229811
C13   C     C_R   0.859213 0.249464 0.139415 0.562218
C14   C     C_R   0.734680 0.724716 0.816165 0.236051
C15   C     C_R   0.734565 0.275077 0.816280 0.236151
C16   C     C_R   0.212612 0.796504 0.235951 0.229768
C17   C     C_R   0.140606 0.750697 0.860403 0.537441
C18   C     C_R   0.140628 0.750689 0.139653 0.537015
C19   C     C_R   0.859232 0.249803 0.860458 0.562267
C20   C     C_R   0.859236 0.750190 0.860453 0.562217
C21   C     C_R   0.140628 0.249313 0.139654 0.537064
C22   C     C_R   0.697457 0.250773 0.305044 0.016701
C23   C     C_R   0.303197 0.748722 0.695613 0.006994
C24   C     C_R   0.303196 0.251278 0.695612 0.006994
C25   C     C_R   0.359393 0.250696 0.639596 0.537443
C26   C     C_R   0.697464 0.749232 0.305051 0.016580
C27   C     C_R   0.697678 0.750073 0.694825 0.003908
C28   C     C_R   0.303200 0.251284 0.304314 0.006318
C29   C     C_R   0.303201 0.748712 0.304313 0.006256
C30   C     C_R   0.697679 0.249940 0.694823 0.004043
C31   C     C_R   0.196802 0.751278 0.804387 0.006994
C32   C     C_R   0.802543 0.249227 0.194956 0.016701
C33   C     C_R   0.802536 0.750768 0.194949 0.016580
C34   C     C_R   0.196804 0.248722 0.804388 0.006994
C35   C     C_R   0.196800 0.248716 0.195686 0.006318
C36   C     C_R   0.359394 0.749303 0.639597 0.537441
C37   C     C_R   0.802322 0.749927 0.805175 0.003908
C38   C     C_R   0.802320 0.250060 0.805177 0.004044
C39   C     C_R   0.196799 0.751288 0.195687 0.006255
C40   C     C_R   0.433768 0.973201 0.499832 -0.114016
C41   C     C_R   0.566259 0.026800 0.500225 -0.101756
C42   C     C_R   0.566260 0.973202 0.500225 -0.101736
C43   C     C_R   0.433767 0.026797 0.499832 -0.114018
C44   C     C_R   0.933741 0.473200 0.999775 -0.101756
C45   C     C_R   0.066232 0.526799 0.000168 -0.114016
C46   C     C_R   0.066233 0.473203 0.000168 -0.114018
C47   C     C_R   0.640786 0.250536 0.360585 0.562218
C48   C     C_R   0.933740 0.526798 0.999775 -0.101736
C49   C     C_R   0.500010 0.053763 0.500021 0.038320
C50   C     C_R   0.500012 0.946237 0.500021 0.038315
C51   C     C_R   0.999988 0.553763 0.999979 0.038315
C52   C     C_R   0.999989 0.446237 0.999979 0.038320
C53   C     C_R   0.500003 0.890132 0.500006 0.504583
C54   C     C_R   0.500002 0.109868 0.500006 0.504568
C55   C     C_R   0.999998 0.390132 0.999994 0.504568
C56   C     C_R   0.999997 0.609868 0.999994 0.504583
C57   C     C_R   0.510165 0.609910 0.499966 0.580218
C58   C     C_R   0.640767 0.250197 0.639542 0.562267
C59   C     C_R   0.510166 0.390089 0.499966 0.580237
C60   C     C_R   0.989833 0.109911 0.000034 0.580237
C61   C     C_R   0.989834 0.890090 0.000034 0.580218
C62   C     C_R   0.580681 0.553671 0.370677 0.238245
C63   C     C_R   0.581460 0.446314 0.628519 0.237347
C64   C     C_R   0.581466 0.553690 0.628514 0.237342
C65   C     C_R   0.580677 0.446331 0.370676 0.238229
C66   C     C_R   0.918539 0.053686 0.871481 0.237347
C67   C     C_R   0.919319 0.946329 0.129323 0.238245
C68   C     C_R   0.919323 0.053669 0.129324 0.238229
C69   C     C_R   0.359371 0.749311 0.360347 0.537015
C70   C     C_R   0.918533 0.946310 0.871486 0.237342
C71   C     C_R   0.586403 0.527086 0.304338 0.271536
C72   C     C_R   0.587809 0.472917 0.694761 0.272188
C73   C     C_R   0.587813 0.527090 0.694759 0.272183
C74   C     C_R   0.586399 0.472918 0.304337 0.271511
C75   C     C_R   0.912190 0.027083 0.805239 0.272188
C76   C     C_R   0.913597 0.972914 0.195662 0.271536
C77   C     C_R   0.913601 0.027082 0.195663 0.271511
C78   C     C_R   0.912186 0.972910 0.805241 0.272183
C79   C     C_R   0.554389 0.472320 0.433808 -0.055998
C80   C     C_R   0.359372 0.250687 0.360346 0.537064
C81   C     C_R   0.554762 0.527687 0.565716 -0.054677
C82   C     C_R   0.554761 0.472314 0.565718 -0.054696
C83   C     C_R   0.554390 0.527681 0.433808 -0.055990
C84   C     C_R   0.945237 0.972313 0.934284 -0.054677
C85   C     C_R   0.945611 0.027680 0.066192 -0.055998
C86   C     C_R   0.945610 0.972319 0.066192 -0.055990
C87   C     C_R   0.945239 0.027686 0.934282 -0.054696
C88   C     C_R   0.538379 0.445418 0.499849 0.056373
C89   C     C_R   0.538378 0.554582 0.499849 0.056386
C90   C     C_R   0.961622 0.945418 0.000151 0.056386
C91   C     C_R   0.640764 0.749810 0.639547 0.562217
C92   C     C_R   0.961621 0.054582 0.000150 0.056373
C93   C     C_R   0.266416 0.795009 0.710926 -0.116534
C94   C     C_R   0.677277 0.260065 0.232725 -0.094702
C95   C     C_R   0.677313 0.739769 0.232765 -0.094621
C96   C     C_R   0.266412 0.204991 0.710925 -0.116533
C97   C     C_R   0.265442 0.205258 0.289946 -0.116922
C98   C     C_R   0.683466 0.724963 0.760919 -0.089788
C99   C     C_R   0.683347 0.274844 0.761034 -0.089861
C100  C     C_R   0.265336 0.794714 0.290058 -0.116928
C101  C     C_R   0.822723 0.239935 0.267275 -0.094702
C102  C     C_R   0.140607 0.249303 0.860403 0.537443
C103  C     C_R   0.233584 0.704991 0.789074 -0.116534
C104  C     C_R   0.233588 0.295009 0.789075 -0.116533
C105  C     C_R   0.822686 0.760231 0.267235 -0.094621
C106  C     C_R   0.816534 0.775037 0.739081 -0.089788
C107  C     C_R   0.234558 0.294742 0.210054 -0.116922
C108  C     C_R   0.234664 0.705286 0.209942 -0.116928
C109  C     C_R   0.816653 0.225156 0.738966 -0.089861
C110  C     C_R   0.770926 0.240953 0.322519 0.242515
C111  C     C_R   0.286356 0.703220 0.734815 0.229604
C112  C     C_R   0.286359 0.296780 0.734814 0.229611
Cl1   Cl    Cl    0.608491 0.561478 0.775410 -0.343612
Cl2   Cl    Cl    0.634616 0.389422 0.619615 -0.470909
Cl3   Cl    Cl    0.634626 0.610581 0.619600 -0.471164
Cl4   Cl    Cl    0.634233 0.389604 0.378948 -0.460864
Cl5   Cl    Cl    0.865384 0.110578 0.880386 -0.470909
Cl6   Cl    Cl    0.865765 0.889601 0.121049 -0.461019
Cl7   Cl    Cl    0.865767 0.110395 0.121052 -0.460864
Cl8   Cl    Cl    0.865374 0.889419 0.880400 -0.471164
Cl9   Cl    Cl    0.801753 0.232696 0.412712 -0.393619
Cl10  Cl    Cl    0.326561 0.642532 0.715795 -0.481693
Cl11  Cl    Cl    0.326566 0.357468 0.715793 -0.481667
Cl12  Cl    Cl    0.606321 0.438532 0.223393 -0.343909
Cl13  Cl    Cl    0.801730 0.767721 0.412648 -0.393624
Cl14  Cl    Cl    0.791112 0.806803 0.602306 -0.371084
Cl15  Cl    Cl    0.328617 0.357006 0.281719 -0.479724
Cl16  Cl    Cl    0.328856 0.643033 0.281443 -0.479588
Cl17  Cl    Cl    0.791347 0.193639 0.602048 -0.371072
Cl18  Cl    Cl    0.173439 0.857468 0.784205 -0.481693
Cl19  Cl    Cl    0.698247 0.267304 0.087288 -0.393619
Cl20  Cl    Cl    0.698270 0.732279 0.087351 -0.393624
Cl21  Cl    Cl    0.173434 0.142532 0.784207 -0.481667
Cl22  Cl    Cl    0.171382 0.142994 0.218281 -0.479724
Cl23  Cl    Cl    0.606335 0.561473 0.223395 -0.343840
Cl24  Cl    Cl    0.708888 0.693197 0.897694 -0.371084
Cl25  Cl    Cl    0.708652 0.306361 0.897951 -0.371072
Cl26  Cl    Cl    0.171143 0.856967 0.218557 -0.479588
Cl27  Cl    Cl    0.608474 0.438533 0.775417 -0.343577
Cl28  Cl    Cl    0.893679 0.061468 0.276607 -0.343909
Cl29  Cl    Cl    0.891507 0.938522 0.724590 -0.343612
Cl30  Cl    Cl    0.891524 0.061467 0.724583 -0.343577
Cl31  Cl    Cl    0.893665 0.938527 0.276604 -0.343840
Cl32  Cl    Cl    0.634235 0.610399 0.378951 -0.461019
H1    H     H_    0.382015 0.952998 0.499673 0.164722
H2    H     H_    0.620704 0.266970 0.218878 0.190808
H3    H     H_    0.620764 0.732726 0.218941 0.191080
H4    H     H_    0.279844 0.169740 0.681611 0.181784
H5    H     H_    0.278049 0.170170 0.319914 0.182214
H6    H     H_    0.631716 0.705784 0.770321 0.215193
H7    H     H_    0.631501 0.293852 0.770526 0.214835
H8    H     H_    0.277856 0.829784 0.320113 0.182310
H9    H     H_    0.879295 0.233030 0.281122 0.190808
H10   H     H_    0.220150 0.669740 0.818388 0.181785
H11   H     H_    0.220156 0.330260 0.818388 0.181784
H12   H     H_    0.618012 0.047005 0.500389 0.184961
H13   H     H_    0.879236 0.767274 0.281059 0.191080
H14   H     H_    0.868284 0.794216 0.729679 0.215193
H15   H     H_    0.221951 0.329830 0.180086 0.182214
H16   H     H_    0.222144 0.670216 0.179887 0.182310
H17   H     H_    0.868498 0.206148 0.729474 0.214835
H18   H     H_    0.618013 0.952999 0.500389 0.185014
H19   H     H_    0.382014 0.046999 0.499673 0.164721
H20   H     H_    0.881988 0.452995 0.999611 0.184961
H21   H     H_    0.117985 0.547002 0.000327 0.164722
H22   H     H_    0.117986 0.453001 0.000327 0.164721
H23   H     H_    0.881987 0.547001 0.999611 0.185014
H24   H     H_    0.279850 0.830260 0.681612 0.181785
O1    O     O_3   0.500000 0.750040 0.500000 -0.494205
O2    O     O_R   0.414580 0.719700 0.353880 -0.478408
O3    O     O_R   0.414580 0.280300 0.353880 -0.478455
O4    O     O_R   0.585420 0.719700 0.646120 -0.508735
O5    O     O_R   0.085420 0.219700 0.853880 -0.478493
O6    O     O_R   0.914580 0.780300 0.146120 -0.501321
O7    O     O_R   0.914580 0.219700 0.146120 -0.501251
O8    O     O_R   0.085420 0.780300 0.853880 -0.478480
O9    O     O_R   0.085420 0.780300 0.146120 -0.478408
O10   O     O_R   0.914580 0.219700 0.853880 -0.508657
O11   O     O_R   0.914580 0.780300 0.853880 -0.508735
O12   O     O_3   0.500000 0.249960 0.500000 -0.494209
O13   O     O_R   0.085420 0.219700 0.146120 -0.478455
O14   O     O_R   0.646120 0.780390 0.585510 -0.468860
O15   O     O_R   0.353880 0.219610 0.414490 -0.549082
O16   O     O_R   0.353880 0.780390 0.414490 -0.549137
O17   O     O_R   0.646120 0.219610 0.585510 -0.468931
O18   O     O_R   0.646120 0.219610 0.414490 -0.477081
O19   O     O_R   0.353880 0.780390 0.585510 -0.548769
O20   O     O_R   0.353880 0.219610 0.585510 -0.548760
O21   O     O_R   0.646120 0.780390 0.414490 -0.477027
O22   O     O_R   0.146120 0.280390 0.085510 -0.549082
O23   O     O_3   0.000000 0.250040 0.000000 -0.494209
O24   O     O_R   0.853880 0.719610 0.914490 -0.468860
O25   O     O_R   0.853880 0.280390 0.914490 -0.468931
O26   O     O_R   0.146120 0.719610 0.085510 -0.549137
O27   O     O_R   0.146120 0.719610 0.914490 -0.548769
O28   O     O_R   0.853880 0.280390 0.085510 -0.477081
O29   O     O_R   0.853880 0.719610 0.085510 -0.477026
O30   O     O_R   0.146120 0.280390 0.914490 -0.548760
O31   O     O_R   0.560660 0.865840 0.500000 -0.536328
O32   O     O_R   0.439340 0.134160 0.500000 -0.551336
O33   O     O_R   0.439340 0.865840 0.500000 -0.551334
O34   O     O_3   0.000000 0.749960 0.000000 -0.494205
O35   O     O_R   0.560660 0.134160 0.500000 -0.536416
O36   O     O_R   0.060660 0.365840 0.000000 -0.551336
O37   O     O_R   0.939340 0.634160 0.000000 -0.536328
O38   O     O_R   0.939340 0.365840 0.000000 -0.536416
O39   O     O_R   0.060660 0.634160 0.000000 -0.551334
O40   O     O_R   0.500000 0.634240 0.439310 -0.482000
O41   O     O_R   0.500000 0.365760 0.560690 -0.481648
O42   O     O_R   0.500000 0.634240 0.560690 -0.481656
O43   O     O_R   0.500000 0.365760 0.439310 -0.481988
O44   O     O_R   0.000000 0.134240 0.939310 -0.481648
O45   O     O_R   0.585420 0.719700 0.353880 -0.501321
O46   O     O_R   1.000000 0.865760 0.060690 -0.482000
O47   O     O_R   1.000000 0.134240 0.060690 -0.481988
O48   O     O_R   1.000000 0.865760 0.939310 -0.481656
O49   O     O_R   0.414580 0.280300 0.646120 -0.478493
O50   O     O_R   0.414580 0.719700 0.646120 -0.478480
O51   O     O_R   0.585420 0.280300 0.353880 -0.501251
O52   O     O_R   0.585420 0.280300 0.646120 -0.508657
Zn1   Zn    Zn3+2 0.500000 0.706650 0.586810 1.068534
Zn2   Zn    Zn3+2 0.413290 0.206580 0.500000 0.960813
Zn3   Zn    Zn3+2 0.413290 0.793420 0.500000 0.960793
Zn4   Zn    Zn3+2 0.586710 0.206580 0.500000 1.057055
Zn5   Zn    Zn3+2 0.086710 0.293420 0.000000 0.960813
Zn6   Zn    Zn3+2 0.913290 0.706580 0.000000 1.057155
Zn7   Zn    Zn3+2 0.913290 0.293420 0.000000 1.057055
Zn8   Zn    Zn3+2 0.086710 0.706580 0.000000 0.960793
Zn9   Zn    Zn3+2 0.500000 0.293350 0.413190 1.070452
Zn10  Zn    Zn3+2 0.500000 0.706650 0.413190 1.070412
Zn11  Zn    Zn3+2 0.500000 0.293350 0.586810 1.068593
Zn12  Zn    Zn3+2 1.000000 0.206650 0.086810 1.070452
Zn13  Zn    Zn3+2 0.000000 0.793350 0.913190 1.068533
Zn14  Zn    Zn3+2 0.000000 0.206650 0.913190 1.068593
Zn15  Zn    Zn3+2 1.000000 0.793350 0.086810 1.070412
Zn16  Zn    Zn3+2 0.586710 0.793420 0.500000 1.057155

loop_
_geom_bond_atom_site_label_1
_geom_bond_atom_site_label_2
_ccdc_geom_bond_type
C28   C97   A    
C94   H2    S    
O16   Zn3   S    
C74   Cl12  S    
C62   C83   A    
O3    Zn9   S    
O12   Zn11  S    
C65   C79   A    
O1    Zn16  S    
C99   H7    S    
C70   C78   A    
O22   Zn5   S    
C41   C42   A    
C13   C32   S    
C25   O49   A    
O46   Zn15  S    
C24   C112  A    
C84   C87   A    
C6    C108  A    
O5    Zn14  S    
O11   Zn13  S    
O6    Zn15  S    
C81   C82   A    
C73   Cl1   S    
O34   Zn6   S    
C85   C86   A    
C3    C105  A    
C102  O5    A    
C21   O13   A    
C56   O39   A    
C57   O40   A    
C98   H6    S    
C14   Cl24  S    
C34   C102  S    
C57   C89   S    
O27   Zn8   S    
C75   Cl30  S    
C60   O47   A    
C27   C98   A    
C16   Cl26  S    
C102  O30   A    
C110  Cl9   S    
C71   Cl23  S    
C40   C50   A    
C18   O26   A    
C45   C51   A    
O13   Zn12  S    
C54   O35   A    
C2    O29   A    
C46   C52   A    
C68   C77   A    
C54   O32   A    
O1    Zn10  S    
C103  C111  A    
C51   C56   S    
O41   Zn11  S    
C80   O15   A    
O26   Zn8   S    
O21   Zn16  S    
C59   C88   S    
O4    Zn1   S    
C9    C32   A    
O34   Zn15  S    
C63   Cl2   S    
C58   O52   A    
C47   O51   A    
C72   Cl27  S    
C105  H13   S    
C56   O37   A    
C93   H24   S    
C70   Cl8   S    
O23   Zn12  S    
C22   C110  A    
C13   O28   A    
O35   Zn4   S    
C64   C73   A    
C77   Cl28  S    
O12   Zn2   S    
C61   O48   A    
C38   C109  A    
C11   Cl21  S    
C70   C84   A    
C108  H16   S    
O20   Zn2   S    
O52   Zn11  S    
C52   C55   S    
O14   Zn16  S    
C41   H12   S    
C81   C89   A    
O29   Zn6   S    
C44   C52   A    
C60   C92   S    
C22   C47   S    
O28   Zn7   S    
O23   Zn5   S    
C64   Cl3   S    
C12   Cl22  S    
C87   C92   A    
C58   O17   A    
O48   Zn13  S    
C22   C94   A    
C84   C90   A    
O51   Zn9   S    
C96   H4    S    
C41   C49   A    
C79   C88   A    
C75   C78   A    
C85   C92   A    
C59   O43   A    
C14   C98   A    
C20   O11   A    
C29   C69   S    
C9    Cl19  S    
C39   C108  A    
C83   C89   A    
O1    Zn1   S    
O12   Zn9   S    
C48   C51   A    
C50   C53   S    
C63   C82   A    
O47   Zn12  S    
C53   O31   A    
C33   C105  A    
C24   C25   S    
C18   O9    A    
C112  Cl11  S    
O9    Zn15  S    
C86   C90   A    
C78   Cl29  S    
C36   O50   A    
C66   C87   A    
O10   Zn14  S    
C43   C49   A    
O34   Zn8   S    
C69   O16   A    
C101  C110  A    
C106  H14   S    
C4    C106  A    
C30   C99   A    
O17   Zn4   S    
C100  H8    S    
C65   C74   A    
C23   C93   A    
C47   O18   A    
O23   Zn14  S    
C31   C103  A    
C18   C39   S    
C15   C38   A    
C25   O20   A    
C5    C28   A    
C103  H10   S    
O44   Zn14  S    
O8    Zn13  S    
C101  H9    S    
C5    Cl15  S    
C42   H18   S    
C95   H3    S    
O37   Zn6   S    
C76   C77   A    
C17   O8    A    
C27   C91   S    
C60   O44   A    
C19   O10   A    
O25   Zn7   S    
C12   C97   A    
C42   C50   A    
C66   Cl5   S    
C91   O4    A    
C2    C33   S    
C19   O25   A    
C1    O45   A    
C1    C26   S    
C17   C31   S    
C65   Cl4   S    
C17   O27   A    
C61   O46   A    
O33   Zn3   S    
C34   C104  A    
C59   O41   A    
C4    C27   A    
C61   C90   S    
O50   Zn1   S    
C104  C112  A    
C5    C107  A    
C26   C95   A    
C13   O7    A    
C55   O38   A    
O18   Zn4   S    
C57   O42   A    
C67   C86   A    
O23   Zn7   S    
O7    Zn12  S    
C46   H22   S    
C29   C100  A    
C8    C31   A    
C3    C26   A    
C16   C100  A    
C8    C93   A    
C15   C99   A    
C72   C73   A    
C7    C30   A    
C6    C29   A    
C20   O24   A    
C71   C74   A    
C107  H15   S    
O30   Zn5   S    
C21   C35   S    
C40   H1    S    
C23   C111  A    
O2    Zn10  S    
C55   O36   A    
C43   H19   S    
C11   C96   A    
C4    Cl14  S    
C3    Cl13  S    
C36   O19   A    
O32   Zn2   S    
C40   C43   A    
C24   C96   A    
C6    Cl16  S    
C37   C106  A    
C68   Cl7   S    
C44   C48   A    
C109  H17   S    
O31   Zn16  S    
C2    O6    A    
O34   Zn13  S    
C8    Cl18  S    
C20   C37   S    
C11   C34   A    
C21   O22   A    
O1    Zn3   S    
C48   H23   S    
O19   Zn3   S    
C10   C95   A    
O15   Zn2   S    
C82   C88   A    
C66   C75   A    
C30   C58   S    
O24   Zn6   S    
C62   C71   A    
O12   Zn4   S    
C10   C33   A    
C68   C85   A    
C69   O2    A    
C104  H11   S    
C1    O21   A    
C28   C80   S    
C67   Cl6   S    
C10   Cl20  S    
C64   C81   A    
C7    Cl17  S    
C35   C107  A    
C16   C39   A    
O43   Zn9   S    
C79   C83   A    
C76   Cl31  S    
C45   C46   A    
O39   Zn8   S    
C19   C38   S    
C63   C72   A    
C14   C37   A    
C23   C36   S    
C91   O14   A    
O40   Zn10  S    
O38   Zn7   S    
O42   Zn1   S    
C97   H5    S    
C32   C101  A    
C7    C109  A    
C67   C76   A    
C44   H20   S    
C80   O3    A    
C15   Cl25  S    
O36   Zn5   S    
C45   H21   S    
C9    C94   A    
C12   C35   A    
O49   Zn11  S    
O45   Zn10  S    
C49   C54   S    
C62   Cl32  S    
C111  Cl10  S    
C53   O33   A    
