data_mof_unit_53091.cif
_audit_creation_date              2013-03-05T15:49:43-0500
_audit_creation_method            fapswitch 2.2
_symmetry_space_group_name_H-M    P1
_symmetry_Int_Tables_number       1
_space_group_crystal_system       triclinic
_cell_length_a                    12.253279
_cell_length_b                    12.957451
_cell_length_c                    13.33346
_cell_angle_alpha                 84.523739
_cell_angle_beta                  113.887077
_cell_angle_gamma                 90.682112
_cell_volume                      1925.97554344

loop_
_atom_site_label
_atom_site_type_symbol
_atom_site_description
_atom_site_fract_x
_atom_site_fract_y
_atom_site_fract_z
_atom_type_partial_charge
O1    O     O_R   0.579910 0.341070 0.505280 -0.637292
O2    O     O_R   0.388440 0.353740 0.492580 -0.585406
C1    C     C_R   0.478386 0.299995 0.495039 0.882516
O3    O     O_R   0.643280 0.490550 0.663120 -0.611810
O4    O     O_R   0.451810 0.503220 0.650420 -0.561360
C2    C     C_R   0.567206 0.500965 0.708142 0.849302
Zn1   Zn    Zn3+2 0.627850 0.491540 0.508480 0.986901
Zn2   Zn    Zn3+2 0.372150 0.508460 0.491520 1.062227
O5    O     O_R   0.611560 0.646260 0.507420 -0.647321
O6    O     O_R   0.420090 0.658930 0.494720 -0.546125
O7    O     O_R   0.548190 0.496780 0.349580 -0.564688
O8    O     O_R   0.356720 0.509450 0.336880 -0.591130
C3    C     C_R   0.522195 0.699123 0.509967 0.901027
C4    C     C_R   0.433257 0.497860 0.291656 0.887721
C5    C     C_R   0.251449 0.545257 0.984918 -0.092311
H1    H     H_    0.162002 0.570980 0.928338 0.206839
C6    C     C_R   0.393647 0.490206 0.170997 -0.210624
C7    C     C_R   0.714889 0.447945 0.899950 0.316267
C8    C     C_R   0.711098 0.379713 0.985792 -0.194128
C9    C     C_R   0.613545 0.383517 0.012856 -0.125657
C10   C     C_R   0.529633 0.466927 0.967445 0.112029
C11   C     C_R   0.524411 0.526745 0.871599 0.011272
C12   C     C_R   0.450643 0.491666 0.014882 -0.067075
C13   C     C_R   0.344273 0.547973 0.948986 -0.047551
C14   C     C_R   0.335597 0.606804 0.851278 0.343032
C15   C     C_R   0.434541 0.606716 0.821927 0.067320
C16   C     C_R   0.480834 0.472064 0.128790 0.241663
C17   C     C_R   0.273423 0.508910 0.094128 0.082020
C18   C     C_R   0.609311 0.503633 0.828919 -0.207767
H2    H     H_    0.608930 0.325559 0.074692 0.192972
H3    H     H_    0.785021 0.326396 0.034451 0.196585
C19   C     C_R   0.536041 0.806742 0.537021 -0.292928
C20   C     C_R   0.465986 0.188112 0.497150 -0.149389
C21   C     C_R   0.352862 0.040506 0.520484 0.347082
C22   C     C_R   0.365479 0.146520 0.509698 -0.253521
C23   C     C_R   0.555528 0.121388 0.496638 0.137453
C24   C     C_R   0.557460 0.018267 0.538928 -0.045188
C25   C     C_R   0.448100 0.975283 0.528877 -0.135674
C26   C     C_R   0.433015 0.871437 0.509854 0.242733
C27   C     C_R   0.650355 0.846972 0.595244 -0.018129
C28   C     C_R   0.661657 0.954765 0.581425 0.325477
H4    H     H_    0.294973 0.195940 0.509822 0.216355
N1    N     N_R   0.798200 0.480260 0.519790 -0.110788
N2    N     N_R   0.201820 0.519740 0.480210 -0.201391
C29   C     C_R   0.005359 0.605085 0.403103 -0.227677
C30   C     C_R   0.118026 0.589089 0.401189 0.395226
C31   C     C_R   0.163177 0.457157 0.548865 0.355706
C32   C     C_R   0.038811 0.457231 0.531467 -0.074214
C33   C     C_R   0.964616 0.540890 0.470404 -0.050900
C34   C     C_R   0.850837 0.558053 0.474899 0.298974
C35   C     C_R   0.867193 0.387445 0.565276 0.202814
C36   C     C_R   0.985594 0.373954 0.568189 0.069502
H5    H     H_    0.946222 0.664694 0.345067 0.208844
C37   C     C_3   0.167590 0.488460 0.123019 -0.309178
C38   C     C_3   0.161122 0.373482 0.157642 -0.742291
H6    H     H_    0.241454 0.346739 0.232565 0.235032
H7    H     H_    0.081186 0.360845 0.176266 0.264716
H8    H     H_    0.154111 0.326448 0.089960 0.279909
H9    H     H_    0.170547 0.534643 0.188185 0.264680
H10   H     H_    0.083168 0.513267 0.051847 0.267783
C39   C     C_3   0.754702 0.780234 0.679842 -0.361108
C40   C     C_3   0.784382 0.806230 0.797438 -0.686271
H11   H     H_    0.707999 0.789201 0.819984 0.236583
H12   H     H_    0.862740 0.758254 0.855929 0.292860
H13   H     H_    0.806941 0.888653 0.807342 0.289158
H14   H     H_    0.735268 0.696829 0.679800 0.245920
H15   H     H_    0.835433 0.790894 0.662451 0.261485
N3    N     N_R   0.249510 0.001477 0.534881 0.247665
O9    O     O_R   0.144802 0.044317 0.475152 -0.350172
O10   O     O_R   0.262926 0.938846 0.621547 -0.331068
N4    N     N_R   0.776894 0.000056 0.623742 0.183057
O11   O     O_R   0.800389 0.066554 0.696322 -0.445669
O12   O     O_R   0.859817 0.972077 0.593601 -0.376576
C41   C     C_3   0.613088 0.145533 0.415372 -0.419304
C42   C     C_3   0.555573 0.085470 0.314229 -0.769304
H16   H     H_    0.572160 0.000688 0.337665 0.256369
H17   H     H_    0.457744 0.102282 0.274373 0.266843
H18   H     H_    0.594530 0.109251 0.253766 0.265681
H19   H     H_    0.601303 0.228236 0.384604 0.265223
H20   H     H_    0.710172 0.126825 0.453563 0.243355
C43   C     C_3   0.809137 0.671060 0.455035 -0.363418
C44   C     C_3   0.710587 0.703327 0.341515 -0.696034
H21   H     H_    0.741772 0.693516 0.275633 0.266284
H22   H     H_    0.629389 0.658737 0.325840 0.288381
H23   H     H_    0.686284 0.786545 0.336477 0.229299
H24   H     H_    0.790105 0.691517 0.523571 0.219823
H25   H     H_    0.884274 0.723687 0.464964 0.218320
C45   C     C_3   0.823942 0.295855 0.618080 -0.389176
C46   C     C_3   0.807477 0.318739 0.720190 -0.600728
H26   H     H_    0.835137 0.398550 0.736571 0.295386
H27   H     H_    0.713967 0.307016 0.710009 0.247448
H28   H     H_    0.865440 0.266313 0.793084 0.256075
H29   H     H_    0.749654 0.260284 0.557662 0.233475
H30   H     H_    0.885289 0.228545 0.646551 0.238678
C47   C     C_3   0.042589 0.265153 0.583120 -0.381224
C48   C     C_3   0.106418 0.219685 0.704136 -0.624746
H31   H     H_    0.089895 0.268380 0.761091 0.262339
H32   H     H_    0.074499 0.140513 0.714971 0.265690
H33   H     H_    0.204045 0.212038 0.728519 0.289536
H34   H     H_    0.973140 0.211679 0.535838 0.220712
H35   H     H_    0.105827 0.263808 0.542692 0.225163
N5    N     N_R   0.137309 0.645925 0.311603 0.209240
O13   O     O_R   0.046245 0.678131 0.221225 -0.390592
O14   O     O_R   0.242210 0.671675 0.318897 -0.307395
N6    N     N_R   0.232453 0.672898 0.787582 0.204742
O15   O     O_R   0.177397 0.668271 0.681823 -0.357641
O16   O     O_R   0.194419 0.739107 0.834549 -0.369263
N7    N     N_R   0.248647 0.405122 0.649450 0.222126
O17   O     O_R   0.321198 0.333449 0.648638 -0.415912
O18   O     O_R   0.241462 0.418403 0.742026 -0.422489
N8    N     N_R   0.603958 0.449047 0.201321 0.212209
O19   O     O_R   0.686556 0.512260 0.199380 -0.406108
O20   O     O_R   0.634800 0.361048 0.262331 -0.444606
N9    N     N_R   0.826868 0.466887 0.892484 0.191844
O21   O     O_R   0.843446 0.554004 0.844239 -0.431577
O22   O     O_R   0.917493 0.403011 0.945572 -0.460362
C49   C     C_3   0.451469 0.699189 0.751104 -0.360985
C50   C     C_3   0.471580 0.798015 0.809641 -0.756765
H36   H     H_    0.493162 0.862200 0.759897 0.257441
H37   H     H_    0.390816 0.821627 0.820613 0.314468
H38   H     H_    0.547392 0.785781 0.891793 0.243932
H39   H     H_    0.530545 0.688579 0.732672 0.174091
H40   H     H_    0.373268 0.709898 0.671502 0.294592
N10   N     N_R   0.315388 0.840326 0.441826 0.259676
O23   O     O_R   0.250654 0.790918 0.486478 -0.309331
O24   O     O_R   0.263402 0.883755 0.341224 -0.317810

loop_
_geom_bond_atom_site_label_1
_geom_bond_atom_site_label_2
_geom_bond_distance
_ccdc_geom_bond_type
C38   H6    1.110241 S    
C11   C18   1.419559 A    
C3    C19   1.464333 S    
C47   C48   1.539436 S    
C15   C49   1.518957 S    
C49   H39   1.104812 S    
C8    H3    1.082624 S    
C7    N9    1.432057 S    
N9    O21   1.300404 A    
C14   N6    1.438642 S    
C9    H2    1.079591 S    
C29   C30   1.409202 A    
Zn1   O7    1.935324 S    
C30   N5    1.442749 S    
C40   H11   1.106950 S    
C23   C24   1.396432 A    
C7    C8    1.393836 A    
O4    C2    1.306862 A    
O7    C4    1.302901 A    
C1    C20   1.454645 S    
C5    H1    1.082829 S    
C48   H33   1.108261 S    
C20   C23   1.407518 A    
N7    O17   1.297032 A    
C36   C47   1.540173 S    
C21   C22   1.380868 A    
C19   C26   1.422841 A    
C22   H4    1.082121 S    
O5    C3    1.312182 A    
C50   H36   1.110416 S    
C40   H12   1.109853 S    
C45   H29   1.075639 S    
C39   H14   1.103867 S    
N8    O19   1.301278 A    
N3    O9    1.301372 A    
C48   H32   1.110932 S    
C12   C13   1.405679 A    
C12   C16   1.407720 A    
C46   H27   1.108243 S    
C43   H24   1.086288 S    
N2    C31   1.385629 A    
C28   N4    1.433470 S    
C16   N8    1.440266 S    
O1    Zn1   2.028931 S    
C10   C11   1.408517 A    
C4    C6    1.493514 S    
N5    O13   1.302890 A    
O3    Zn1   1.991628 S    
N2    C30   1.391733 A    
C43   C44   1.528074 S    
C37   H9    1.089781 S    
C45   H30   1.091404 S    
C41   C42   1.529244 S    
C35   C36   1.447753 A    
C6    C16   1.425269 A    
C13   C14   1.410634 A    
O3    C2    1.311152 A    
C21   N3    1.435086 S    
N4    O12   1.301017 A    
C17   C37   1.509043 S    
C47   H34   1.112001 S    
C37   H10   1.108423 S    
C14   C15   1.416830 A    
C44   H21   1.108205 S    
C26   N10   1.435199 S    
O1    C1    1.307671 A    
C50   H38   1.110939 S    
C42   H16   1.110918 S    
C24   C25   1.405296 A    
N6    O16   1.301451 A    
C39   H15   1.108060 S    
C31   C32   1.445600 A    
C29   C33   1.398871 A    
Zn2   O8    1.991628 S    
C48   H31   1.111223 S    
N8    O20   1.299599 A    
C7    C18   1.410942 A    
C5    C13   1.400567 A    
C45   C46   1.511024 S    
C46   H28   1.112190 S    
N5    O14   1.291407 A    
C42   H17   1.111313 S    
C43   H25   1.110744 S    
C23   C41   1.522634 S    
Zn2   O6    2.028928 S    
C32   C33   1.385647 A    
O8    C4    1.320715 A    
C31   N7    1.434149 S    
Zn1   N1    2.036970 S    
C41   H19   1.099697 S    
C10   C12   1.407655 A    
N10   O24   1.301606 A    
Zn1   O5    2.015194 S    
C37   C38   1.527908 S    
C27   C28   1.403897 A    
C40   H13   1.106702 S    
C21   C25   1.410061 A    
C6    C17   1.420442 A    
O2    Zn2   2.015194 S    
Zn2   N2    2.036727 S    
O6    C3    1.294822 A    
C35   C45   1.520758 S    
O4    Zn2   1.935323 S    
N9    O22   1.301025 A    
N1    C34   1.404407 A    
C44   H23   1.110644 S    
N6    O15   1.300739 A    
C44   H22   1.099255 S    
C8    C9    1.384071 A    
C38   H7    1.110523 S    
O2    C1    1.298226 A    
C49   H40   1.102424 S    
N4    O11   1.299788 A    
C49   C50   1.528778 S    
N1    C35   1.413729 A    
C5    C17   1.403310 A    
C25   C26   1.389375 A    
C20   C22   1.403195 A    
N7    O18   1.299967 A    
C19   C27   1.419719 A    
C24   C28   1.406530 A    
C39   C40   1.529813 S    
C42   H18   1.110620 S    
C50   H37   1.107866 S    
C27   C39   1.525476 S    
C29   H5    1.079625 S    
C32   C36   1.403675 A    
C2    C18   1.482574 S    
C9    C10   1.410407 A    
N3    O10   1.300483 A    
C33   C34   1.440254 A    
C11   C15   1.424982 A    
C38   H8    1.110913 S    
C41   H20   1.107211 S    
C46   H26   1.098558 S    
C47   H35   1.109818 S    
C34   C43   1.519714 S    
N10   O23   1.300426 A    
