data_mof_unit_56591.cif
_audit_creation_date              2012-12-11T16:36:26-0500
_audit_creation_method            fapswitch 2.2
_symmetry_space_group_name_H-M    P1
_symmetry_Int_Tables_number       1
_space_group_crystal_system       triclinic
_cell_length_a                    25.690612
_cell_length_b                    7.27937
_cell_length_c                    23.299345
_cell_angle_alpha                 89.957076
_cell_angle_beta                  104.265586
_cell_angle_gamma                 90.050807
_cell_volume                      4222.88209513

loop_
_atom_site_label
_atom_site_type_symbol
_atom_type_description
_atom_site_fract_x
_atom_site_fract_y
_atom_site_fract_z
_atom_type_partial_charge
O1    O     O_R   0.438720 0.630760 0.439780 -0.537604
O2    O     O_R   0.061280 0.869240 0.060220 -0.534799
O3    O     O_R   0.561280 0.130760 0.560220 -0.537571
O4    O     O_R   0.938720 0.369240 0.939780 -0.534812
O5    O     O_R   0.546380 0.956770 0.446270 -0.535575
O6    O     O_R   0.953620 0.543230 0.053730 -0.538909
O7    O     O_R   0.453620 0.456770 0.553730 -0.539423
O8    O     O_R   0.046380 0.043230 0.946270 -0.539125
C1    C     C_R   0.562205 0.791963 0.434415 0.684379
C2    C     C_R   0.937763 0.708014 0.065543 0.680382
C3    C     C_R   0.437761 0.291749 0.565761 0.684932
C4    C     C_R   0.062165 0.208211 0.934470 0.681050
O9    O     O_R   0.438210 0.960230 0.432810 -0.539120
O10   O     O_R   0.061790 0.539770 0.067190 -0.538076
O11   O     O_R   0.561790 0.460230 0.567190 -0.539237
O12   O     O_R   0.938210 0.039770 0.932810 -0.538116
O13   O     O_R   0.452340 0.134240 0.546660 -0.536947
O14   O     O_R   0.047660 0.365760 0.953340 -0.532740
O15   O     O_R   0.547660 0.634240 0.453340 -0.533004
O16   O     O_R   0.952340 0.865760 0.046660 -0.532383
C5    C     C_R   0.419011 0.791627 0.416426 0.683476
C6    C     C_R   0.081114 0.708219 0.083042 0.681805
C7    C     C_R   0.580999 0.291653 0.583559 0.687651
C8    C     C_R   0.918889 0.208196 0.916955 0.681668
O17   O     O_3   0.504760 0.798440 0.537370 -0.378994
O18   O     O_3   0.995240 0.701560 0.962630 -0.375063
O19   O     O_3   0.495240 0.298440 0.462630 -0.374422
O20   O     O_3   0.004760 0.201560 0.037370 -0.375030
V1    V     V_3+5 0.499120 0.071860 0.493070 1.401333
V2    V     V_3+5 0.000880 0.428140 0.006930 1.413535
V3    V     V_3+5 0.500880 0.571860 0.506930 1.397139
V4    V     V_3+5 0.999120 0.928140 0.993070 1.413383
C9    C     C_R   0.687965 0.102447 0.713943 0.186697
C10   C     C_R   0.779641 0.350105 0.829072 0.180529
C11   C     C_R   0.312055 0.602446 0.286013 0.186601
C12   C     C_R   0.220419 0.850235 0.170844 0.180867
C13   C     C_R   0.641683 0.117369 0.666951 -0.161243
C14   C     C_R   0.827672 0.338998 0.873860 -0.152435
C15   C     C_R   0.358319 0.617354 0.333033 -0.161217
C16   C     C_R   0.172366 0.839181 0.126083 -0.152545
H1    H     H_    0.614447 0.001577 0.656677 0.129218
H2    H     H_    0.832428 0.421190 0.913601 0.114605
H3    H     H_    0.385517 0.501592 0.343349 0.130561
H4    H     H_    0.167610 0.921506 0.086337 0.114627
C17   C     C_R   0.629799 0.280286 0.633735 -0.085631
C18   C     C_R   0.869034 0.218776 0.868797 -0.075373
C19   C     C_R   0.370233 0.780229 0.366221 -0.086969
C20   C     C_R   0.130980 0.718832 0.131181 -0.075547
C21   C     C_R   0.665332 0.429473 0.648321 -0.170076
C22   C     C_R   0.862266 0.110291 0.817793 -0.170439
C23   C     C_R   0.334757 0.929393 0.351566 -0.169245
C24   C     C_R   0.137746 0.610161 0.182187 -0.170396
H5    H     H_    0.657625 0.556520 0.623462 0.129868
H6    H     H_    0.893708 0.017115 0.812818 0.121154
H7    H     H_    0.342495 0.056434 0.376384 0.132365
H8    H     H_    0.106286 0.516873 0.187185 0.121377
C25   C     C_R   0.711990 0.415035 0.694306 -0.184295
C26   C     C_R   0.815473 0.124904 0.772004 -0.176900
C27   C     C_R   0.288111 0.914948 0.305568 -0.184025
C28   C     C_R   0.184561 0.624716 0.227949 -0.176475
H9    H     H_    0.739180 0.531017 0.703777 0.121949
H10   H     H_    0.811827 0.042960 0.732426 0.120278
H11   H     H_    0.260956 0.030892 0.296061 0.122566
H12   H     H_    0.188203 0.542640 0.267533 0.120848
C29   C     C_R   0.723854 0.252799 0.727738 0.086181
C30   C     C_R   0.773614 0.243536 0.776989 0.081548
C31   C     C_R   0.276211 0.752751 0.272172 0.086035
C32   C     C_R   0.226444 0.743473 0.222931 0.081577
C33   C     C_R   0.401753 0.134835 0.643731 -0.169139
C34   C     C_R   0.153552 0.273156 0.921158 -0.170878
C35   C     C_R   0.654029 0.730955 0.421448 -0.166552
C36   C     C_R   0.845773 0.767714 0.078204 -0.169950
H13   H     H_    0.431866 0.028524 0.647343 0.121698
H14   H     H_    0.166772 0.307008 0.967768 0.102526
H15   H     H_    0.667316 0.699076 0.468207 0.100377
H16   H     H_    0.832507 0.798811 0.031387 0.101963
C37   C     C_R   0.365735 0.125601 0.680004 -0.128764
C38   C     C_R   0.190349 0.280888 0.885811 -0.121578
C39   C     C_R   0.690977 0.723879 0.386212 -0.121332
C40   C     C_R   0.808738 0.774654 0.113338 -0.121375
H17   H     H_    0.369849 0.015069 0.711846 0.112646
H18   H     H_    0.231690 0.315856 0.906251 0.111645
H19   H     H_    0.732443 0.691453 0.406896 0.109937
H20   H     H_    0.767242 0.806378 0.092549 0.110726
C41   C     C_R   0.325631 0.259657 0.675965 0.109730
C42   C     C_R   0.174110 0.240141 0.825020 0.106342
C43   C     C_R   0.674708 0.761725 0.325200 0.105508
C44   C     C_R   0.824969 0.737633 0.174404 0.105904
C45   C     C_R   0.324096 0.408082 0.636886 -0.156523
C46   C     C_R   0.120836 0.183027 0.801004 -0.144755
C47   C     C_R   0.621252 0.816156 0.300893 -0.143257
C48   C     C_R   0.878488 0.684279 0.198895 -0.143693
H21   H     H_    0.293973 0.514387 0.633231 0.117674
H22   H     H_    0.107404 0.148753 0.754463 0.112073
H23   H     H_    0.607820 0.848666 0.254207 0.113424
H24   H     H_    0.891884 0.652413 0.245630 0.112436
C49   C     C_R   0.361096 0.420191 0.601852 -0.162091
C50   C     C_R   0.084410 0.170425 0.836770 -0.163913
C51   C     C_R   0.584637 0.828061 0.336522 -0.163690
C52   C     C_R   0.915210 0.672666 0.163387 -0.163495
H25   H     H_    0.358696 0.535427 0.571872 0.120252
H26   H     H_    0.043558 0.126460 0.817424 0.100909
H27   H     H_    0.543643 0.869744 0.316889 0.104068
H28   H     H_    0.956254 0.631823 0.183157 0.100680
C53   C     C_R   0.399847 0.282383 0.604356 -0.044066
C54   C     C_R   0.100438 0.217586 0.896870 -0.022946
C55   C     C_R   0.600662 0.783168 0.396854 -0.024247
C56   C     C_R   0.899213 0.716698 0.102990 -0.023402
C57   C     C_R   0.280098 0.406302 0.746948 -0.199025
C58   C     C_R   0.218645 0.094387 0.752979 -0.205283
C59   C     C_R   0.720440 0.907794 0.254043 -0.204481
C60   C     C_R   0.779137 0.591376 0.245422 -0.204705
H29   H     H_    0.303938 0.527712 0.744599 0.125826
H30   H     H_    0.194604 0.973380 0.755192 0.129716
H31   H     H_    0.697806 0.030956 0.257670 0.130570
H32   H     H_    0.801780 0.468232 0.241792 0.130436
C61   C     C_R   0.243301 0.408915 0.782679 0.179026
C62   C     C_R   0.254481 0.093279 0.716081 0.184185
C63   C     C_R   0.756328 0.908170 0.217125 0.179532
C64   C     C_R   0.743236 0.590969 0.282324 0.179650
C65   C     C_R   0.213016 0.248979 0.787002 0.028560
C66   C     C_R   0.286643 0.250304 0.713932 0.029303
C67   C     C_R   0.785959 0.747148 0.212384 0.029500
C68   C     C_R   0.713637 0.752053 0.287112 0.029640
C69   C     C_3   0.697723 0.927508 0.749487 -0.827187
H33   H     H_    0.734811 0.860167 0.743808 0.205757
H34   H     H_    0.702032 0.958432 0.797092 0.221369
H35   H     H_    0.664092 0.828502 0.735201 0.209549
C70   C     C_3   0.734824 0.470465 0.838470 -0.806968
H36   H     H_    0.726713 0.581602 0.805049 0.218766
H37   H     H_    0.697881 0.387109 0.834444 0.216801
H38   H     H_    0.744994 0.535311 0.882987 0.205210
C71   C     C_3   0.302271 0.427588 0.250485 -0.827328
H39   H     H_    0.265153 0.360131 0.256132 0.206049
H40   H     H_    0.298006 0.458650 0.202882 0.221130
H41   H     H_    0.335871 0.328626 0.264807 0.209341
C72   C     C_3   0.265260 0.970746 0.161410 -0.807918
H42   H     H_    0.273413 0.081812 0.194817 0.218783
H43   H     H_    0.302179 0.887479 0.165428 0.216381
H44   H     H_    0.255090 0.035691 0.116886 0.205350
C73   C     C_3   0.235313 0.585969 0.813005 -0.794911
H45   H     H_    0.256107 0.702542 0.797344 0.211388
H46   H     H_    0.191894 0.620018 0.803420 0.214919
H47   H     H_    0.251977 0.574543 0.861456 0.206599
C74   C     C_3   0.255584 0.927126 0.677724 -0.810045
H48   H     H_    0.221534 0.832750 0.677549 0.210035
H49   H     H_    0.252449 0.970133 0.631266 0.218997
H50   H     H_    0.293094 0.848257 0.694540 0.197820
C75   C     C_3   0.763826 0.083372 0.185471 -0.798949
H51   H     H_    0.741201 0.199253 0.198556 0.209230
H52   H     H_    0.807001 0.121547 0.196176 0.215257
H53   H     H_    0.748646 0.066847 0.136996 0.207966
C76   C     C_3   0.735692 0.415644 0.313892 -0.799352
H54   H     H_    0.758189 0.299695 0.300644 0.209034
H55   H     H_    0.751000 0.431740 0.362365 0.207420
H56   H     H_    0.692494 0.377800 0.303275 0.215767

loop_
_geom_bond_atom_site_label_1
_geom_bond_atom_site_label_2
_ccdc_geom_bond_type
C26   H10   S    
C51   H27   S    
O1    C5    A    
C7    C17   S    
C35   C55   A    
C34   C38   A    
O13   V1    S    
C33   C37   A    
C6    C20   S    
O1    V3    S    
C36   H16   S    
O15   V3    S    
C11   C71   S    
C39   C43   A    
C74   H48   S    
C57   C61   A    
O7    C3    A    
C72   H43   S    
C22   H6    S    
O2    V4    S    
C14   H2    S    
C20   C24   A    
C43   C47   A    
C75   H52   S    
C58   C65   A    
C43   C68   S    
O4    C8    A    
C57   C66   A    
O19   V1    S    
C48   H24   S    
C21   C25   A    
C59   C63   A    
C62   C66   A    
O3    V1    S    
C61   C65   A    
C34   H14   S    
C24   C28   A    
C27   C31   A    
C2    C56   S    
C26   C30   A    
C52   H28   S    
C36   C56   A    
C10   C70   S    
C2    O16   A    
C39   H19   S    
O2    C6    A    
C69   H35   S    
C33   H13   S    
O14   V2    S    
C11   C31   A    
C76   H55   S    
C12   C72   S    
C58   H30   S    
C57   H29   S    
C70   H38   S    
C49   C53   A    
C38   C42   A    
O11   C7    A    
C37   C41   A    
O12   C8    A    
C45   H21   S    
C10   C30   A    
O10   V2    S    
C44   C67   S    
C35   C39   A    
C74   H49   S    
C1    O15   A    
C46   H22   S    
O5    V1    S    
C72   H44   S    
C52   C56   A    
O7    V3    S    
C9    C29   A    
C31   C32   S    
O8    V4    S    
C44   C48   A    
C12   C16   A    
C60   C67   A    
C34   C54   A    
C73   H47   S    
C63   C75   S    
C60   C64   A    
C33   C53   A    
O18   V4    S    
C19   C23   A    
O3    C7    A    
C50   H26   S    
C9    C13   A    
C45   C49   A    
C22   C26   A    
C61   C73   S    
O5    C1    A    
C71   H41   S    
C38   H18   S    
C37   H17   S    
O8    C4    A    
C42   C65   S    
C9    C69   S    
C17   C21   A    
O9    C5    A    
C41   C66   S    
C3    C53   S    
C70   H37   S    
C76   H56   S    
O11   V3    S    
C58   C62   A    
O6    V2    S    
C42   C46   A    
C71   H39   S    
C75   H53   S    
O12   V4    S    
C13   C17   A    
C60   H32   S    
C74   H50   S    
C48   C52   A    
C15   C19   A    
C70   H36   S    
O16   V4    S    
O9    V1    S    
C16   C20   A    
C3    O13   A    
C41   C45   A    
C59   C68   A    
C10   C14   A    
O17   V3    S    
C62   C74   S    
C25   C29   A    
O6    C2    A    
C15   H3    S    
C12   C32   A    
C25   H9    S    
C63   C67   A    
C4    C54   S    
C51   C55   A    
C72   H42   S    
C18   C22   A    
C27   H11   S    
C50   C54   A    
C28   H12   S    
C8    C18   S    
O10   C6    A    
C73   H46   S    
C36   C40   A    
C73   H45   S    
C40   H20   S    
C35   H15   S    
C69   H33   S    
C21   H5    S    
C11   C15   A    
O20   V2    S    
C64   C76   S    
C23   H7    S    
C13   H1    S    
O4    V2    S    
C14   C18   A    
C47   H23   S    
C64   C68   A    
C16   H4    S    
C23   C27   A    
C28   C32   A    
C40   C44   A    
C29   C30   S    
C4    O14   A    
C69   H34   S    
C71   H40   S    
C1    C55   S    
C59   H31   S    
C47   C51   A    
C76   H54   S    
C75   H51   S    
C46   C50   A    
C49   H25   S    
C24   H8    S    
C5    C19   S    
