data_mof_unit_31231.cif
_audit_creation_date              2012-12-10T16:58:25-0500
_audit_creation_method            fapswitch 2.2
_symmetry_space_group_name_H-M    P1
_symmetry_Int_Tables_number       1
_space_group_crystal_system       triclinic
_cell_length_a                    15.859411
_cell_length_b                    10.905008
_cell_length_c                    9.739223
_cell_angle_alpha                 90.24428
_cell_angle_beta                  89.307358
_cell_angle_gamma                 90.328926
_cell_volume                      1684.20379151

loop_
_atom_site_label
_atom_site_type_symbol
_atom_type_description
_atom_site_fract_x
_atom_site_fract_y
_atom_site_fract_z
_atom_type_partial_charge
C1    C     C_R   0.502091 0.265527 0.499368 0.856302
C2    C     C_3   0.083185 0.498645 0.500584 0.076003
C3    C     C_3   0.972264 0.587970 0.585669 -0.119341
C4    C     C_3   0.916870 0.500028 0.499967 0.063518
C5    C     C_3   0.028685 0.607210 0.458371 0.395488
C6    C     C_3   0.973063 0.520819 0.370953 -0.255392
C7    C     C_1   0.174818 0.498792 0.501533 0.040012
C8    C     C_1   0.825225 0.499668 0.498304 0.033561
C9    C     C_2   0.520032 0.934978 0.386561 0.483233
C10   C     C_2   0.515448 0.866903 0.501483 -0.447134
C11   C     C_2   0.540617 0.066728 0.399183 -0.088515
C12   C     C_R   0.339996 0.499713 0.500638 0.813946
C13   C     C_2   0.499758 0.133034 0.496187 -0.473307
C14   C     C_2   0.487135 0.403877 0.923450 -0.179360
C15   C     C_2   0.467479 0.412673 0.075870 0.597684
C16   C     C_R   0.502892 0.734823 0.500025 0.875109
C17   C     C_R   0.660019 0.499951 0.499307 0.790606
C18   C     C_3   0.970536 0.388573 0.542682 -0.249521
C19   C     C_3   0.028287 0.410476 0.414665 -0.241173
C20   C     C_1   0.250339 0.499176 0.501776 -0.167196
C21   C     C_1   0.749692 0.499726 0.497989 -0.158646
C22   C     C_3   0.026223 0.477861 0.626415 0.392244
Cu1   Cu    Cu3+1 0.500020 0.500020 0.638630 0.948160
Cu2   Cu    Cu3+1 0.499980 0.499980 0.361370 1.014604
H1    H     H_    0.052951 0.338095 0.344711 0.161789
H2    H     H_    0.456456 0.089496 0.568492 0.149445
H3    H     H_    0.489706 0.313520 0.876986 0.160963
H4    H     H_    0.476836 0.580753 0.883853 0.259412
H5    H     H_    0.945096 0.298530 0.576734 0.142819
H6    H     H_    0.949530 0.538190 0.266003 0.139073
H7    H     H_    0.525246 0.909070 0.601407 0.133857
N1    N     N_2   0.499090 0.498660 0.846910 -0.285120
N2    N     N_2   0.499070 0.498630 0.153040 -0.032602
O1    O     O_R   0.500010 0.321960 0.617040 -0.582449
O2    O     O_R   0.499990 0.321920 0.382900 -0.543261
O3    O     O_R   0.379090 0.500010 0.617050 -0.575286
O4    O     O_R   0.379060 0.499970 0.382910 -0.554429
O5    O     O_R   0.500010 0.678080 0.617100 -0.592091
O6    O     O_R   0.499990 0.678040 0.382960 -0.510959
O7    O     O_R   0.620940 0.500030 0.617090 -0.552431
O8    O     O_R   0.620910 0.499990 0.382950 -0.636725
O9    O     O_3   0.426698 0.315821 0.141013 -0.581442
C23   C     C_3   0.352722 0.282036 0.070383 0.015269
H8    H     H_    0.368402 0.213958 0.988819 0.142366
H9    H     H_    0.320533 0.362220 0.023539 0.146335
C24   C     C_3   0.290795 0.223371 0.171311 -0.768265
H10   H     H_    0.272393 0.290875 0.251839 0.249796
H11   H     H_    0.233362 0.192736 0.116467 0.197005
H12   H     H_    0.320019 0.143005 0.220997 0.231779
O10   O     O_3   0.531989 0.598216 0.089863 -0.548048
C25   C     C_3   0.618895 0.604754 0.116627 0.215306
H13   H     H_    0.647976 0.512266 0.125594 0.126032
H14   H     H_    0.629346 0.659754 0.211037 0.204182
C26   C     C_3   0.663277 0.670945 0.998773 -0.797746
H15   H     H_    0.636764 0.764274 0.986742 0.268907
H16   H     H_    0.731700 0.679222 0.020201 0.212910
H17   H     H_    0.655162 0.618835 0.901578 0.264756
O11   O     O_3   0.065284 0.719988 0.418266 -0.580625
C27   C     C_3   0.004172 0.793297 0.354754 0.076879
H18   H     H_    0.945479 0.800233 0.418270 0.158339
H19   H     H_    0.988598 0.755183 0.251947 0.146772
C28   C     C_3   0.039652 0.922013 0.335253 -0.778452
H20   H     H_    0.097658 0.918842 0.270289 0.248896
H21   H     H_    0.992322 0.980453 0.284268 0.203204
H22   H     H_    0.055154 0.963102 0.436472 0.246653
C29   C     C_2   0.943973 0.687591 0.681776 0.340362
H23   H     H_    0.990571 0.742651 0.734891 0.096566
O12   O     O_2   0.869084 0.707204 0.700853 -0.550696
O13   O     O_3   0.060563 0.458776 0.757649 -0.578640
C30   C     C_3   0.997318 0.414934 0.848184 0.075175
H24   H     H_    0.979522 0.319232 0.820555 0.147550
H25   H     H_    0.940168 0.473814 0.847002 0.155079
C31   C     C_3   0.031236 0.414818 0.993687 -0.789210
H26   H     H_    0.048142 0.509676 0.025493 0.249600
H27   H     H_    0.982445 0.378381 0.065627 0.198079
H28   H     H_    0.088104 0.356106 0.999025 0.250410
O14   O     O_3   0.512867 0.880741 0.257709 -0.518474
C32   C     C_3   0.446962 0.937103 0.185297 0.114794
H29   H     H_    0.464857 0.032025 0.154736 0.176659
H30   H     H_    0.387750 0.939340 0.248171 0.113031
C33   C     C_3   0.429317 0.864043 0.055346 -0.726189
H31   H     H_    0.407835 0.769992 0.082303 0.266496
H32   H     H_    0.379099 0.909660 0.996053 0.178490
H33   H     H_    0.487233 0.858449 0.990452 0.256677
C34   C     C_2   0.606832 0.120260 0.306795 0.425235
H34   H     H_    0.630062 0.212932 0.322204 0.067757
O15   O     O_2   0.638326 0.059391 0.214213 -0.532454

loop_
_geom_bond_atom_site_label_1
_geom_bond_atom_site_label_2
_ccdc_geom_bond_type
C29   O12   D    
C31   H26   S    
C2    C7    S    
C4    C8    S    
C33   H31   S    
O14   C32   S    
C6    C19   S    
C24   H12   S    
C5    O11   S    
C5    C6    S    
C32   H30   S    
Cu1   O7    S    
Cu2   O6    S    
C18   C19   S    
C12   O4    A    
C28   H21   S    
C26   H15   S    
C10   H7    S    
C2    C22   S    
Cu1   Cu2   S    
C30   H24   S    
C14   H3    S    
C12   O3    A    
C9    C10   D    
C22   O13   S    
C4    C18   S    
C29   H23   S    
C27   H18   S    
Cu2   O8    S    
C31   H27   S    
C33   H32   S    
C1    O1    A    
O10   C25   S    
C24   H11   S    
C34   O15   D    
C26   H16   S    
C27   H19   S    
Cu2   O2    S    
C25   H13   S    
H4    N1    S    
C4    C6    S    
C32   H29   S    
N2    O10   S    
C34   H34   S    
C17   C21   S    
C25   H14   S    
C17   O7    A    
C23   H8    S    
C28   H20   S    
C9    C11   S    
Cu1   O1    S    
C12   C20   S    
C30   C31   S    
Cu2   O4    S    
C18   H5    S    
C9    O14   S    
C23   H9    S    
C6    H6    S    
Cu1   O3    S    
C31   H28   S    
C13   H2    S    
C3    C29   S    
C1    C13   S    
O9    C23   S    
C3    C4    S    
C33   H33   S    
C1    O2    A    
C24   H10   S    
C27   C28   S    
C28   H22   S    
C2    C19   S    
C18   C22   S    
C15   O9    S    
C14   N1    D    
C3    C5    S    
C8    C21   T    
Cu1   O5    S    
Cu2   N2    S    
C25   C26   S    
Cu1   N1    S    
O11   C27   S    
C10   C16   S    
C11   C13   D    
C32   C33   S    
C11   C34   S    
O13   C30   S    
C19   H1    S    
C23   C24   S    
C17   O8    A    
C16   O6    A    
C2    C5    S    
C7    C20   T    
C14   C15   S    
C3    C22   S    
C30   H25   S    
C15   N2    D    
C16   O5    A    
C26   H17   S    
