data_mof_unit_43724.cif
_audit_creation_date              2012-12-11T17:08:32-0500
_audit_creation_method            fapswitch 2.2
_symmetry_space_group_name_H-M    P1
_symmetry_Int_Tables_number       1
_space_group_crystal_system       triclinic
_cell_length_a                    6.957007
_cell_length_b                    14.548751
_cell_length_c                    16.062091
_cell_angle_alpha                 89.976349
_cell_angle_beta                  90.103288
_cell_angle_gamma                 90.095241
_cell_volume                      1625.73176447

loop_
_atom_site_label
_atom_site_type_symbol
_atom_type_description
_atom_site_fract_x
_atom_site_fract_y
_atom_site_fract_z
_atom_type_partial_charge
O1    O     O_R   0.505700 0.583890 0.413310 -0.540169
O2    O     O_R   0.175960 0.594920 0.586080 -0.549531
O3    O     O_R   0.005660 0.416110 0.586690 -0.548957
C1    C     C_R   0.344792 0.616243 0.615355 0.700847
O4    O     O_R   0.175980 0.594920 0.413930 -0.544710
O5    O     O_R   0.005680 0.416110 0.413310 -0.541987
C2    C     C_R   0.344715 0.616962 0.385174 0.684743
O6    O     O_R   0.505680 0.583890 0.586690 -0.535333
O7    O     O_3   0.339200 0.441330 0.500000 -0.362113
V1    V     V_3+5 0.064350 0.510880 0.500000 1.384780
O8    O     O_R   0.675960 0.405080 0.413920 -0.539598
C3    C     C_R   0.844917 0.383009 0.385171 0.683173
O9    O     O_R   0.675940 0.405080 0.586070 -0.508348
C4    C     C_R   0.844789 0.382182 0.614077 0.752913
V2    V     V_3+5 0.564340 0.489120 0.500000 1.446441
O10   O     O_3   0.839360 0.558670 0.500000 -0.377647
C5    C     C_R   0.994109 0.321046 0.744987 0.009212
C6    C     C_R   0.852564 0.314556 0.683121 -0.182463
C7    C     C_R   0.712938 0.244025 0.691710 0.460204
C8    C     C_R   0.722305 0.182039 0.759494 -0.261567
H1    H     H_    0.615121 0.128192 0.764041 0.136118
C9    C     C_R   0.875905 0.184972 0.816896 -0.163289
C10   C     C_R   0.006728 0.257601 0.809488 0.093521
C11   C     C_3   0.221089 0.257439 0.807033 -0.370661
C12   C     C_3   0.207067 0.327571 0.737026 -0.357004
H2    H     H_    0.280459 0.190249 0.786638 0.180454
H3    H     H_    0.285467 0.285979 0.864906 0.166494
H4    H     H_    0.257318 0.301610 0.675944 0.228078
H5    H     H_    0.262491 0.396593 0.754649 0.163673
C13   C     C_R   0.729224 0.181504 0.242454 0.097822
C14   C     C_R   0.882386 0.182070 0.185833 -0.110711
C15   C     C_R   0.033301 0.244525 0.201119 -0.177752
H6    H     H_    0.155305 0.247214 0.159657 0.132278
C16   C     C_R   0.021861 0.308751 0.266593 -0.176315
H7    H     H_    0.136014 0.358694 0.273688 0.125716
C17   C     C_R   0.858923 0.312660 0.318632 -0.107969
C18   C     C_R   0.717584 0.245212 0.307057 0.093231
C19   C     C_3   0.505963 0.255551 0.296454 -0.406247
C20   C     C_3   0.518506 0.185757 0.226296 -0.396128
H8    H     H_    0.466461 0.325577 0.274817 0.167394
H9    H     H_    0.424805 0.230002 0.351367 0.172224
H10   H     H_    0.485545 0.215053 0.163979 0.172351
H11   H     H_    0.445216 0.119717 0.240783 0.165761
C21   C     C_R   0.491385 0.676090 0.748857 0.096632
C22   C     C_R   0.351684 0.681678 0.685999 -0.168592
C23   C     C_R   0.206500 0.748502 0.696752 -0.195328
H12   H     H_    0.088959 0.753248 0.652706 0.126622
C24   C     C_R   0.217113 0.813352 0.762155 -0.185829
H13   H     H_    0.107458 0.865862 0.766300 0.121704
C25   C     C_R   0.373870 0.813621 0.818255 -0.096902
C26   C     C_R   0.503097 0.740748 0.811716 0.034260
C27   C     C_3   0.715734 0.733788 0.817945 -0.457693
C28   C     C_3   0.703384 0.659727 0.750014 0.328715
H14   H     H_    0.762308 0.707760 0.879849 0.188941
H15   H     H_    0.788739 0.797548 0.796709 0.137845
H16   H     H_    0.773910 0.677017 0.689738 0.059084
C29   C     C_R   0.509051 0.747677 0.310793 0.099765
C30   C     C_R   0.352710 0.687512 0.318629 -0.108840
C31   C     C_R   0.200285 0.697895 0.261583 -0.178713
H17   H     H_    0.077088 0.652802 0.264959 0.130115
C32   C     C_R   0.211928 0.761803 0.195766 -0.177748
H18   H     H_    0.096281 0.764858 0.150814 0.130584
C33   C     C_R   0.376964 0.816726 0.184720 -0.109449
C34   C     C_R   0.520959 0.810627 0.245478 0.096499
C35   C     C_3   0.730902 0.794645 0.235082 -0.412921
C36   C     C_3   0.718023 0.726438 0.306507 -0.396698
H19   H     H_    0.817421 0.856713 0.250355 0.171166
H20   H     H_    0.764346 0.761851 0.174344 0.171885
H21   H     H_    0.796483 0.749221 0.363227 0.171772
H22   H     H_    0.744784 0.654166 0.287357 0.166696
O11   O     O_R   0.229000 0.916070 0.913330 -0.540955
O12   O     O_R   0.558770 0.905070 0.086080 -0.539053
O13   O     O_R   0.729000 0.083900 0.086690 -0.536398
C37   C     C_R   0.389755 0.882858 0.114694 0.696836
O14   O     O_R   0.558720 0.905070 0.913930 -0.539502
O15   O     O_R   0.728960 0.083900 0.913310 -0.539218
C38   C     C_R   0.389310 0.883469 0.884937 0.702487
O16   O     O_R   0.229050 0.916070 0.086710 -0.539475
O17   O     O_3   0.395460 0.058650 0.000020 -0.370674
V3    V     V_3+5 0.670340 0.989120 0.000000 1.396046
O18   O     O_R   0.058670 0.094960 0.913900 -0.541783
C39   C     C_R   0.889665 0.116400 0.884774 0.719063
O19   O     O_R   0.058720 0.094960 0.086050 -0.543369
C40   C     C_R   0.890090 0.116826 0.114962 0.696991
V4    V     V_3+5 0.170330 0.010930 0.999970 1.390067
O20   O     O_3   0.895340 0.941350 0.999980 -0.370255
O21   O     O_3   0.569300 0.233312 0.633038 -0.558065
C41   C     C_3   0.635303 0.172958 0.570716 -0.265610
H23   H     H_    0.520720 0.165222 0.523094 0.158557
H24   H     H_    0.665840 0.103514 0.596636 0.129240
H25   H     H_    0.764738 0.200861 0.538724 0.116872
O22   O     O_3   0.742471 0.570973 0.781299 -0.543192
C42   C     C_3   0.942686 0.556647 0.782796 -0.239786
H26   H     H_    0.021963 0.614355 0.812798 0.145080
H27   H     H_    0.996982 0.544912 0.718867 0.153280
H28   H     H_    0.972675 0.494227 0.820126 0.160318

loop_
_geom_bond_atom_site_label_1
_geom_bond_atom_site_label_2
_ccdc_geom_bond_type
O21   C41   S    
C42   H26   S    
C4    C6    S    
C7    C8    A    
C11   H3    S    
O11   C38   A    
C29   C36   S    
C1    O6    A    
O18   C39   A    
C36   H22   S    
V4    O20   S    
C27   C28   S    
C12   H4    S    
C5    C10   A    
C9    C39   S    
C17   C18   A    
C11   H2    S    
C16   H7    S    
C7    O21   S    
O5    C3    A    
C13   C14   A    
C36   H21   S    
V2    O10   S    
C6    C7    A    
C32   C33   A    
V3    O20   S    
O11   V4    S    
O8    V2    S    
C21   C28   S    
C14   C15   A    
C35   H19   S    
C10   C11   S    
O1    V2    S    
C3    C17   S    
O14   V3    S    
O13   C40   A    
C27   H15   S    
C24   C25   A    
C31   H17   S    
C42   H27   S    
O9    C4    A    
C27   H14   S    
C25   C26   A    
C20   H10   S    
C1    C22   S    
C12   H5    S    
C23   C24   A    
C31   C32   A    
C26   C27   S    
C11   C12   S    
C19   H9    S    
O12   C37   A    
O15   C39   A    
O4    C2    A    
C20   H11   S    
C30   C31   A    
C22   C23   A    
C14   C40   S    
O17   V3    S    
C13   C18   A    
C15   C16   A    
O2    C1    A    
C18   C19   S    
O19   C40   A    
C41   H25   S    
C35   H20   S    
C28   O22   S    
C5    C6    A    
C8    H1    S    
O14   C38   A    
O3    C4    A    
C21   C26   A    
C24   H13   S    
O19   V4    S    
C41   H24   S    
C42   H28   S    
O9    V2    S    
O2    V1    S    
C25   C38   S    
O17   V4    S    
C21   C22   A    
O16   V4    S    
C29   C34   A    
O7    V1    S    
C28   H16   S    
C23   H12   S    
C2    C30   S    
O1    C2    A    
O15   V3    S    
C8    C9    A    
O5    V1    S    
O8    C3    A    
C33   C37   S    
O6    V2    S    
C5    C12   S    
C15   H6    S    
O7    V2    S    
O4    V1    S    
O12   V3    S    
O3    V1    S    
V1    O10   S    
C34   C35   S    
C19   H8    S    
C29   C30   A    
C19   C20   S    
O22   C42   S    
O13   V3    S    
C13   C20   S    
C16   C17   A    
C32   H18   S    
C33   C34   A    
C41   H23   S    
C35   C36   S    
C37   O16   A    
C9    C10   A    
O18   V4    S    
