data_mof_unit_16650.cif
_audit_creation_date              2012-12-10T19:46:35-0500
_audit_creation_method            fapswitch 2.2
_symmetry_space_group_name_H-M    P1
_symmetry_Int_Tables_number       1
_space_group_crystal_system       triclinic
_cell_length_a                    12.831391
_cell_length_b                    14.888062
_cell_length_c                    14.249094
_cell_angle_alpha                 87.21579
_cell_angle_beta                  96.926931
_cell_angle_gamma                 90.852097
_cell_volume                      2698.89886741

loop_
_atom_site_label
_atom_site_type_symbol
_atom_type_description
_atom_site_fract_x
_atom_site_fract_y
_atom_site_fract_z
_atom_type_partial_charge
C1    C     C_R   0.497963 0.327833 0.501562 0.892711
C2    C     C_R   0.495010 0.672362 0.497667 0.886451
C3    C     C_R   0.483892 0.232191 0.503132 -0.122563
C4    C     C_R   0.477764 0.768251 0.492650 -0.128257
C5    C     C_R   0.402838 0.194191 0.441520 0.468911
C6    C     C_R   0.411590 0.806120 0.552222 0.474761
C7    C     C_R   0.394140 0.101283 0.439563 -0.279297
C8    C     C_R   0.405954 0.899345 0.553657 -0.287259
C9    C     C_R   0.463306 0.048082 0.500492 0.063256
C10   C     C_R   0.460296 0.952652 0.492621 0.068471
C11   C     C_R   0.403811 0.461195 0.102171 -0.365500
C12   C     C_R   0.432352 0.571722 0.877444 -0.338120
C13   C     C_R   0.417410 0.457810 0.202341 -0.025629
C14   C     C_R   0.448104 0.568917 0.781152 -0.023899
C15   C     C_R   0.569302 0.550233 0.202071 0.246749
C16   C     C_R   0.534490 0.429443 0.810937 0.234229
C17   C     C_R   0.548877 0.565519 0.101168 0.078152
C18   C     C_R   0.523790 0.431319 0.910468 0.104835
C19   C     C_R   0.470514 0.514109 0.049810 0.092366
C20   C     C_R   0.471321 0.503977 0.944144 0.092128
C21   C     C_R   0.298678 0.503763 0.481183 0.876377
C22   C     C_R   0.701895 0.496978 0.518835 0.860638
C23   C     C_R   0.814607 0.489528 0.531206 -0.102054
C24   C     C_R   0.187033 0.512361 0.469134 -0.110549
C25   C     C_R   0.026111 0.584913 0.404073 -0.200710
C26   C     C_R   0.976559 0.418058 0.596550 -0.197535
C27   C     C_R   0.134231 0.575196 0.402659 0.130293
C28   C     C_R   0.868082 0.425284 0.595763 0.158243
C29   C     C_R   0.134468 0.460679 0.532502 -0.314997
C30   C     C_R   0.868111 0.543819 0.470475 -0.323418
C31   C     C_R   0.028474 0.470608 0.532910 0.130823
C32   C     C_R   0.974196 0.533595 0.469146 0.135790
C33   C     C_R   0.541637 0.085857 0.563563 -0.156690
C34   C     C_R   0.518893 0.915052 0.428600 -0.158803
C35   C     C_R   0.552422 0.178333 0.564372 -0.303603
C36   C     C_R   0.527798 0.822776 0.428830 -0.294227
H1    H     H_    0.826693 0.593499 0.422972 0.161328
H2    H     H_    0.176978 0.412775 0.582405 0.149818
H3    H     H_    0.981297 0.631792 0.355246 0.152421
H4    H     H_    0.021441 0.370940 0.645037 0.151209
H5    H     H_    0.596097 0.043680 0.609538 0.150091
H6    H     H_    0.561071 0.957305 0.381530 0.150454
H7    H     H_    0.615783 0.207741 0.610430 0.164425
H8    H     H_    0.577368 0.794765 0.382241 0.168398
H9    H     H_    0.335007 0.070827 0.389807 0.153214
H10   H     H_    0.361704 0.930111 0.603561 0.144818
H11   H     H_    0.341955 0.421326 0.065432 0.163871
H12   H     H_    0.391395 0.628323 0.900195 0.158974
H13   H     H_    0.362406 0.419114 0.240110 0.176578
H14   H     H_    0.416076 0.622126 0.732761 0.216482
N1    N     N_R   0.500000 0.499980 0.252470 -0.108345
N2    N     N_R   0.500000 0.500020 0.747530 -0.124042
O1    O     O_R   0.500010 0.369070 0.579480 -0.645522
O2    O     O_R   0.499990 0.630930 0.420520 -0.626658
O3    O     O_R   0.500010 0.369060 0.420520 -0.571859
O4    O     O_R   0.499990 0.630940 0.579480 -0.579200
O5    O     O_R   0.346360 0.499990 0.566340 -0.614761
O6    O     O_R   0.653640 0.500010 0.433660 -0.620869
O7    O     O_R   0.346360 0.499980 0.407390 -0.637077
O8    O     O_R   0.653640 0.500020 0.592610 -0.636727
Zn1   Zn    Zn3+2 0.500000 0.500010 0.606140 0.938984
Zn2   Zn    Zn3+2 0.500000 0.499990 0.393860 0.951609
C37   C     C_3   0.676476 0.579114 0.248037 -0.359584
C38   C     C_3   0.676226 0.669821 0.293357 -0.871828
H15   H     H_    0.611993 0.712875 0.257648 0.245587
H16   H     H_    0.668419 0.660845 0.369435 0.279481
H17   H     H_    0.752016 0.705451 0.287426 0.222585
H18   H     H_    0.714379 0.525000 0.294514 0.222022
H19   H     H_    0.732403 0.585230 0.194762 0.181423
C39   C     C_3   0.579264 0.346170 0.776201 -0.388865
C40   C     C_3   0.496232 0.270582 0.765840 -0.849316
H20   H     H_    0.457072 0.258961 0.830557 0.231660
H21   H     H_    0.432944 0.286963 0.707876 0.279040
H22   H     H_    0.533864 0.206794 0.752115 0.246728
H23   H     H_    0.612108 0.361812 0.710354 0.239569
H24   H     H_    0.648977 0.322658 0.824190 0.187711
C41   C     C_3   0.603331 0.642400 0.049837 -0.409868
C42   C     C_3   0.692182 0.613302 0.995555 -0.857243
H25   H     H_    0.753245 0.575393 0.042212 0.243513
H26   H     H_    0.662566 0.572139 0.935343 0.275420
H27   H     H_    0.730103 0.674141 0.966089 0.246744
H28   H     H_    0.544329 0.679931 0.000263 0.207530
H29   H     H_    0.635380 0.693467 0.099744 0.214822
C43   C     C_3   0.571314 0.357643 0.981451 -0.412789
C44   C     C_3   0.684772 0.378799 0.019813 -0.884285
H30   H     H_    0.730766 0.402040 0.961872 0.255479
H31   H     H_    0.687201 0.430800 0.072969 0.269639
H32   H     H_    0.722054 0.317411 0.055606 0.250190
H33   H     H_    0.525005 0.346580 0.041661 0.219503
H34   H     H_    0.569260 0.290702 0.951340 0.213339
C45   C     C_3   0.808587 0.365088 0.660452 -0.395030
C46   C     C_3   0.869341 0.286480 0.713115 -0.931225
H35   H     H_    0.902564 0.243798 0.662429 0.265154
H36   H     H_    0.932847 0.311456 0.765639 0.261308
H37   H     H_    0.815044 0.244334 0.752074 0.252255
H38   H     H_    0.780887 0.407710 0.714051 0.214859
H39   H     H_    0.740307 0.335507 0.616773 0.193194
C47   C     C_3   0.194246 0.631028 0.333741 -0.366132
C48   C     C_3   0.133749 0.708391 0.278517 -0.930262
H40   H     H_    0.067976 0.682104 0.229179 0.260768
H41   H     H_    0.103548 0.754422 0.327845 0.256459
H42   H     H_    0.187252 0.747402 0.235819 0.259780
H43   H     H_    0.264970 0.661072 0.373587 0.202469
H44   H     H_    0.220977 0.585756 0.281869 0.223989
O9    O     O_3   0.337057 0.247412 0.378599 -0.608194
C49   C     C_3   0.242561 0.259398 0.417707 0.085887
H45   H     H_    0.257330 0.298620 0.482633 0.125317
H46   H     H_    0.205218 0.193662 0.435520 0.130027
C50   C     C_3   0.165791 0.311026 0.345757 -0.808438
H47   H     H_    0.147112 0.271747 0.281483 0.247411
H48   H     H_    0.092082 0.322950 0.376682 0.214064
H49   H     H_    0.200354 0.376817 0.325335 0.257075
O10   O     O_3   0.359796 0.752128 0.613921 -0.624684
C51   C     C_3   0.250512 0.756067 0.585675 0.067522
H50   H     H_    0.231278 0.738428 0.510511 0.141268
H51   H     H_    0.219791 0.824181 0.594840 0.141145
C52   C     C_3   0.194776 0.689030 0.646932 -0.815466
H52   H     H_    0.109064 0.689493 0.623331 0.215901
H53   H     H_    0.224702 0.620283 0.641085 0.270595
H54   H     H_    0.208573 0.707193 0.722123 0.245091

loop_
_geom_bond_atom_site_label_1
_geom_bond_atom_site_label_2
_ccdc_geom_bond_type
O6    Zn2   S    
C4    C36   A    
C27   C47   S    
C11   H11   S    
C19   C20   S    
C34   H6    S    
C24   C27   A    
C12   H12   S    
C51   H50   S    
C5    O9    S    
C41   C42   S    
C11   C19   A    
C7    H9    S    
C21   O7    A    
N2    Zn1   S    
C52   H53   S    
C22   O8    A    
C42   H26   S    
C49   H45   S    
C41   H29   S    
C47   H43   S    
O3    Zn2   S    
C7    C9    A    
C1    O1    A    
C24   C29   A    
C33   C35   A    
C45   H38   S    
C13   N1    A    
O1    Zn1   S    
C14   N2    A    
C37   H19   S    
C29   H2    S    
C18   C43   S    
C39   C40   S    
C15   N1    A    
C35   H7    S    
C9    C10   S    
C18   C20   A    
C25   C32   A    
C26   C31   A    
C52   H54   S    
C9    C33   A    
N1    Zn2   S    
C43   H34   S    
C17   C41   S    
C44   H31   S    
C23   C30   A    
C16   C39   S    
C43   C44   S    
C4    C6    A    
C2    O2    A    
C50   H49   S    
C45   C46   S    
C5    C7    A    
C42   H25   S    
C6    C8    A    
O2    Zn2   S    
C44   H30   S    
C46   H37   S    
C30   H1    S    
O8    Zn1   S    
C1    C3    S    
C38   H16   S    
C2    C4    S    
C38   H17   S    
C6    O10   S    
C21   O5    A    
C31   C32   A    
C3    C35   A    
C12   C20   A    
C46   H36   S    
C10   C34   A    
C23   C28   A    
C45   H39   S    
C13   H13   S    
C16   C18   A    
C48   H41   S    
C12   C14   A    
C39   H24   S    
C36   H8    S    
C43   H33   S    
C40   H21   S    
O10   C51   S    
C44   H32   S    
C15   C17   A    
C37   H18   S    
O7    Zn2   S    
C22   C23   S    
C16   N2    A    
C3    C5    A    
C22   O6    A    
C40   H22   S    
C51   H51   S    
O5    Zn1   S    
C25   C27   A    
O9    C49   S    
C26   C28   A    
C48   H40   S    
C33   H5    S    
C38   H15   S    
C50   H48   S    
C1    O3    A    
C40   H20   S    
C29   C31   A    
C2    O4    A    
C50   H47   S    
C25   H3    S    
C30   C32   A    
C11   C13   A    
C42   H27   S    
C26   H4    S    
C14   H14   S    
C49   H46   S    
C41   H28   S    
C47   H44   S    
C46   H35   S    
C17   C19   A    
C28   C45   S    
C34   C36   A    
C8    H10   S    
C51   C52   S    
C37   C38   S    
C48   H42   S    
C8    C10   A    
C47   C48   S    
C21   C24   S    
C39   H23   S    
C15   C37   S    
O4    Zn1   S    
C52   H52   S    
C49   C50   S    
