data_mof_unit_15970.cif
_audit_creation_date              2012-12-10T20:21:44-0500
_audit_creation_method            fapswitch 2.2
_symmetry_space_group_name_H-M    P1
_symmetry_Int_Tables_number       1
_space_group_crystal_system       triclinic
_cell_length_a                    19.162734
_cell_length_b                    18.493118
_cell_length_c                    8.878371
_cell_angle_alpha                 89.956865
_cell_angle_beta                  90.154727
_cell_angle_gamma                 89.257269
_cell_volume                      3146.02878243

loop_
_atom_site_label
_atom_site_type_symbol
_atom_type_description
_atom_site_fract_x
_atom_site_fract_y
_atom_site_fract_z
_atom_type_partial_charge
C1    C     C_R   0.365821 0.500492 0.499076 0.848566
C2    C     C_R   0.538399 0.197614 0.607997 -0.281008
C3    C     C_R   0.500170 0.841315 0.500197 0.120576
C4    C     C_R   0.500127 0.158636 0.500108 0.120053
C5    C     C_R   0.440191 0.962696 0.458364 -0.183806
C6    C     C_R   0.560157 0.037056 0.542001 -0.183743
C7    C     C_R   0.560122 0.961075 0.542285 -0.183591
C8    C     C_R   0.440137 0.038672 0.458553 -0.183486
C9    C     C_R   0.500144 0.077224 0.500225 0.123905
C10   C     C_R   0.500164 0.922616 0.500318 0.123055
C11   C     C_R   0.499828 0.500029 0.218509 0.915505
C12   C     C_R   0.634159 0.499442 0.498877 0.850893
C13   C     C_R   0.499935 0.499991 0.781471 0.941524
C14   C     C_1   0.499675 0.500088 0.065353 -0.239105
C15   C     C_1   0.499731 0.500024 0.934550 -0.220645
C16   C     C_R   0.736804 0.480792 0.335501 0.070202
C17   C     C_R   0.262530 0.517816 0.335471 0.070734
C18   C     C_R   0.247131 0.487374 0.603251 0.066186
C19   C     C_R   0.753254 0.511237 0.603061 0.064111
C20   C     C_R   0.808736 0.480698 0.316467 -0.227826
C21   C     C_R   0.190589 0.516511 0.316306 -0.226268
C22   C     C_R   0.175130 0.489513 0.581362 -0.234428
C23   C     C_R   0.535146 0.725417 0.609815 0.022242
C24   C     C_R   0.825175 0.508163 0.581187 -0.234174
C25   C     C_R   0.852350 0.493607 0.438553 0.102461
C26   C     C_R   0.147429 0.503452 0.438583 0.102526
C27   C     C_R   0.708928 0.497599 0.479188 -0.065453
C28   C     C_R   0.290978 0.501894 0.479471 -0.066658
C29   C     C_R   0.959919 0.563932 0.406700 0.057505
C30   C     C_R   0.039766 0.432861 0.408718 0.057002
C31   C     C_R   0.033418 0.566797 0.409660 0.053672
C32   C     C_R   0.966261 0.430025 0.411274 0.053341
C33   C     C_R   0.072177 0.501147 0.416314 -0.021601
C34   C     C_R   0.462407 0.274529 0.394228 0.023526
C35   C     C_R   0.927528 0.495699 0.416034 -0.021411
C36   C     C_3   0.692181 0.462121 0.200386 -0.419827
C37   C     C_3   0.688950 0.379910 0.179624 -0.317025
C38   C     C_3   0.646425 0.359914 0.040516 -0.879401
C39   C     C_3   0.306467 0.536638 0.199868 -0.417887
C40   C     C_3   0.303307 0.618207 0.169255 -0.339284
C41   C     C_3   0.348804 0.638564 0.035347 -0.877478
C42   C     C_3   0.275074 0.469049 0.758622 -0.438595
C43   C     C_3   0.281575 0.386888 0.778972 -0.314438
C44   C     C_3   0.306595 0.367171 0.937297 -0.899387
C45   C     C_R   0.465121 0.726593 0.390097 0.018985
C46   C     C_3   0.725866 0.529292 0.758609 -0.435059
C47   C     C_3   0.720213 0.611409 0.779860 -0.326846
C48   C     C_3   0.693195 0.630766 0.936456 -0.901157
C49   C     C_3   0.915301 0.632733 0.388527 -0.409403
C50   C     C_3   0.900647 0.647710 0.221314 -0.338826
C51   C     C_3   0.852016 0.712958 0.200743 -0.896726
C52   C     C_3   0.084372 0.363965 0.392948 -0.409788
C53   C     C_3   0.099379 0.348248 0.226403 -0.336235
C54   C     C_3   0.148314 0.283120 0.208374 -0.901674
C55   C     C_3   0.070724 0.639359 0.413192 -0.410786
C56   C     C_R   0.537692 0.273540 0.605764 0.020674
C57   C     C_3   0.078606 0.666629 0.575456 -0.334544
C58   C     C_3   0.115228 0.739347 0.579897 -0.895045
C59   C     C_3   0.928887 0.357533 0.415889 -0.410017
C60   C     C_3   0.921150 0.330807 0.578581 -0.334277
C61   C     C_3   0.884561 0.258090 0.584032 -0.898324
C62   C     C_R   0.536000 0.801328 0.611888 -0.281335
C63   C     C_R   0.461819 0.198622 0.392119 -0.281853
C64   C     C_R   0.464370 0.802511 0.388272 -0.280402
H1    H     H_    0.831137 0.469533 0.206710 0.126505
H2    H     H_    0.432327 0.171609 0.305097 0.133718
H3    H     H_    0.436857 0.830499 0.298455 0.134450
H4    H     H_    0.567938 0.169825 0.695055 0.133290
H5    H     H_    0.392627 0.935306 0.427751 0.129289
H6    H     H_    0.607845 0.064297 0.572178 0.128479
H7    H     H_    0.607691 0.932400 0.572914 0.129163
H8    H     H_    0.392439 0.067190 0.428345 0.128638
H9    H     H_    0.591373 0.377913 0.053862 0.279167
H10   H     H_    0.668686 0.385206 0.938128 0.251860
H11   H     H_    0.647408 0.300301 0.025743 0.242992
H12   H     H_    0.167802 0.526888 0.206288 0.126343
H13   H     H_    0.742661 0.357288 0.166919 0.208577
H14   H     H_    0.664892 0.354853 0.280449 0.242679
H15   H     H_    0.638962 0.485215 0.210991 0.201050
H16   H     H_    0.714754 0.486888 0.097892 0.197192
H17   H     H_    0.331395 0.609912 0.932314 0.260500
H18   H     H_    0.344627 0.697714 0.015154 0.244457
H19   H     H_    0.404270 0.624528 0.058479 0.273239
H20   H     H_    0.248584 0.635275 0.144929 0.212457
H21   H     H_    0.321305 0.647933 0.270578 0.228162
H22   H     H_    0.361273 0.518899 0.214950 0.200324
H23   H     H_    0.140356 0.478524 0.674555 0.133176
H24   H     H_    0.286756 0.507241 0.099911 0.198023
H25   H     H_    0.356982 0.393718 0.962578 0.269510
H26   H     H_    0.267020 0.384012 0.021887 0.258575
H27   H     H_    0.314276 0.307694 0.945663 0.250801
H28   H     H_    0.230076 0.361505 0.759015 0.212157
H29   H     H_    0.319277 0.364424 0.695851 0.243642
H30   H     H_    0.326554 0.494371 0.778225 0.191240
H31   H     H_    0.239146 0.491724 0.845239 0.194253
H32   H     H_    0.731029 0.612438 0.023904 0.263591
H33   H     H_    0.686671 0.690345 0.945614 0.249161
H34   H     H_    0.860312 0.518825 0.674291 0.133143
H35   H     H_    0.641859 0.605292 0.956767 0.269657
H36   H     H_    0.772341 0.636036 0.764342 0.214946
H37   H     H_    0.684084 0.634810 0.694198 0.233697
H38   H     H_    0.674227 0.504312 0.777899 0.189461
H39   H     H_    0.761791 0.506029 0.845050 0.192316
H40   H     H_    0.801030 0.703007 0.255770 0.266739
H41   H     H_    0.875788 0.762028 0.250129 0.259993
H42   H     H_    0.842745 0.722457 0.078761 0.250778
H43   H     H_    0.950422 0.657923 0.161514 0.211378
H44   H     H_    0.875936 0.599906 0.168717 0.222832
H45   H     H_    0.562526 0.695179 0.696502 0.129621
H46   H     H_    0.865091 0.628781 0.449281 0.211023
H47   H     H_    0.939747 0.680349 0.441340 0.195978
H48   H     H_    0.199174 0.293587 0.264109 0.264218
H49   H     H_    0.124668 0.234179 0.258558 0.260469
H50   H     H_    0.157815 0.273049 0.086819 0.251128
H51   H     H_    0.049742 0.337517 0.165933 0.211390
H52   H     H_    0.123984 0.395898 0.173083 0.222475
H53   H     H_    0.134420 0.368177 0.454788 0.210132
H54   H     H_    0.059787 0.316563 0.446145 0.196204
H55   H     H_    0.168246 0.734322 0.530343 0.263990
H56   H     H_    0.432876 0.304758 0.310765 0.127859
H57   H     H_    0.084504 0.780591 0.516222 0.258363
H58   H     H_    0.120318 0.757564 0.698511 0.248379
H59   H     H_    0.026577 0.672556 0.629227 0.210351
H60   H     H_    0.109708 0.626936 0.642442 0.227881
H61   H     H_    0.122971 0.635610 0.360833 0.203892
H62   H     H_    0.043451 0.680262 0.342375 0.194986
H63   H     H_    0.831500 0.262924 0.533985 0.263253
H64   H     H_    0.915250 0.216645 0.521324 0.259188
H65   H     H_    0.879578 0.240265 0.702927 0.247892
H66   H     H_    0.973218 0.325085 0.632886 0.210586
H67   H     H_    0.438039 0.697291 0.302989 0.131322
H68   H     H_    0.890085 0.370710 0.644613 0.227218
H69   H     H_    0.876570 0.361230 0.363158 0.203510
H70   H     H_    0.956052 0.316383 0.345925 0.195057
H71   H     H_    0.567199 0.302996 0.689155 0.128555
H72   H     H_    0.563655 0.828411 0.701633 0.134258
N1    N     N_R   0.500000 0.689440 0.500000 -0.089200
N2    N     N_R   0.500000 0.310560 0.500000 -0.092100
O1    O     O_R   0.398180 0.560840 0.499960 -0.616026
O2    O     O_R   0.601820 0.439160 0.500040 -0.622936
O3    O     O_R   0.601820 0.560840 0.500040 -0.618985
O4    O     O_R   0.398180 0.439160 0.499960 -0.622908
O5    O     O_R   0.500000 0.560800 0.285330 -0.620795
O6    O     O_R   0.500000 0.439200 0.714670 -0.619420
O7    O     O_R   0.500000 0.560800 0.714670 -0.619880
O8    O     O_R   0.500000 0.439200 0.285330 -0.620091
Zn1   Zn    Zn3+2 0.500000 0.581210 0.500000 0.934459
Zn2   Zn    Zn3+2 0.500000 0.418790 0.500000 0.928675

loop_
_geom_bond_atom_site_label_1
_geom_bond_atom_site_label_2
_ccdc_geom_bond_type
C12   O2    A    
C7    C10   A    
C21   C26   A    
C47   H37   S    
C40   H20   S    
C13   O7    A    
O6    Zn2   S    
C60   H68   S    
C6    C9    A    
C19   C46   S    
C29   C49   S    
C53   C54   S    
O5    Zn1   S    
C48   H33   S    
C46   H38   S    
C4    C63   A    
O1    Zn1   S    
C24   H34   S    
C36   C37   S    
C2    H4    S    
C18   C42   S    
C7    H7    S    
C11   C14   S    
C20   C25   A    
C41   H19   S    
C54   H49   S    
C12   O3    A    
C17   C39   S    
C13   O6    A    
C62   H72   S    
C34   C63   A    
C5    H5    S    
C1    O4    A    
C23   C62   A    
C55   H61   S    
N2    Zn2   S    
C8    C9    A    
C1    C28   S    
C31   C33   A    
C19   C27   A    
C1    O1    A    
C53   H52   S    
C61   H65   S    
C49   H47   S    
C52   H53   S    
C16   C27   A    
C63   H2    S    
C59   C60   S    
C18   C22   A    
C50   H44   S    
O2    Zn2   S    
C39   H24   S    
O7    Zn1   S    
C23   N1    A    
O8    Zn2   S    
C38   H11   S    
C34   H56   S    
C23   H45   S    
C58   H58   S    
C8    H8    S    
C12   C27   S    
C42   H31   S    
C32   C35   A    
O4    Zn2   S    
C20   H1    S    
C18   C28   A    
C24   C25   A    
C36   H16   S    
C60   H66   S    
C39   C40   S    
C51   H40   S    
C3    C64   A    
C37   H13   S    
C59   H69   S    
C17   C21   A    
C47   H36   S    
C60   C61   S    
C40   H21   S    
C2    C4    A    
C43   C44   S    
C64   H3    S    
C37   C38   S    
C57   H59   S    
C56   N2    A    
C26   C33   S    
C47   C48   S    
C21   H12   S    
C55   H62   S    
C51   H41   S    
C41   H17   S    
C45   N1    A    
C50   C51   S    
C54   H48   S    
C61   H63   S    
C16   C20   A    
C22   H23   S    
C44   H27   S    
C25   C35   S    
C40   C41   S    
C45   H67   S    
C55   C57   S    
C50   H43   S    
C42   C43   S    
C56   H71   S    
C44   H26   S    
C52   C53   S    
C38   H10   S    
C3    C62   A    
C6    H6    S    
C48   H35   S    
C30   C52   S    
C46   C47   S    
C58   H57   S    
C48   H32   S    
C30   C33   A    
C42   H30   S    
C17   C28   A    
N1    Zn1   S    
C36   H15   S    
C5    C8    A    
C11   O8    A    
C6    C7    A    
C37   H14   S    
C29   C35   A    
C45   C64   A    
C43   H28   S    
C32   C59   S    
C13   C15   S    
C19   C24   A    
C5    C10   A    
C29   C31   A    
C3    C10   S    
C2    C56   A    
C16   C36   S    
C57   H60   S    
C30   C32   A    
C57   C58   S    
C51   H42   S    
C41   H18   S    
C54   H50   S    
C58   H55   S    
C43   H29   S    
C34   N2    A    
C61   H64   S    
C46   H39   S    
O3    Zn1   S    
C49   C50   S    
C22   C26   A    
C14   C15   T    
C39   H22   S    
C31   C55   S    
C4    C9    S    
C11   O5    A    
C38   H9    S    
C44   H25   S    
C53   H51   S    
C49   H46   S    
C59   H70   S    
C52   H54   S    
