data_mof_unit_49809.cif
_audit_creation_date              2012-12-10T17:50:16-0500
_audit_creation_method            fapswitch 2.2
_symmetry_space_group_name_H-M    P1
_symmetry_Int_Tables_number       1
_space_group_crystal_system       triclinic
_cell_length_a                    10.616372
_cell_length_b                    14.700161
_cell_length_c                    14.700989
_cell_angle_alpha                 65.169493
_cell_angle_beta                  103.212544
_cell_angle_gamma                 102.657558
_cell_volume                      2007.27307585

loop_
_atom_site_label
_atom_site_type_symbol
_atom_type_description
_atom_site_fract_x
_atom_site_fract_y
_atom_site_fract_z
_atom_type_partial_charge
C1    C     C_R   0.479014 0.119603 0.312314 0.802605
C2    C     C_R   0.522145 0.880376 0.687725 0.802033
C3    C     C_R   0.488813 0.291394 0.178765 -0.265553
C4    C     C_R   0.526601 0.708728 0.821384 -0.269290
C5    C     C_R   0.504851 0.360891 0.080089 0.089090
C6    C     C_R   0.540343 0.640144 0.923000 0.085301
C7    C     C_R   0.496868 0.322046 0.005140 0.161198
C8    C     C_R   0.560599 0.679252 0.999282 0.160375
C9    C     C_R   0.527561 0.467468 0.053908 0.065259
C10   C     C_R   0.530169 0.533862 0.950531 0.065223
C11   C     C_R   0.524310 0.491868 0.878480 -0.224613
C12   C     C_R   0.550723 0.509849 0.127840 -0.224231
C13   C     C_R   0.508469 0.388048 0.905668 -0.231317
C14   C     C_R   0.567969 0.613699 0.100756 -0.231408
C15   C     C_R   0.715995 0.283634 0.669695 -0.324414
C16   C     C_R   0.283519 0.716103 0.330709 -0.321561
C17   C     C_R   0.682605 0.202398 0.639602 0.075157
C18   C     C_R   0.317048 0.797425 0.360663 0.075785
C19   C     C_R   0.519207 0.285537 0.508697 0.002210
C20   C     C_R   0.480972 0.714548 0.491213 0.002969
C21   C     C_R   0.548877 0.371291 0.535097 -0.022379
C22   C     C_R   0.451145 0.628699 0.464968 -0.023139
C23   C     C_R   0.259748 0.000620 0.500000 0.798730
C24   C     C_R   0.740274 0.999416 0.499919 0.799420
C25   C     C_R   0.649170 0.367988 0.618199 0.166036
C26   C     C_R   0.350562 0.631855 0.382077 0.164356
C27   C     C_R   0.482574 0.458861 0.483317 0.075488
C28   C     C_R   0.517479 0.541138 0.516743 0.078863
C29   C     C_R   0.617087 0.532894 0.600884 -0.244988
C30   C     C_R   0.382871 0.467057 0.399246 -0.243161
C31   C     C_R   0.681553 0.448291 0.650024 -0.205926
C32   C     C_R   0.318110 0.551514 0.350317 -0.197574
C33   C     C_3   0.015406 0.008123 0.409293 0.054616
C34   C     C_3   0.984686 0.992024 0.590186 0.054824
C35   C     C_3   0.960263 0.086668 0.427649 -0.215901
C36   C     C_3   0.039806 0.913529 0.571774 -0.215835
C37   C     C_3   0.876679 0.998405 0.499789 -0.024671
C38   C     C_3   0.123331 0.001750 0.499771 -0.024011
C39   C     C_3   0.929650 0.919850 0.480356 -0.199082
C40   C     C_3   0.070388 0.080313 0.519150 -0.199627
C41   C     C_R   0.476346 0.187140 0.205082 -0.053846
C42   C     C_R   0.536919 0.812835 0.795417 -0.049858
C43   C     C_R   0.478508 0.217171 0.030700 -0.212638
C44   C     C_R   0.572214 0.783857 0.973223 -0.219757
C45   C     C_R   0.469837 0.150013 0.130443 -0.196374
C46   C     C_R   0.560720 0.850369 0.871809 -0.190198
Cu1   Cu    Cu3+1 0.465750 0.918270 0.475680 0.937270
Cu2   Cu    Cu3+1 0.534250 0.081730 0.524320 0.937112
H1    H     H_    0.924379 0.156762 0.368320 0.140552
H2    H     H_    0.075759 0.843425 0.631031 0.139219
H3    H     H_    0.557822 0.720015 0.551411 0.119851
H4    H     H_    0.442608 0.280202 0.448313 0.119577
H5    H     H_    0.266431 0.862983 0.320489 0.144666
H6    H     H_    0.733024 0.136748 0.679903 0.143003
H7    H     H_    0.792987 0.280211 0.733337 0.137436
H8    H     H_    0.206249 0.719379 0.267270 0.137689
H9    H     H_    0.647777 0.590705 0.631272 0.126439
H10   H     H_    0.352214 0.409270 0.368825 0.128884
H11   H     H_    0.868701 0.854204 0.465815 0.139390
H12   H     H_    0.131317 0.145829 0.533958 0.140111
H13   H     H_    0.504882 0.359252 0.848083 0.151783
H14   H     H_    0.585217 0.642810 0.159838 0.148369
H15   H     H_    0.503956 0.682697 0.760482 0.152557
H16   H     H_    0.484720 0.316329 0.236995 0.146349
H17   H     H_    0.569559 0.930785 0.853258 0.157864
H18   H     H_    0.459515 0.069447 0.149275 0.158513
H19   H     H_    0.473010 0.187172 0.973762 0.135886
H20   H     H_    0.589126 0.814127 0.031357 0.135435
H21   H     H_    0.535481 0.537081 0.800446 0.141925
H22   H     H_    0.559658 0.465111 0.208140 0.146624
H23   H     H_    0.757488 0.445560 0.714179 0.143114
H24   H     H_    0.241902 0.554118 0.286356 0.142479
N1    N     N_R   0.585750 0.204560 0.560800 -0.178099
N2    N     N_R   0.414250 0.795440 0.439200 -0.178778
O1    O     O_R   0.454850 0.022100 0.338110 -0.584322
O2    O     O_R   0.545150 0.977900 0.661890 -0.584863
O3    O     O_R   0.512700 0.160150 0.379180 -0.593093
O4    O     O_R   0.487300 0.839850 0.620820 -0.593833
O5    O     O_R   0.287930 0.931000 0.479440 -0.576697
O6    O     O_R   0.712070 0.069000 0.520560 -0.577117
O7    O     O_R   0.345780 0.069050 0.520520 -0.591437
O8    O     O_R   0.654220 0.930950 0.479480 -0.591612
C47   C     C_R   0.040164 0.020738 0.307574 0.113444
C48   C     C_R   0.993936 0.943378 0.270939 -0.139492
C49   C     C_R   0.020217 0.955537 0.177188 -0.165072
C50   C     C_R   0.092007 0.045018 0.119231 -0.118895
C51   C     C_R   0.137778 0.122455 0.155012 -0.125068
C52   C     C_R   0.112834 0.110206 0.249145 -0.165476
H25   H     H_    0.938814 0.873342 0.314870 0.118628
H26   H     H_    0.985181 0.895413 0.149634 0.122187
H27   H     H_    0.112268 0.054306 0.046710 0.123373
H28   H     H_    0.193000 0.191866 0.109951 0.143647
H29   H     H_    0.150130 0.170357 0.276533 0.113368
C53   C     C_R   0.961310 0.978760 0.692437 0.112216
C54   C     C_R   0.896900 0.886458 0.753887 -0.168010
C55   C     C_R   0.875811 0.872736 0.849517 -0.118950
C56   C     C_R   0.916064 0.951717 0.883486 -0.119537
C57   C     C_R   0.979003 0.044176 0.822316 -0.164576
C58   C     C_R   0.002159 0.057699 0.727221 -0.139046
H30   H     H_    0.863836 0.824985 0.728009 0.116208
H31   H     H_    0.827756 0.800940 0.897118 0.145370
H32   H     H_    0.898333 0.941294 0.957081 0.121316
H33   H     H_    0.009861 0.105418 0.848562 0.124091
H34   H     H_    0.050750 0.129875 0.680859 0.119842

loop_
_geom_bond_atom_site_label_1
_geom_bond_atom_site_label_2
_ccdc_geom_bond_type
C25   C31   A    
C38   C40   S    
C51   C52   A    
C26   C32   A    
C40   H12   S    
C34   C37   S    
C1    O3    A    
Cu2   O2    S    
C54   C55   A    
Cu1   O5    S    
C56   C57   A    
C36   H2    S    
C32   H24   S    
C3    H16   S    
C4    H15   S    
C33   C39   S    
C34   C40   S    
C28   C29   A    
C35   C37   S    
C20   H3    S    
C50   H27   S    
C15   C25   A    
C57   H33   S    
C14   H14   S    
Cu2   O7    S    
C42   C46   A    
Cu1   O8    S    
C24   O8    A    
C12   H22   S    
C18   H5    S    
C19   H4    S    
C24   O6    A    
C47   C48   A    
C35   H1    S    
C7    C43   A    
C9    C10   A    
C56   H32   S    
C31   H23   S    
C47   C52   A    
C21   C27   A    
C18   N2    A    
C22   C28   A    
C55   H31   S    
C27   C30   A    
C17   N1    A    
C44   C46   A    
C16   C26   A    
C37   C39   S    
C29   H9    S    
C1    O1    A    
C8    C44   A    
C19   N1    A    
C48   C49   A    
C46   H17   S    
C4    C6    A    
C5    C7    A    
C54   H30   S    
C6    C8    A    
C49   C50   A    
C15   H7    S    
Cu2   O3    S    
C16   H8    S    
C43   H19   S    
C5    C9    A    
C2    O4    A    
C33   C47   S    
Cu1   Cu2   S    
C39   H11   S    
C55   C56   A    
C24   C37   S    
C20   N2    A    
C43   C45   A    
C1    C41   S    
C20   C22   A    
C44   H20   S    
C48   H25   S    
C45   H18   S    
C2    O2    A    
C15   C17   A    
C21   C25   A    
C52   H29   S    
C3    C41   A    
C8    C14   A    
C23   O7    A    
C19   C21   A    
C50   C51   A    
Cu2   N1    S    
C36   C39   S    
C34   C53   S    
Cu1   N2    S    
C12   C14   A    
C3    C5    A    
C6    C10   A    
C49   H26   S    
C11   H21   S    
C23   C38   S    
C33   C38   S    
Cu2   O6    S    
C36   C38   S    
C35   C40   S    
Cu1   O1    S    
C29   C31   A    
C30   C32   A    
C11   C13   A    
C4    C42   A    
C53   C58   A    
C2    C42   S    
C30   H10   S    
C33   C35   S    
C58   H34   S    
C34   C36   S    
C53   C54   A    
C9    C12   A    
C10   C11   A    
C7    C13   A    
C13   H13   S    
C16   C18   A    
C57   C58   A    
C22   C26   A    
C27   C28   A    
C41   C45   A    
Cu1   O4    S    
C23   O5    A    
C51   H28   S    
C17   H6    S    
