data_mof_unit_62903.cif
_audit_creation_date              2012-12-10T18:28:38-0500
_audit_creation_method            fapswitch 2.2
_symmetry_space_group_name_H-M    P1
_symmetry_Int_Tables_number       1
_space_group_crystal_system       triclinic
_cell_length_a                    21.733637
_cell_length_b                    21.748252
_cell_length_c                    21.229616
_cell_angle_alpha                 120.686203
_cell_angle_beta                  120.653746
_cell_angle_gamma                 90.13859
_cell_volume                      6940.17610485

loop_
_atom_site_label
_atom_site_type_symbol
_atom_type_description
_atom_site_fract_x
_atom_site_fract_y
_atom_site_fract_z
_atom_type_partial_charge
C1    C     C_R   0.084774 0.584608 0.669223 0.778335
C2    C     C_R   0.975245 0.244040 0.190998 -0.219671
C3    C     C_R   0.244955 0.441830 0.425998 -0.200126
C4    C     C_R   0.313141 0.504944 0.500406 -0.097761
C5    C     C_R   0.316347 0.567449 0.573921 0.052693
C6    C     C_R   0.250918 0.563698 0.571253 -0.158286
C7    C     C_R   0.184051 0.499594 0.498188 -0.034949
C8    C     C_R   0.180436 0.438266 0.424678 0.038499
C9    C     C_R   0.413477 0.667028 0.742272 -0.205970
C10   C     C_R   0.477309 0.734432 0.816423 0.443229
C11   C     C_R   0.513310 0.773648 0.801688 -0.167769
C12   C     C_R   0.117965 0.499492 0.498826 0.793191
C13   C     C_R   0.485548 0.745595 0.712970 -0.162316
C14   C     C_R   0.421770 0.678413 0.638916 -0.014212
C15   C     C_R   0.385301 0.638150 0.652685 0.042248
C16   C     C_1   0.136213 0.635900 0.771755 -0.181669
C17   C     C_1   0.178718 0.678368 0.856712 0.012432
C18   C     C_1   0.229041 0.728696 0.957482 0.032556
C19   C     C_1   0.271465 0.771149 0.042448 0.032766
C20   C     C_1   0.321788 0.821532 0.143231 0.029052
C21   C     C_1   0.364214 0.864032 0.228198 -0.159521
C22   C     C_R   0.909581 0.389871 0.665807 -0.235694
C23   C     C_R   0.915326 0.415399 0.330766 0.800607
C24   C     C_R   0.853292 0.403554 0.607428 -0.184292
C25   C     C_R   0.870167 0.472644 0.619394 0.129976
C26   C     C_R   0.943742 0.528355 0.691332 -0.227116
C27   C     C_R   0.999911 0.514777 0.749978 -0.099175
C28   C     C_R   0.983556 0.445629 0.737690 0.492895
C29   C     C_R   0.744931 0.488525 0.556420 -0.264863
C30   C     C_R   0.686601 0.502547 0.500368 -0.091112
C31   C     C_R   0.693235 0.517591 0.446647 0.057830
C32   C     C_R   0.758430 0.517434 0.449212 -0.161223
C33   C     C_R   0.816362 0.501926 0.503897 -0.089192
C34   C     C_R   0.882150 0.500816 0.501841 0.784474
C35   C     C_R   0.809883 0.487305 0.558315 0.020148
C36   C     C_R   0.582803 0.480978 0.295907 0.421856
C37   C     C_R   0.529242 0.499777 0.241171 -0.183298
C38   C     C_R   0.527750 0.573712 0.280081 -0.220335
C39   C     C_R   0.578587 0.629503 0.373870 -0.140552
C40   C     C_R   0.632580 0.612699 0.430190 0.358643
C41   C     C_R   0.634918 0.537485 0.390726 -0.050093
C42   C     C_1   0.863788 0.364183 0.228223 -0.147232
C43   C     C_1   0.821218 0.321707 0.143257 0.011474
C44   C     C_1   0.770938 0.271284 0.042480 0.007694
C45   C     C_R   0.022087 0.247669 0.270143 0.473676
C46   C     C_1   0.728549 0.228793 0.957513 0.011291
C47   C     C_1   0.678242 0.178407 0.856742 -0.019700
C48   C     C_1   0.635810 0.135875 0.771776 -0.194357
C49   C     C_R   0.495487 0.619712 0.499761 0.829741
C50   C     C_R   0.379961 0.502494 0.500157 0.785849
C51   C     C_R   0.501970 0.380092 0.499978 0.829714
C52   C     C_R   0.619903 0.501927 0.499998 0.838312
C53   C     C_R   0.500902 0.119635 0.501759 0.791475
C54   C     C_R   0.415416 0.915352 0.330750 0.778690
C55   C     C_R   0.499582 0.880937 0.499257 0.779103
C56   C     C_R   0.089228 0.311391 0.346334 -0.094496
C57   C     C_R   0.584588 0.084559 0.669243 0.792575
C58   C     C_R   0.258924 0.496809 0.249901 0.420680
C59   C     C_R   0.326256 0.555641 0.297272 0.435330
C60   C     C_R   0.349867 0.627101 0.378933 -0.203373
C61   C     C_R   0.301134 0.640595 0.406229 0.316163
C62   C     C_R   0.233624 0.581350 0.357737 0.361503
C63   C     C_R   0.213455 0.509852 0.281113 -0.451529
C64   C     C_R   0.427941 0.750134 0.433375 0.431456
C65   C     C_R   0.497834 0.812780 0.496466 -0.196583
C66   C     C_R   0.565156 0.810787 0.559245 -0.056099
C67   C     C_R   0.109380 0.371427 0.344425 -0.018193
C68   C     C_R   0.562339 0.747135 0.559307 -0.201440
C69   C     C_R   0.493683 0.685837 0.498647 -0.170577
C70   C     C_R   0.425378 0.687858 0.437019 0.031571
C71   C     C_R   0.698032 0.868900 0.617073 -0.092644
C72   C     C_R   0.768755 0.928813 0.682943 -0.130840
C73   C     C_R   0.781196 0.994680 0.759921 -0.101031
C74   C     C_R   0.722871 0.000777 0.771022 -0.129553
C75   C     C_R   0.651752 0.941360 0.704804 -0.146340
C76   C     C_R   0.639078 0.875052 0.627539 0.135851
C77   C     C_R   0.490449 0.203027 0.231191 -0.351616
C78   C     C_R   0.062272 0.367270 0.265412 -0.150033
C79   C     C_R   0.474008 0.203221 0.287510 0.428314
C80   C     C_R   0.529270 0.252285 0.382672 0.077035
C81   C     C_R   0.599837 0.300125 0.420317 -0.365821
C82   C     C_R   0.615853 0.298958 0.363904 -0.090545
C83   C     C_R   0.561623 0.250752 0.269340 0.493181
C84   C     C_R   0.514704 0.189491 0.446265 -0.171765
C85   C     C_R   0.502097 0.187336 0.503623 -0.090923
C86   C     C_R   0.489592 0.248875 0.559933 0.049328
C87   C     C_R   0.490630 0.311831 0.557900 -0.229925
C88   C     C_R   0.502732 0.313605 0.500146 -0.096441
C89   C     C_R   0.995610 0.303604 0.188883 -0.190289
C90   C     C_R   0.514533 0.251994 0.443355 0.081874
C91   C     C_R   0.408755 0.254930 0.612878 -0.211595
C92   C     C_R   0.396924 0.258335 0.673368 0.313966
C93   C     C_R   0.455058 0.258013 0.746298 0.428287
C94   C     C_R   0.523526 0.254316 0.756382 -0.156123
C95   C     C_R   0.534661 0.250311 0.695333 -0.238886
C96   C     C_R   0.477239 0.250397 0.623067 0.057933
Cu1   Cu    Cu3+1 0.000010 0.438210 0.500020 1.025597
Cu2   Cu    Cu3+1 0.999990 0.561790 0.499980 1.027587
Cu3   Cu    Cu3+1 0.457530 0.457560 0.415050 1.039611
Cu4   Cu    Cu3+1 0.542470 0.542480 0.584950 0.980600
Cu5   Cu    Cu3+1 0.561810 0.000000 0.500000 0.979147
Cu6   Cu    Cu3+1 0.438190 0.000000 0.500000 1.049367
H1    H     H_    0.923080 0.195368 0.131213 0.133243
H2    H     H_    0.562734 0.825751 0.858842 0.172319
H3    H     H_    0.513459 0.775820 0.701478 0.166821
H4    H     H_    0.401394 0.657088 0.570773 0.129183
H5    H     H_    0.895458 0.336033 0.655098 0.140235
H6    H     H_    0.796632 0.360151 0.552577 0.145126
H7    H     H_    0.957408 0.582425 0.702314 0.129054
H8    H     H_    0.056365 0.558256 0.805460 0.157426
H9    H     H_    0.739432 0.477834 0.598280 0.153388
H10   H     H_    0.763752 0.528995 0.407837 0.158319
H11   H     H_    0.488872 0.457244 0.168220 0.160196
H12   H     H_    0.486722 0.587791 0.237355 0.181002
H13   H     H_    0.576405 0.686583 0.403016 0.156423
H14   H     H_    0.161415 0.464636 0.244686 0.185210
H15   H     H_    0.125649 0.314232 0.407165 0.168170
H16   H     H_    0.614258 0.745364 0.607118 0.197727
H17   H     H_    0.689098 0.817934 0.557936 0.162137
H18   H     H_    0.814029 0.924027 0.674540 0.142416
H19   H     H_    0.836113 0.040842 0.811146 0.133734
H20   H     H_    0.732955 0.051409 0.831180 0.140081
H21   H     H_    0.606952 0.946582 0.714095 0.133604
H22   H     H_    0.448180 0.165538 0.157925 0.137713
H23   H     H_    0.077043 0.413381 0.263268 0.177345
H24   H     H_    0.642838 0.337606 0.493440 0.153063
H25   H     H_    0.670909 0.335297 0.393656 0.176628
H26   H     H_    0.524004 0.141922 0.402907 0.159560
H27   H     H_    0.481537 0.359652 0.601269 0.159783
H28   H     H_    0.364328 0.255543 0.557459 0.185161
H29   H     H_    0.568621 0.254944 0.812414 0.178778
H30   H     H_    0.588321 0.247918 0.704920 0.143014
H31   H     H_    0.959373 0.300627 0.127994 0.161878
H32   H     H_    0.242279 0.394310 0.369384 0.164660
H33   H     H_    0.251738 0.611220 0.626199 0.143855
H34   H     H_    0.386190 0.636965 0.754464 0.166734
O1    O     O_R   0.061970 0.509790 0.623960 -0.552683
O2    O     O_R   0.535870 0.626050 0.571740 -0.593599
O3    O     O_R   0.373960 0.464160 0.428260 -0.589271
O4    O     O_R   0.445680 0.535880 0.571730 -0.582923
O5    O     O_R   0.464130 0.373990 0.428260 -0.565692
O6    O     O_R   0.535860 0.445700 0.571730 -0.589710
O7    O     O_R   0.554320 0.464170 0.428270 -0.561956
O8    O     O_R   0.626040 0.535880 0.571740 -0.590231
O9    O     O_R   0.552180 0.090160 0.499970 -0.587105
O10   O     O_R   0.447790 0.090160 0.499970 -0.559360
O11   O     O_R   0.490230 0.938030 0.376060 -0.562504
O12   O     O_R   0.061960 0.614160 0.623930 -0.561456
O13   O     O_R   0.385840 0.938030 0.376050 -0.552640
O14   O     O_R   0.552210 0.909840 0.500030 -0.577956
O15   O     O_R   0.447820 0.909840 0.500030 -0.539955
O16   O     O_R   0.614160 0.061970 0.623950 -0.561085
O17   O     O_R   0.509770 0.061970 0.623940 -0.550136
O18   O     O_R   0.090190 0.447820 0.500020 -0.583287
O19   O     O_R   0.090170 0.552190 0.499990 -0.540070
O20   O     O_R   0.938040 0.385840 0.376070 -0.556169
O21   O     O_R   0.938030 0.490210 0.376040 -0.554637
O22   O     O_R   0.909830 0.447810 0.500010 -0.563476
O23   O     O_R   0.909810 0.552180 0.499980 -0.586108
O24   O     O_R   0.464140 0.554340 0.428270 -0.564982
O25   O     O_3   0.040608 0.434415 0.796872 -0.709281
H35   H     H_    0.019975 0.383101 0.779074 0.327957
O26   O     O_3   0.003975 0.190181 0.275041 -0.709910
H36   H     H_    0.955139 0.149692 0.216150 0.325186
O27   O     O_3   0.585575 0.408166 0.258573 -0.687627
H37   H     H_    0.545285 0.375616 0.191836 0.335619
O28   O     O_3   0.682112 0.671598 0.522170 -0.763647
H38   H     H_    0.718283 0.653635 0.554952 0.328055
O29   O     O_3   0.238731 0.427029 0.172725 -0.659395
H39   H     H_    0.190332 0.391708 0.147416 0.319923
O30   O     O_3   0.367357 0.540594 0.261782 -0.659178
H40   H     H_    0.407216 0.588722 0.293870 0.318181
Cl1   Cl    Cl    0.323358 0.732206 0.499874 -0.511765
Cl2   Cl    Cl    0.172921 0.594971 0.391597 -0.537130
O31   O     O_3   0.361242 0.747536 0.367394 -0.679442
H41   H     H_    0.374177 0.779899 0.352851 0.314563
O32   O     O_3   0.579976 0.251117 0.216172 -0.687792
H42   H     H_    0.535775 0.214417 0.151224 0.327649
O33   O     O_3   0.404708 0.156614 0.251481 -0.719866
H43   H     H_    0.372627 0.126013 0.184131 0.330074
Cl3   Cl    Cl    0.309032 0.263436 0.655189 -0.584156
O34   O     O_3   0.448092 0.261528 0.809069 -0.704710
H44   H     H_    0.397480 0.263693 0.794539 0.374581
Cl4   Cl    Cl    0.512146 0.769731 0.927864 -0.583146

loop_
_geom_bond_atom_site_label_1
_geom_bond_atom_site_label_2
_ccdc_geom_bond_type
C84   H26   S    
C66   C68   A    
O30   H40   S    
O27   H37   S    
C81   H24   S    
C10   Cl4   S    
C73   C74   A    
C95   C96   A    
C87   C88   A    
Cu1   Cu2   S    
C7    C8    A    
C91   H28   S    
C85   C86   A    
Cu5   O9    S    
C26   C27   A    
C52   O8    A    
C23   C42   S    
C56   H15   S    
C75   H21   S    
Cu3   O7    S    
C36   C37   A    
C37   C38   A    
C92   Cl3   S    
C21   C54   S    
C38   H12   S    
C50   O4    A    
C45   O26   S    
C37   H11   S    
C77   C83   A    
C22   H5    S    
C62   Cl2   S    
C57   O16   A    
Cu5   O14   S    
C18   C19   T    
O29   H39   S    
Cu1   O20   S    
O34   H44   S    
C53   O10   A    
C40   O28   S    
Cu4   O4    S    
C13   C14   A    
C68   H16   S    
C91   C96   A    
C46   C47   S    
O31   H41   S    
C27   H8    S    
C16   C17   T    
C47   C48   T    
C49   O24   A    
C11   H2    S    
C24   H6    S    
C64   C70   A    
C32   H10   S    
C9    C10   A    
C61   C62   A    
Cu6   O15   S    
C72   C73   A    
C34   O23   A    
C77   C79   A    
C59   C60   A    
C2    C45   A    
C22   C28   A    
C49   O2    A    
Cu3   O3    S    
C36   C41   A    
C69   C70   A    
C67   C78   A    
C84   C90   A    
C59   O30   S    
Cu1   O1    S    
C55   C65   S    
C44   C46   T    
C28   O25   S    
O25   H35   S    
C54   O13   A    
C51   O5    A    
C78   C89   A    
C7    C12   S    
C52   O7    A    
C89   H31   S    
C74   C75   A    
C83   O32   S    
Cu5   Cu6   S    
C48   C57   S    
C58   O29   S    
C38   C39   A    
C24   C25   A    
C45   C56   A    
C13   H3    S    
C3    C8    A    
Cu4   O8    S    
C91   C92   A    
C50   O3    A    
C68   C69   A    
C25   C26   A    
C57   O17   A    
C81   C82   A    
C79   C80   A    
C4    C50   S    
C60   C61   A    
C2    C89   A    
C75   C76   A    
C29   C30   A    
C93   O34   S    
C31   C32   A    
C26   H7    S    
Cu2   O21   S    
C60   C70   S    
C30   C31   A    
C66   C76   S    
C72   H18   S    
C62   C63   A    
C53   O9    A    
C17   C18   S    
C61   Cl1   S    
C1    C16   S    
Cu1   O18   S    
C84   C85   A    
C64   O31   S    
C55   O15   A    
C92   C93   A    
Cu6   O17   S    
C86   C96   S    
C25   C35   S    
C63   H14   S    
C34   O22   A    
C40   C41   A    
C74   H20   S    
C88   C90   A    
C65   C66   A    
C39   H13   S    
C43   C44   S    
C95   H30   S    
C22   C24   A    
C6    H33   S    
C42   C43   T    
C12   O19   A    
C3    C4    A    
C71   C76   A    
O28   H38   S    
C1    O1    A    
C55   O14   A    
C51   O6    A    
C58   C63   A    
C30   C52   S    
Cu2   O19   S    
Cu5   O11   S    
C31   C41   S    
C20   C21   T    
C86   C87   A    
C29   H9    S    
C12   O18   A    
C80   C81   A    
C51   C88   S    
C53   C85   S    
Cu3   O5    S    
C6    C7    A    
C56   C67   A    
C93   C94   A    
C29   C35   A    
Cu5   O16   S    
C73   H19   S    
C94   H29   S    
Cu4   O2    S    
Cu3   Cu4   S    
C71   H17   S    
C3    H32   S    
C32   C33   A    
C87   H27   S    
C19   C20   S    
C58   C59   A    
C71   C72   A    
C77   H22   S    
Cu4   O6    S    
C64   C65   A    
Cu1   O22   S    
C11   C13   A    
C5    C6    A    
Cu2   O12   S    
C2    H1    S    
C23   O21   A    
C36   O27   S    
C33   C35   A    
C33   C34   S    
C79   O33   S    
C80   C90   S    
C94   C95   A    
C82   H25   S    
C5    C15   S    
O26   H36   S    
C10   C11   A    
O32   H42   S    
Cu6   O13   S    
O33   H43   S    
C39   C40   A    
C9    H34   S    
C4    C5    A    
C23   O20   A    
Cu2   O23   S    
C8    C67   S    
C82   C83   A    
C14   H4    S    
C27   C28   A    
C14   C15   A    
C1    O12   A    
C49   C69   S    
Cu3   O24   S    
C78   H23   S    
Cu6   O10   S    
C9    C15   A    
C54   O11   A    
