data_mof_unit_60925.cif
_audit_creation_date              2012-12-10T16:36:42-0500
_audit_creation_method            fapswitch 2.2
_symmetry_space_group_name_H-M    P1
_symmetry_Int_Tables_number       1
_space_group_crystal_system       triclinic
_cell_length_a                    14.147145
_cell_length_b                    16.429469
_cell_length_c                    15.108475
_cell_angle_alpha                 90.000081
_cell_angle_beta                  92.033624
_cell_angle_gamma                 90.000027
_cell_volume                      3509.45231948

loop_
_atom_site_label
_atom_site_type_symbol
_atom_type_description
_atom_site_fract_x
_atom_site_fract_y
_atom_site_fract_z
_atom_type_partial_charge
C1    C     C_R   0.680073 0.844597 0.519973 0.498909
C2    C     C_R   0.954489 0.522787 0.109170 -0.119025
C3    C     C_R   0.607738 0.042521 0.128252 -0.134812
C4    C     C_R   0.107715 0.457438 0.128254 -0.134811
C5    C     C_R   0.612379 0.052064 0.036891 -0.125369
C6    C     C_R   0.112349 0.447887 0.036894 -0.125367
C7    C     C_2   0.247847 0.218984 0.472811 -0.118506
C8    C     C_2   0.247835 0.781027 0.472827 -0.118011
C9    C     C_2   0.747835 0.718973 0.472827 -0.118012
C10   C     C_2   0.747846 0.281016 0.472811 -0.118505
C11   C     C_2   0.751614 0.782726 0.527378 -0.101602
C12   C     C_R   0.680072 0.155403 0.519973 0.499264
C13   C     C_2   0.751612 0.217273 0.527377 -0.099777
C14   C     C_2   0.251612 0.282727 0.527377 -0.099776
C15   C     C_2   0.251614 0.717274 0.527378 -0.101601
C16   C     C_R   0.319943 0.156173 0.480395 0.507966
C17   C     C_R   0.319940 0.843830 0.480400 0.507302
C18   C     C_R   0.819940 0.656170 0.480400 0.507301
C19   C     C_R   0.819943 0.343827 0.480395 0.507966
C20   C     C_R   0.520554 0.000598 0.260610 0.503765
C21   C     C_R   0.020554 0.499401 0.260610 0.503760
C22   C     C_R   0.478766 0.999874 0.738778 0.517929
C23   C     C_R   0.180073 0.344597 0.519973 0.499262
C24   C     C_R   0.978766 0.500126 0.738779 0.517925
C25   C     C_R   0.528391 0.005953 0.164670 0.026143
C26   C     C_R   0.028389 0.494042 0.164671 0.026151
C27   C     C_R   0.470487 0.998664 0.834167 0.040476
C28   C     C_R   0.970487 0.501339 0.834168 0.040466
C29   C     C_R   0.387091 0.953212 0.962036 -0.140021
C30   C     C_R   0.887118 0.546833 0.962036 -0.140024
C31   C     C_R   0.393402 0.959074 0.870624 -0.148578
C32   C     C_R   0.893425 0.540964 0.870625 -0.148578
C33   C     C_R   0.542548 0.031792 0.888851 0.091549
C34   C     C_R   0.180073 0.655403 0.519973 0.498908
C35   C     C_R   0.042527 0.468180 0.888853 0.091553
C36   C     C_R   0.538473 0.023589 0.980852 0.049307
C37   C     C_R   0.038458 0.476390 0.980854 0.049304
C38   C     C_R   0.459467 0.984748 0.017538 0.020998
C39   C     C_R   0.959476 0.515268 0.017538 0.021000
C40   C     C_R   0.454474 0.977236 0.109170 -0.119029
F1    F     F_    0.618004 0.068468 0.852269 -0.179248
F2    F     F_    0.117962 0.431470 0.852272 -0.179241
H1    H     H_    0.393520 0.948290 0.137326 0.126477
H2    H     H_    0.838150 0.567227 0.828131 0.123716
H3    H     H_    0.691257 0.713279 0.422555 0.107505
H4    H     H_    0.691284 0.286698 0.422522 0.106894
H5    H     H_    0.191284 0.213302 0.422522 0.106892
H6    H     H_    0.191256 0.786721 0.422555 0.107504
H7    H     H_    0.307353 0.289892 0.578099 0.129616
H8    H     H_    0.307375 0.710094 0.578078 0.126673
H9    H     H_    0.807375 0.789906 0.578079 0.126672
H10   H     H_    0.807354 0.210108 0.578099 0.129617
H11   H     H_    0.893552 0.551760 0.137327 0.126464
H12   H     H_    0.665133 0.065449 0.170585 0.137169
H13   H     H_    0.165096 0.434488 0.170589 0.137158
H14   H     H_    0.326600 0.922889 0.989249 0.119514
H15   H     H_    0.826647 0.577184 0.989248 0.119515
H16   H     H_    0.673804 0.081443 0.010362 0.137839
H17   H     H_    0.173756 0.418480 0.010366 0.137840
H18   H     H_    0.338110 0.932835 0.828131 0.123701
O1    O     O_3   0.500000 0.000000 0.500000 -0.445456
O2    O     O_R   0.885830 0.337110 0.539910 -0.541530
O3    O     O_R   0.692160 0.095230 0.468550 -0.535062
O4    O     O_R   0.692160 0.904770 0.468550 -0.531891
O5    O     O_R   0.192160 0.595230 0.468550 -0.531889
O6    O     O_R   0.192160 0.404770 0.468550 -0.535063
O7    O     O_R   0.316720 0.904790 0.427870 -0.536125
O8    O     O_R   0.316720 0.095210 0.427870 -0.534714
O9    O     O_R   0.816720 0.404790 0.427870 -0.534712
O10   O     O_R   0.816720 0.595210 0.427870 -0.536124
O11   O     O_R   0.594900 0.000000 0.310900 -0.543839
O12   O     O_3   0.000000 0.500000 0.500000 -0.445456
O13   O     O_R   0.094900 0.500000 0.310900 -0.543834
O14   O     O_R   0.483090 0.932320 0.697550 -0.543234
O15   O     O_R   0.483090 0.067680 0.697550 -0.525195
O16   O     O_R   0.983090 0.432320 0.697550 -0.525185
O17   O     O_R   0.983090 0.567680 0.697550 -0.543242
O18   O     O_R   0.438930 0.000000 0.294000 -0.544624
O19   O     O_R   0.938930 0.500000 0.294000 -0.544619
O20   O     O_R   0.605310 0.837110 0.563680 -0.531134
O21   O     O_R   0.605310 0.162890 0.563680 -0.527438
O22   O     O_R   0.105310 0.337110 0.563680 -0.527437
O23   O     O_R   0.105310 0.662890 0.563680 -0.531135
O24   O     O_R   0.385830 0.162890 0.539910 -0.541530
O25   O     O_R   0.385830 0.837110 0.539910 -0.542388
O26   O     O_R   0.885830 0.662890 0.539910 -0.542389
Zn1   Zn    Zn3+2 0.493670 0.096680 0.574000 0.955539
Zn2   Zn    Zn3+2 0.493670 0.903320 0.574000 0.944743
Zn3   Zn    Zn3+2 0.993670 0.596680 0.574000 0.944737
Zn4   Zn    Zn3+2 0.993670 0.403320 0.574000 0.955542
Zn5   Zn    Zn3+2 0.617760 0.000000 0.438070 0.945130
Zn6   Zn    Zn3+2 0.117760 0.500000 0.438070 0.945130
Zn7   Zn    Zn3+2 0.394920 0.000000 0.413930 0.943173
Zn8   Zn    Zn3+2 0.894920 0.500000 0.413930 0.943177

loop_
_geom_bond_atom_site_label_1
_geom_bond_atom_site_label_2
_ccdc_geom_bond_type
C18   O10   A    
O5    Zn6   S    
C30   C32   A    
C21   C26   S    
C5    C36   A    
C9    H3    S    
C23   O22   A    
C1    C11   S    
O24   Zn1   S    
C27   C33   A    
O17   Zn3   S    
C18   O26   A    
C5    H16   S    
C17   O25   A    
C23   O6    A    
C35   C37   A    
C25   C40   A    
O12   Zn6   S    
C3    H12   S    
O1    Zn7   S    
C14   H7    S    
C20   C25   S    
C19   O2    A    
C30   H15   S    
C21   O13   A    
C16   O24   A    
C33   C36   A    
C15   H8    S    
C35   F2    S    
O1    Zn1   S    
C2    C39   A    
C40   H1    S    
O4    Zn5   S    
C28   C35   A    
C29   C38   A    
C10   H4    S    
C20   O11   A    
C16   O8    A    
C15   C34   S    
O12   Zn8   S    
C22   O15   A    
C34   O5    A    
C7    C14   D    
O23   Zn3   S    
C17   O7    A    
C27   C31   A    
C28   C32   A    
O19   Zn8   S    
C4    C6    A    
O9    Zn8   S    
C12   O3    A    
C24   O16   A    
O6    Zn6   S    
C2    H11   S    
O26   Zn3   S    
C7    H5    S    
C14   C23   S    
C8    H6    S    
O1    Zn2   S    
C13   H10   S    
O12   Zn4   S    
C9    C18   S    
C3    C25   A    
C10   C19   S    
C29   C31   A    
C21   O19   A    
C32   H2    S    
C6    C37   A    
C2    C26   A    
C9    C11   D    
O21   Zn1   S    
O15   Zn1   S    
C7    C16   S    
C8    C15   D    
C22   C27   S    
C4    H13   S    
C19   O9    A    
C34   O23   A    
C22   O14   A    
C1    O4    A    
O25   Zn2   S    
C30   C39   A    
O10   Zn8   S    
C6    H17   S    
C24   C28   S    
O13   Zn6   S    
C3    C5    A    
C10   C13   D    
C4    C26   A    
C29   H14   S    
O8    Zn7   S    
O22   Zn4   S    
C20   O18   A    
C33   F1    S    
C36   C38   A    
O20   Zn2   S    
C8    C17   S    
C38   C40   A    
O12   Zn3   S    
O2    Zn4   S    
C12   O21   A    
C11   H9    S    
C24   O17   A    
O11   Zn5   S    
C12   C13   S    
C37   C39   A    
O3    Zn5   S    
O7    Zn7   S    
C1    O20   A    
O18   Zn7   S    
C31   H18   S    
O14   Zn2   S    
O1    Zn5   S    
O16   Zn4   S    
