data_mof_unit_6865.cif
_audit_creation_date              2012-12-10T17:41:51-0500
_audit_creation_method            fapswitch 2.2
_symmetry_space_group_name_H-M    P1
_symmetry_Int_Tables_number       1
_space_group_crystal_system       triclinic
_cell_length_a                    13.708755
_cell_length_b                    13.88201
_cell_length_c                    15.040138
_cell_angle_alpha                 89.965435
_cell_angle_beta                  90.747642
_cell_angle_gamma                 84.771927
_cell_volume                      2850.06012025

loop_
_atom_site_label
_atom_site_type_symbol
_atom_type_description
_atom_site_fract_x
_atom_site_fract_y
_atom_site_fract_z
_atom_type_partial_charge
C1    C     C_R   0.499593 0.497867 0.328524 0.854390
C2    C     C_R   0.500634 0.500468 0.671251 0.848256
C3    C     C_R   0.514180 0.488212 0.952924 -0.029909
C4    C     C_R   0.513027 0.486060 0.046381 -0.024020
C5    C     C_R   0.462766 0.421727 0.904385 0.072468
C6    C     C_R   0.565624 0.551414 0.094880 0.072470
C7    C     C_R   0.626702 0.614945 0.958107 0.431990
C8    C     C_R   0.420800 0.343946 0.041265 0.430244
C9    C     C_R   0.623527 0.613603 0.050763 -0.277559
C10   C     C_R   0.419086 0.348676 0.948629 -0.271079
C11   C     C_R   0.786316 0.571130 0.456008 0.036472
C12   C     C_R   0.213728 0.428706 0.543777 0.022434
C13   C     C_R   0.800278 0.429316 0.544995 0.027333
C14   C     C_R   0.199496 0.573383 0.458863 0.005284
C15   C     C_R   0.903829 0.427377 0.546851 -0.009085
C16   C     C_R   0.095956 0.575799 0.457658 -0.005744
C17   C     C_R   0.948192 0.500871 0.501733 0.034819
C18   C     C_R   0.051658 0.501592 0.501747 0.036725
C19   C     C_R   0.888958 0.573655 0.456420 -0.026188
C20   C     C_R   0.110972 0.427843 0.545685 -0.021320
C21   C     C_R   0.963835 0.354235 0.592203 0.162223
C22   C     C_R   0.035958 0.649247 0.412686 0.159956
C23   C     C_R   0.515833 0.316856 0.500041 0.824160
C24   C     C_R   0.484168 0.683118 0.498571 0.803319
C25   C     C_R   0.066786 0.354909 0.590605 -0.236667
C26   C     C_R   0.933108 0.647276 0.412454 -0.244267
C27   C     C_1   0.474503 0.786289 0.498693 -0.167834
C28   C     C_1   0.525469 0.213687 0.499931 -0.169348
C29   C     C_2   0.459407 0.976763 0.500018 -0.172229
C30   C     C_2   0.540369 0.023172 0.499470 -0.165654
C31   C     C_1   0.532975 0.126822 0.499770 0.006099
C32   C     C_1   0.466877 0.873135 0.499234 0.007977
C33   C     C_R   0.458665 0.426955 0.812053 -0.305732
C34   C     C_R   0.561527 0.552314 0.187112 -0.298298
C35   C     C_R   0.503257 0.499109 0.767799 -0.154293
C36   C     C_R   0.499924 0.494129 0.231566 -0.147439
C37   C     C_R   0.552660 0.567757 0.815032 0.402036
C38   C     C_R   0.443415 0.430930 0.184018 0.386457
C39   C     C_R   0.565120 0.557859 0.908169 -0.109510
C40   C     C_R   0.458306 0.419479 0.091146 -0.115848
Cu1   Cu    Cu3+1 0.597420 0.500010 0.499990 0.957934
Cu2   Cu    Cu3+1 0.402580 0.499990 0.500010 0.941473
H1    H     H_    0.612509 0.983623 0.498557 0.158869
H2    H     H_    0.387253 0.016275 0.500933 0.159755
H3    H     H_    0.421168 0.374577 0.774209 0.153142
H4    H     H_    0.604179 0.600819 0.224685 0.156137
H5    H     H_    0.667185 0.661184 0.088227 0.155249
H6    H     H_    0.384805 0.293790 0.911289 0.155867
H7    H     H_    0.740140 0.626218 0.420609 0.124482
H8    H     H_    0.259984 0.372559 0.577719 0.129054
H9    H     H_    0.764149 0.374477 0.579497 0.154677
H10   H     H_    0.235466 0.629153 0.425588 0.156168
H11   H     H_    0.112557 0.298493 0.624903 0.131597
H12   H     H_    0.887405 0.703190 0.377441 0.133336
N1    N     N_R   0.743820 0.499960 0.499930 -0.189929
N2    N     N_R   0.256180 0.500040 0.500070 -0.194544
O1    O     O_R   0.582280 0.500030 0.370250 -0.590380
O2    O     O_R   0.417720 0.499970 0.629750 -0.592529
O3    O     O_R   0.417740 0.500020 0.370270 -0.563882
O4    O     O_R   0.582260 0.499980 0.629730 -0.554245
O5    O     O_R   0.593900 0.362160 0.500010 -0.584594
O6    O     O_R   0.406100 0.637840 0.499990 -0.587594
O7    O     O_R   0.429360 0.362150 0.500030 -0.579981
O8    O     O_R   0.570640 0.637850 0.499970 -0.573489
O9    O     O_3   0.586939 0.643927 0.768538 -0.596201
C41   C     C_3   0.527133 0.730969 0.784966 0.094755
H13   H     H_    0.565499 0.791144 0.757198 0.179708
H14   H     H_    0.518299 0.746146 0.857175 0.156403
C42   C     C_3   0.425743 0.731988 0.740069 -0.401335
H15   H     H_    0.434103 0.708474 0.670178 0.234500
H16   H     H_    0.381227 0.680905 0.774791 0.212878
C43   C     C_3   0.371111 0.832736 0.742088 -0.896268
H17   H     H_    0.360977 0.857532 0.811843 0.252369
H18   H     H_    0.297969 0.830705 0.709905 0.263797
H19   H     H_    0.412415 0.884970 0.705350 0.260024
O10   O     O_3   0.378501 0.378653 0.230273 -0.599686
C44   C     C_3   0.280771 0.399559 0.198140 0.126146
H20   H     H_    0.251514 0.330008 0.180272 0.199351
H21   H     H_    0.273270 0.447043 0.138003 0.116414
C45   C     C_3   0.216128 0.446748 0.270614 -0.346743
H22   H     H_    0.224379 0.402141 0.332099 0.246105
H23   H     H_    0.239456 0.519742 0.284768 0.217116
C46   C     C_3   0.108567 0.456478 0.241082 -0.945735
H24   H     H_    0.098036 0.504189 0.181758 0.254342
H25   H     H_    0.062124 0.488279 0.295210 0.270454
H26   H     H_    0.084046 0.384382 0.224844 0.261315
O11   O     O_3   0.688185 0.675231 0.917964 -0.607828
C47   C     C_3   0.773509 0.620169 0.887954 0.128987
H27   H     H_    0.801671 0.659344 0.830634 0.179280
H28   H     H_    0.759206 0.547059 0.862768 0.130687
C48   C     C_3   0.852673 0.611151 0.961179 -0.401893
H29   H     H_    0.866318 0.684419 0.985391 0.231065
H30   H     H_    0.827376 0.569036 0.017901 0.217029
C49   C     C_3   0.948274 0.560234 0.927103 -0.908010
H31   H     H_    0.936486 0.486286 0.903580 0.255277
H32   H     H_    0.003831 0.554322 0.981702 0.257264
H33   H     H_    0.976696 0.602007 0.871598 0.258504
O12   O     O_3   0.383740 0.265468 0.081173 -0.622285
C50   C     C_3   0.461527 0.200009 0.113279 0.113019
H34   H     H_    0.433763 0.161258 0.171043 0.176595
H35   H     H_    0.525897 0.236227 0.138391 0.132529
C51   C     C_3   0.493374 0.125650 0.041631 -0.389896
H36   H     H_    0.428576 0.090230 0.017347 0.230204
H37   H     H_    0.524796 0.162654 0.984612 0.216224
C52   C     C_3   0.570110 0.048474 0.077744 -0.906049
H38   H     H_    0.636205 0.082220 0.101197 0.256455
H39   H     H_    0.591815 0.995995 0.024285 0.262350
H40   H     H_    0.539867 0.008782 0.133707 0.256261
N3    N     N_3   0.920256 0.279202 0.639270 -0.605160
H41   H     H_    0.886287 0.310807 0.695312 0.205268
H42   H     H_    0.974255 0.227003 0.662795 0.220226
N4    N     N_3   0.079539 0.724712 0.366260 -0.603908
H43   H     H_    0.113761 0.693546 0.310142 0.208015
H44   H     H_    0.025502 0.776950 0.342876 0.220421

loop_
_geom_bond_atom_site_label_1
_geom_bond_atom_site_label_2
_ccdc_geom_bond_type
C2    C35   S    
C41   H14   S    
O11   C47   S    
C8    C10   A    
C33   H3    S    
Cu1   Cu2   S    
C14   N2    A    
C24   C27   S    
Cu1   O5    S    
Cu2   O2    S    
C6    C9    A    
N4    H44   S    
C38   O10   S    
C44   H20   S    
C52   H39   S    
C11   C19   A    
C35   C37   A    
C25   H11   S    
C29   C32   S    
C42   H15   S    
C45   C46   S    
C30   C31   S    
C33   C35   A    
C2    O4    A    
C41   C42   S    
C20   C25   A    
O12   C50   S    
C51   C52   S    
C15   C17   A    
C42   H16   S    
C19   C26   A    
C8    O12   S    
Cu1   N1    S    
Cu2   N2    S    
C13   H9    S    
C14   H10   S    
C50   H34   S    
C37   O9    S    
C24   O6    A    
C34   H4    S    
Cu2   O6    S    
C18   C20   A    
C23   O7    A    
C41   H13   S    
C3    C39   A    
C24   O8    A    
C51   H36   S    
C43   H19   S    
C26   H12   S    
N4    H43   S    
C44   H21   S    
C52   H40   S    
C7    O11   S    
C4    C40   A    
O10   C44   S    
C43   H18   S    
C48   H29   S    
C45   H22   S    
C49   H33   S    
C6    C34   A    
C5    C33   A    
C42   C43   S    
C51   H37   S    
C29   C30   D    
C11   H7    S    
C1    O1    A    
C48   H30   S    
C21   N3    S    
C46   H24   S    
C47   C48   S    
C15   C21   A    
C12   C20   A    
C17   C18   A    
C23   C28   S    
C49   H32   S    
C12   N2    A    
C4    C6    A    
C50   H35   S    
C1    O3    A    
C47   H28   S    
C9    H5    S    
C22   N4    S    
C13   C15   A    
C29   H2    S    
C10   H6    S    
C14   C16   A    
C30   H1    S    
C3    C4    A    
C11   N1    A    
C44   C45   S    
C7    C9    A    
C21   C25   A    
C16   C22   A    
C46   H25   S    
C27   C32   T    
C28   C31   T    
Cu1   O4    S    
C43   H17   S    
C3    C5    A    
Cu2   O3    S    
C12   H8    S    
C2    O2    A    
C52   H38   S    
C46   H26   S    
N3    H42   S    
Cu1   O1    S    
C5    C10   A    
C37   C39   A    
N3    H41   S    
C48   C49   S    
C38   C40   A    
C36   C38   A    
C17   C19   A    
C45   H23   S    
C34   C36   A    
C49   H31   S    
C23   O5    A    
C50   C51   S    
C47   H27   S    
C16   C18   A    
O9    C41   S    
C22   C26   A    
C7    C39   A    
C8    C40   A    
Cu1   O8    S    
Cu2   O7    S    
C1    C36   S    
C13   N1    A    
