data_mof_unit_8516.cif
_audit_creation_date              2012-10-26T19:19:36-0400
_audit_creation_method            fapswitch 2.2
_symmetry_space_group_name_H-M    P1
_symmetry_Int_Tables_number       1
_space_group_crystal_system       triclinic
_cell_length_a                    15.865997
_cell_length_b                    10.898519
_cell_length_c                    9.844748
_cell_angle_alpha                 91.568991
_cell_angle_beta                  91.634523
_cell_angle_gamma                 91.771756
_cell_volume                      1700.12638476

loop_
_atom_site_label
_atom_site_type_symbol
_atom_type_description
_atom_site_fract_x
_atom_site_fract_y
_atom_site_fract_z
_atom_type_partial_charge
C1    C     C_R   0.498918 0.265742 0.498666 0.550742
C2    C     C_2   0.508145 0.867253 0.505989 -0.123872
C3    C     C_2   0.516896 0.065131 0.391925 -0.171686
C4    C     C_R   0.340629 0.499353 0.498452 0.547614
C5    C     C_2   0.493509 0.133315 0.498322 -0.119979
C6    C     C_2   0.446540 0.437530 0.919323 0.018100
C7    C     C_2   0.457381 0.418849 0.071829 0.072711
C8    C     C_R   0.502010 0.734434 0.501563 0.549721
C9    C     C_R   0.659401 0.499978 0.501494 0.545990
C10   C     C_3   0.050087 0.424526 0.628296 -0.082655
C11   C     C_3   0.046092 0.437286 0.367278 -0.188692
C12   C     C_3   0.951413 0.429773 0.629190 -0.221215
C13   C     C_3   0.947272 0.423780 0.366749 0.059856
C14   C     C_1   0.749037 0.498534 0.504240 -0.055612
C15   C     C_3   0.083230 0.496904 0.503371 0.068385
C16   C     C_3   0.562359 0.584160 0.916716 -0.089364
C17   C     C_3   0.638585 0.637041 0.842099 -0.261334
C18   C     C_3   0.687012 0.733713 0.932174 -0.517582
C19   C     C_3   0.423197 0.299514 0.128404 -0.204756
C20   C     C_3   0.364808 0.218760 0.033374 -0.359368
C21   C     C_3   0.333219 0.104356 0.105072 -0.457706
C22   C     C_3   0.081966 0.290655 0.638687 -0.269878
C23   C     C_3   0.916766 0.494633 0.500298 0.074275
C24   C     C_3   0.159371 0.281467 0.735182 -0.307498
C25   C     C_3   0.191412 0.150805 0.734287 -0.459444
C26   C     C_3   0.920957 0.282459 0.373482 -0.252393
C27   C     C_3   0.933964 0.202474 0.243973 -0.316873
C28   C     C_3   0.924820 0.065725 0.272834 -0.459831
C29   C     C_3   0.907263 0.469101 0.228769 -0.234347
C30   C     C_3   0.912675 0.606265 0.196311 -0.304386
C31   C     C_3   0.899300 0.625300 0.044065 -0.473300
C32   C     C_3   0.097378 0.720919 0.620819 -0.258885
C33   C     C_3   0.057016 0.735196 0.761024 -0.298754
C34   C     C_3   0.953335 0.629194 0.515786 -0.201593
C35   C     C_3   0.121187 0.783172 0.869798 -0.459340
C36   C     C_3   0.051476 0.632196 0.511884 -0.090273
C37   C     C_1   0.824530 0.496810 0.503476 -0.089049
C38   C     C_1   0.175495 0.496972 0.498068 -0.087657
C39   C     C_1   0.251009 0.498056 0.495785 -0.057143
C40   C     C_2   0.511638 0.930895 0.391333 -0.163581
Cu1   Cu    Cu3+1 0.500020 0.500020 0.638630 0.912317
Cu2   Cu    Cu3+1 0.499980 0.499980 0.361370 0.896510
H1    H     H_    0.919909 0.338425 0.639998 0.099849
H2    H     H_    0.512480 0.883840 0.292688 0.143804
H3    H     H_    0.539552 0.108076 0.301255 0.133042
H4    H     H_    0.647285 0.814184 0.951522 0.148628
H5    H     H_    0.706227 0.694781 0.031054 0.154722
H6    H     H_    0.744628 0.765613 0.880298 0.140051
H7    H     H_    0.683793 0.563327 0.821574 0.173399
H8    H     H_    0.620690 0.684614 0.749196 0.215206
H9    H     H_    0.528565 0.666207 0.952709 0.110376
H10   H     H_    0.596733 0.534565 0.996641 0.144636
H11   H     H_    0.387182 0.048385 0.137482 0.156206
H12   H     H_    0.927339 0.691687 0.440518 0.092110
H13   H     H_    0.296901 0.130672 0.195612 0.151561
H14   H     H_    0.291295 0.047612 0.034435 0.141649
H15   H     H_    0.309246 0.271681 0.001078 0.150771
H16   H     H_    0.399444 0.188388 0.942424 0.157862
H17   H     H_    0.478096 0.244062 0.155967 0.164974
H18   H     H_    0.386116 0.321962 0.218892 0.202132
H19   H     H_    0.141489 0.086000 0.768403 0.145935
H20   H     H_    0.210270 0.122685 0.630463 0.149853
H21   H     H_    0.247224 0.146111 0.804073 0.141087
H22   H     H_    0.211255 0.344494 0.705013 0.176273
H23   H     H_    0.512649 0.911586 0.605880 0.096892
H24   H     H_    0.142053 0.307790 0.840436 0.146176
H25   H     H_    0.031930 0.228991 0.678495 0.131747
H26   H     H_    0.097807 0.252368 0.537581 0.150359
H27   H     H_    0.066859 0.493838 0.281313 0.099039
H28   H     H_    0.075336 0.347771 0.347043 0.100364
H29   H     H_    0.974254 0.039117 0.347644 0.141249
H30   H     H_    0.861600 0.044175 0.313394 0.152251
H31   H     H_    0.931991 0.010925 0.177310 0.138550
H32   H     H_    0.885718 0.223236 0.164570 0.151725
H33   H     H_    0.997395 0.220529 0.202771 0.150752
H34   H     H_    0.469215 0.092728 0.589081 0.097715
H35   H     H_    0.956791 0.239449 0.456224 0.143116
H36   H     H_    0.853221 0.272813 0.398432 0.143121
H37   H     H_    0.951288 0.584217 0.987015 0.138681
H38   H     H_    0.838442 0.581652 0.007124 0.153063
H39   H     H_    0.898680 0.725059 0.024008 0.139680
H40   H     H_    0.861748 0.654598 0.248787 0.160879
H41   H     H_    0.975173 0.647722 0.226826 0.152142
H42   H     H_    0.938830 0.420413 0.144597 0.136273
H43   H     H_    0.839449 0.439651 0.221377 0.146840
H44   H     H_    0.171099 0.715255 0.885444 0.152036
H45   H     H_    0.397840 0.384601 0.862884 0.124032
H46   H     H_    0.150706 0.871503 0.839342 0.146948
H47   H     H_    0.089116 0.798199 0.967417 0.137249
H48   H     H_    0.005527 0.801888 0.754494 0.146030
H49   H     H_    0.029427 0.647568 0.795058 0.150325
H50   H     H_    0.163953 0.694855 0.635513 0.161372
H51   H     H_    0.101053 0.814298 0.577889 0.122286
H52   H     H_    0.067994 0.673589 0.413544 0.104100
H53   H     H_    0.490762 0.588231 0.129080 0.211273
H54   H     H_    0.930632 0.669018 0.612168 0.114519
H55   H     H_    0.074583 0.474181 0.721642 0.137212
H56   H     H_    0.933101 0.481453 0.722356 0.092003
N1    N     N_2   0.499090 0.498660 0.846910 -0.233345
N2    N     N_2   0.499070 0.498630 0.153040 -0.372065
O1    O     O_R   0.500010 0.321960 0.617040 -0.492840
O2    O     O_R   0.499990 0.321920 0.382900 -0.514167
O3    O     O_R   0.379450 0.500030 0.617120 -0.497990
O4    O     O_R   0.379420 0.499980 0.382980 -0.503690
O5    O     O_R   0.500010 0.678080 0.617100 -0.510872
O6    O     O_R   0.499990 0.678040 0.382960 -0.503423
O7    O     O_R   0.620580 0.500020 0.617020 -0.513867
O8    O     O_R   0.620550 0.499970 0.382880 -0.480040

loop_
_geom_bond_atom_site_label_1
_geom_bond_atom_site_label_2
_ccdc_geom_bond_type
Cu1   Cu2   S    
C19   C20   S    
C16   H9    S    
C2    H23   S    
C8    O5    A    
C11   H28   S    
C31   H38   S    
C32   H50   S    
C10   C22   S    
C9    O8    A    
C12   C23   S    
C26   C27   S    
C26   H36   S    
Cu1   O5    S    
C1    C5    S    
C32   C36   S    
C13   C29   S    
C34   H54   S    
C12   H1    S    
C10   C15   S    
C33   H49   S    
C30   C31   S    
C35   H44   S    
C4    O3    A    
Cu2   O2    S    
C13   C23   S    
C25   H21   S    
C30   H41   S    
C11   C15   S    
C16   C17   S    
Cu1   N1    S    
C27   H32   S    
C12   H56   S    
C24   H24   S    
C32   H51   S    
C24   H22   S    
C18   H5    S    
C28   H30   S    
C27   H33   S    
C28   H31   S    
C18   H4    S    
C26   H35   S    
C7    N2    D    
C8    O6    A    
C24   C25   S    
C29   H42   S    
C17   H7    S    
C21   H13   S    
C36   H52   S    
H53   N2    S    
C19   H17   S    
C23   C37   S    
C3    H3    S    
C6    H45   S    
Cu1   O3    S    
Cu2   O4    S    
C30   H40   S    
C10   H55   S    
C9    C14   S    
C15   C38   S    
C29   C30   S    
Cu2   N2    S    
C35   H46   S    
C4    C39   S    
C23   C34   S    
C17   C18   S    
C25   H19   S    
Cu2   O6    S    
C22   H26   S    
C10   C12   S    
C35   H47   S    
C3    C40   S    
C34   H12   S    
C7    C19   S    
C22   C24   S    
C13   C26   S    
C28   H29   S    
C20   H16   S    
C1    O1    A    
C15   C36   S    
Cu1   O7    S    
C29   H43   S    
C2    C8    S    
C16   H10   S    
C3    C5    D    
C18   H6    S    
C17   H8    S    
C21   H14   S    
C11   H27   S    
C16   N1    S    
C31   H37   S    
C6    C7    S    
C19   H18   S    
C9    O7    A    
C31   H39   S    
C32   C33   S    
C5    H34   S    
C33   H48   S    
C6    N1    D    
C14   C37   T    
C21   H11   S    
C11   C13   S    
C38   C39   T    
C4    O4    A    
C33   C35   S    
Cu1   O1    S    
C34   C36   S    
C25   H20   S    
C22   H25   S    
C2    C40   D    
C40   H2    S    
C20   C21   S    
C27   C28   S    
C20   H15   S    
Cu2   O8    S    
C1    O2    A    
