data_mof_unit_29658.cif
_audit_creation_date              2013-03-05T16:32:07-0500
_audit_creation_method            fapswitch 2.2
_symmetry_space_group_name_H-M    P1
_symmetry_Int_Tables_number       1
_space_group_crystal_system       triclinic
_cell_length_a                    10.766929
_cell_length_b                    10.832868
_cell_length_c                    9.649524
_cell_angle_alpha                 88.588128
_cell_angle_beta                  89.853652
_cell_angle_gamma                 92.53625
_cell_volume                      1124.03749191

loop_
_atom_site_label
_atom_site_type_symbol
_atom_site_description
_atom_site_fract_x
_atom_site_fract_y
_atom_site_fract_z
_atom_type_partial_charge
O1    O     O_R   0.500000 0.319640 0.618810 -0.549698
O2    O     O_R   0.500010 0.319680 0.381230 -0.550015
C1    C     C_R   0.503957 0.262423 0.500645 0.877052
O3    O     O_R   0.317690 0.499960 0.618790 -0.550485
O4    O     O_R   0.317700 0.500000 0.381210 -0.553377
C2    C     C_R   0.259873 0.497900 0.500259 0.862277
Cu1   Cu    Cu3+1 0.499990 0.499980 0.640670 0.997206
Cu2   Cu    Cu3+1 0.500010 0.500020 0.359330 0.999728
O5    O     O_R   0.499990 0.680320 0.618770 -0.583303
O6    O     O_R   0.500000 0.680360 0.381190 -0.588847
O7    O     O_R   0.682300 0.500000 0.618790 -0.598046
O8    O     O_R   0.682310 0.500040 0.381210 -0.597345
C3    C     C_R   0.505390 0.737356 0.498351 0.776164
C4    C     C_R   0.739710 0.501216 0.499801 0.751176
C5    C     C_3   0.062552 0.387457 0.595477 0.224089
H1    H     H_    0.086148 0.408862 0.704737 0.157156
C6    C     C_3   0.919033 0.385231 0.583868 -0.439351
H2    H     H_    0.883398 0.300032 0.532086 0.188297
H3    H     H_    0.878078 0.382943 0.690016 0.166063
H4    H     H_    0.116618 0.634802 0.663374 0.186739
H5    H     H_    0.904368 0.622711 0.675929 0.177214
C7    C     C_3   0.077714 0.619237 0.558159 -0.455737
C8    C     C_3   0.069201 0.482865 0.351568 -0.298480
C9    C     C_3   0.121062 0.495247 0.500873 -0.018327
H6    H     H_    0.111902 0.555839 0.280989 0.196241
H7    H     H_    0.090908 0.391639 0.310988 0.268566
C10   C     C_3   0.877336 0.499770 0.499948 0.095746
C11   C     C_3   0.934204 0.618398 0.565746 -0.373524
C12   C     C_3   0.928170 0.493182 0.350096 -0.401657
H8    H     H_    0.885109 0.412020 0.296710 0.185762
H9    H     H_    0.905005 0.578086 0.290069 0.181347
H10   H     H_    0.112696 0.697696 0.490011 0.191441
H11   H     H_    0.900610 0.701931 0.510599 0.171902
C13   C     C_R   0.546870 0.061192 0.617578 0.049438
C14   C     C_R   0.520122 0.129411 0.497830 -0.089708
C15   C     C_R   0.516756 0.067619 0.370692 -0.135771
H12   H     H_    0.505821 0.117313 0.273127 0.203919
C16   C     C_R   0.517950 0.938823 0.369034 -0.207847
H13   H     H_    0.506377 0.893098 0.271038 0.172581
C17   C     C_R   0.523654 0.870744 0.494444 -0.084037
C18   C     C_R   0.549498 0.933958 0.615814 0.117116
C19   C     C_3   0.490404 0.917693 0.755109 -0.463648
C20   C     C_3   0.484010 0.056750 0.754926 -0.329275
H14   H     H_    0.397352 0.868924 0.752362 0.217377
H15   H     H_    0.555509 0.881224 0.833778 0.196503
H16   H     H_    0.386892 0.086253 0.745259 0.278286
H17   H     H_    0.543071 0.100709 0.835874 0.215488
C21   C     C_R   0.571382 0.585082 0.070328 0.172954
N1    N     N_R   0.500800 0.500930 0.147930 -0.273764
C22   C     C_R   0.416776 0.428720 0.076562 0.325828
C23   C     C_R   0.426045 0.418500 0.930452 0.312783
N2    N     N_R   0.500800 0.500890 0.852020 -0.266037
C24   C     C_R   0.569131 0.587300 0.923665 0.177881
C25   C     C_3   0.707069 0.607992 0.916670 -0.465695
C26   C     C_3   0.708869 0.604129 0.073911 -0.467448
H18   H     H_    0.754639 0.529421 0.871215 0.213500
H19   H     H_    0.734752 0.700384 0.871028 0.191256
H20   H     H_    0.755128 0.522004 0.116647 0.210680
H21   H     H_    0.738482 0.693915 0.119457 0.194507
N3    N     N_R   0.310207 0.370807 0.144084 0.165463
O9    O     O_R   0.321597 0.269958 0.217543 -0.280446
O10   O     O_R   0.201603 0.392288 0.092250 -0.389406
N4    N     N_R   0.107293 0.263826 0.567980 0.142414
O11   O     O_R   0.070331 0.170972 0.648215 -0.323824
O12   O     O_R   0.187713 0.245105 0.470729 -0.335843
N5    N     N_R   0.367952 0.309704 0.873060 0.138933
O13   O     O_R   0.286521 0.318506 0.775667 -0.310412
O14   O     O_R   0.365938 0.207557 0.947033 -0.369720

loop_
_geom_bond_atom_site_label_1
_geom_bond_atom_site_label_2
_geom_bond_distance
_ccdc_geom_bond_type
O6    C3    1.301650 A    
C11   H11   1.113135 S    
O4    Cu2   1.973694 S    
N5    O14   1.301266 A    
C8    C9    1.553216 S    
N4    O12   1.300874 A    
C12   H8    1.113921 S    
C26   H21   1.111383 S    
C4    C10   1.482590 S    
C10   C12   1.549223 S    
C18   C19   1.488822 S    
C22   C23   1.420549 A    
C14   C15   1.411740 A    
C1    C14   1.459907 S    
Cu2   O8    1.974660 S    
C2    C9    1.493576 S    
C15   C16   1.396346 A    
C6    H2    1.114040 S    
C21   C26   1.486161 S    
C22   N3    1.430734 S    
Cu1   Cu2   2.714785 S    
C12   H9    1.112858 S    
C7    C11   1.546328 S    
C24   C25   1.493252 S    
Cu1   O7    1.973695 S    
C20   H16   1.110339 S    
O4    C2    1.304467 A    
C13   C18   1.380370 A    
C7    H10   1.113355 S    
C15   H12   1.082222 S    
O3    Cu1   1.974661 S    
C21   N1    1.368001 A    
C5    H1    1.112685 S    
C8    C12   1.527579 S    
O3    C2    1.303795 A    
C17   C18   1.393670 A    
C16   C17   1.404471 A    
H5    C11   1.112580 S    
O8    C4    1.302034 A    
Cu1   N2    2.039734 S    
O2    C1    1.296791 A    
C7    C9    1.555063 S    
C8    H6    1.113482 S    
C21   C24   1.415129 A    
C13   C14   1.393824 A    
O7    C4    1.302112 A    
C25   H18   1.111305 S    
C8    H7    1.106169 S    
C19   C20   1.510955 S    
C23   N5    1.433757 S    
C23   N2    1.384644 A    
C6    C10   1.548710 S    
Cu1   O5    1.959813 S    
C16   H13   1.083176 S    
N2    C24   1.367106 A    
N3    O10   1.301156 A    
N1    C22   1.368103 A    
C26   H20   1.109870 S    
O2    Cu2   1.959811 S    
C10   C11   1.549836 S    
C5    C6    1.548768 S    
C5    N4    1.473126 S    
C25   C26   1.517040 S    
C5    C9    1.572610 S    
C3    C17   1.449194 S    
O5    C3    1.302475 A    
N5    O13   1.291592 A    
C6    H3    1.113410 S    
O1    Cu1   1.970120 S    
C20   H17   1.111460 S    
Cu2   N1    2.039685 S    
C19   H15   1.111839 S    
Cu2   O6    1.970120 S    
C19   H14   1.112456 S    
C13   C20   1.485371 S    
N4    O11   1.301614 A    
H4    C7    1.113114 S    
N3    O9    1.298138 A    
O1    C1    1.312649 A    
C25   H19   1.111648 S    
