data_mof_unit_23088.cif
_audit_creation_date              2012-12-11T15:44:59-0500
_audit_creation_method            fapswitch 2.2
_symmetry_space_group_name_H-M    P1
_symmetry_Int_Tables_number       1
_space_group_crystal_system       triclinic
_cell_length_a                    6.924688
_cell_length_b                    16.994997
_cell_length_c                    16.950605
_cell_angle_alpha                 100.365272
_cell_angle_beta                  89.968036
_cell_angle_gamma                 90.801785
_cell_volume                      1962.08253934

loop_
_atom_site_label
_atom_site_type_symbol
_atom_type_description
_atom_site_fract_x
_atom_site_fract_y
_atom_site_fract_z
_atom_type_partial_charge
O1    O     O_R   0.494370 0.415690 0.413450 -0.541864
O2    O     O_R   0.819420 0.429360 0.578420 -0.541526
O3    O     O_R   0.994280 0.584310 0.586550 -0.539553
C1    C     C_R   0.648188 0.413344 0.605039 0.701161
O4    O     O_R   0.823790 0.406230 0.413570 -0.545550
O5    O     O_R   0.998670 0.561000 0.420530 -0.538286
C2    C     C_R   0.653901 0.384456 0.383910 0.707338
O6    O     O_R   0.489970 0.439000 0.579470 -0.539819
O7    O     O_3   0.662300 0.550810 0.502470 -0.368171
V1    V     V_3+5 0.935380 0.490570 0.499540 1.396955
O8    O     O_R   0.328650 0.570640 0.421580 -0.540222
C3    C     C_R   0.158578 0.585417 0.394023 0.699279
O9    O     O_R   0.324290 0.593770 0.586430 -0.544318
C4    C     C_R   0.155610 0.616989 0.615145 0.684949
V2    V     V_3+5 0.435930 0.509430 0.500460 1.399350
O10   O     O_3   0.159140 0.449190 0.497530 -0.369889
C5    C     C_R   0.312560 0.724307 0.718598 -0.159774
H1    H     H_    0.453700 0.705562 0.695598 0.115833
C6    C     C_R   0.300716 0.787995 0.783629 -0.149389
H2    H     H_    0.433603 0.816399 0.808497 0.117520
C7    C     C_R   0.120480 0.814681 0.815975 -0.042619
C8    C     C_R   0.952451 0.775782 0.781284 -0.159626
H3    H     H_    0.811309 0.794521 0.804285 0.114792
C9    C     C_R   0.964295 0.712097 0.716255 -0.148887
H4    H     H_    0.831403 0.683692 0.691394 0.119099
C10   C     C_R   0.144528 0.685405 0.683909 -0.047504
C11   C     C_R   0.135630 0.635765 0.331142 -0.070522
C12   C     C_R   0.135665 0.860793 0.167158 -0.169261
C13   C     C_R   0.338090 0.819589 0.271384 -0.291211
C14   C     C_R   0.304335 0.872095 0.216986 0.448273
C15   C     C_R   0.011670 0.795357 0.171389 -0.338998
C16   C     C_R   0.052649 0.741642 0.223733 0.165829
C17   C     C_R   0.217669 0.753802 0.273679 0.103368
C18   C     C_R   0.259396 0.700684 0.326516 -0.215802
C19   C     C_R   0.972106 0.623734 0.280379 -0.159959
C20   C     C_R   0.931509 0.675688 0.227254 -0.172530
H5    H     H_    0.383938 0.711480 0.365922 0.121178
H6    H     H_    0.872989 0.574294 0.282602 0.123282
H7    H     H_    0.458314 0.829250 0.312769 0.129562
H8    H     H_    0.803802 0.664801 0.189747 0.117050
H9    H     H_    0.886669 0.784899 0.132249 0.136272
C21   C     C_R   0.622474 0.360189 0.665633 -0.070945
C22   C     C_R   0.642295 0.139868 0.834396 -0.066897
C23   C     C_R   0.858766 0.192683 0.741334 -0.203291
C24   C     C_R   0.819414 0.138829 0.792766 -0.159149
C25   C     C_R   0.502831 0.195601 0.821676 -0.242625
C26   C     C_R   0.542442 0.250572 0.770099 0.160153
C27   C     C_R   0.722243 0.249415 0.729848 0.160913
C28   C     C_R   0.761883 0.304411 0.678300 -0.243785
C29   C     C_R   0.445314 0.361193 0.707227 -0.159826
C30   C     C_R   0.405913 0.307299 0.758610 -0.201854
H10   H     H_    0.898204 0.302251 0.646556 0.123197
H11   H     H_    0.334484 0.403488 0.699384 0.130750
H12   H     H_    0.997034 0.190300 0.711059 0.120282
H13   H     H_    0.267625 0.309667 0.788868 0.121721
H14   H     H_    0.930254 0.096544 0.800624 0.129113
H15   H     H_    0.366510 0.197763 0.853419 0.124274
C31   C     C_R   0.804392 0.271450 0.291675 -0.267558
H16   H     H_    0.938866 0.288561 0.322751 0.120760
C32   C     C_R   0.795330 0.202265 0.231389 0.446072
C33   C     C_R   0.623672 0.184719 0.185406 -0.131859
C34   C     C_R   0.461187 0.232844 0.207163 -0.232614
H17   H     H_    0.326843 0.220637 0.174296 0.175258
C35   C     C_R   0.468583 0.297014 0.271957 -0.165597
H18   H     H_    0.339622 0.331650 0.287682 0.130055
C36   C     C_R   0.641242 0.317029 0.314767 -0.090186
O11   O     O_R   0.774880 0.061150 0.920630 -0.543203
O12   O     O_R   0.440980 0.093710 0.086500 -0.542042
O13   O     O_R   0.266190 0.938890 0.079390 -0.509789
C37   C     C_R   0.610775 0.116229 0.116094 0.734477
O14   O     O_R   0.445420 0.070740 0.921670 -0.545412
O15   O     O_R   0.270660 0.915760 0.913380 -0.545030
C38   C     C_R   0.616636 0.086762 0.895039 0.687459
O16   O     O_R   0.770400 0.084270 0.086640 -0.508307
O17   O     O_3   0.602590 0.949210 0.997500 -0.374480
V3    V     V_3+5 0.329470 0.009420 0.000470 1.452851
O18   O     O_R   0.940650 0.906250 0.913470 -0.548623
C39   C     C_R   0.109358 0.883071 0.884760 0.666715
O19   O     O_R   0.936210 0.929220 0.078300 -0.552282
C40   C     C_R   0.107356 0.912822 0.104925 0.740759
V4    V     V_3+5 0.828930 0.990510 0.999490 1.436960
O20   O     O_3   0.105680 0.050790 0.002500 -0.360336
O21   O     O_3   0.952602 0.151886 0.215884 -0.551467
C41   C     C_3   0.042239 0.140466 0.288046 0.003105
H19   H     H_    0.935267 0.134554 0.335985 0.120192
H20   H     H_    0.145320 0.190327 0.309658 0.135457
C42   C     C_3   0.157060 0.064843 0.272098 -0.606373
H21   H     H_    0.234494 0.056752 0.327368 0.181110
H22   H     H_    0.057931 0.013216 0.253194 0.196737
H23   H     H_    0.263204 0.069209 0.224040 0.255727
O22   O     O_3   0.421582 0.939226 0.214444 -0.567539
C43   C     C_3   0.616364 0.933071 0.237267 0.107577
H24   H     H_    0.706594 0.962218 0.196523 0.164564
H25   H     H_    0.668468 0.870669 0.230058 0.108552
C44   C     C_3   0.650255 0.979407 0.322006 -0.785137
H26   H     H_    0.550459 0.958488 0.365315 0.221659
H27   H     H_    0.801157 0.971251 0.340717 0.192865
H28   H     H_    0.625852 0.044110 0.323407 0.221077

loop_
_geom_bond_atom_site_label_1
_geom_bond_atom_site_label_2
_ccdc_geom_bond_type
C33   C37   S    
C22   C38   S    
C42   H21   S    
C18   H5    S    
C44   H26   S    
C41   C42   S    
O15   V3    S    
V4    O20   S    
C44   H28   S    
O18   C39   A    
C34   H17   S    
O21   C41   S    
C5    C10   A    
C16   C20   A    
C6    C7    A    
C9    C10   A    
O5    C3    A    
O14   V3    S    
C32   O21   S    
C31   C32   A    
V2    O10   S    
C13   C17   A    
O13   V3    S    
O15   C39   A    
O8    V2    S    
C31   C36   A    
C26   C27   A    
C24   H14   S    
C7    C39   S    
C37   O16   A    
C34   C35   A    
O11   C38   A    
O7    V1    S    
C1    O6    A    
O9    C4    A    
C5    H1    S    
C11   C18   A    
C29   H11   S    
C3    C11   S    
C20   H8    S    
C19   H6    S    
C9    H4    S    
V3    O20   S    
O22   C43   S    
O4    C2    A    
O17   V4    S    
C26   C30   A    
C11   C19   A    
C31   H16   S    
C43   C44   S    
C4    C10   S    
C32   C33   A    
C19   C20   A    
C35   C36   A    
O2    C1    A    
O17   V3    S    
C13   C14   A    
C15   C16   A    
O18   V4    S    
C28   H10   S    
C13   H7    S    
C43   H25   S    
C29   C30   A    
C41   H19   S    
C22   C24   A    
O3    C4    A    
C21   C29   A    
O1    V2    S    
C27   C28   A    
O11   V4    S    
O6    V2    S    
O9    V2    S    
C25   H15   S    
C8    C9    A    
O16   V4    S    
O2    V1    S    
C23   C24   A    
O19   V4    S    
C25   C26   A    
C15   H9    S    
O1    C2    A    
C12   C15   A    
C41   H20   S    
C14   O22   S    
O5    V1    S    
O8    C3    A    
C44   H27   S    
O12   V3    S    
C16   C17   A    
C6    H2    S    
C12   C14   A    
O7    V2    S    
O4    V1    S    
O3    V1    S    
V1    O10   S    
C35   H18   S    
C2    C36   S    
C1    C21   S    
C43   H24   S    
C5    C6    A    
C17   C18   A    
C30   H13   S    
C33   C34   A    
C12   C40   S    
C22   C25   A    
C21   C28   A    
O19   C40   A    
C23   H12   S    
O12   C37   A    
C42   H23   S    
O14   C38   A    
C42   H22   S    
C8    H3    S    
O13   C40   A    
C7    C8    A    
C23   C27   A    
