data_mof_unit_61844.cif
_audit_creation_date              2012-12-10T18:50:53-0500
_audit_creation_method            fapswitch 2.2
_symmetry_space_group_name_H-M    P1
_symmetry_Int_Tables_number       1
_space_group_crystal_system       triclinic
_cell_length_a                    37.048516
_cell_length_b                    30.24318
_cell_length_c                    21.726891
_cell_angle_alpha                 89.967629
_cell_angle_beta                  125.292104
_cell_angle_gamma                 90.040924
_cell_volume                      19870.1657551

loop_
_atom_site_label
_atom_site_type_symbol
_atom_type_description
_atom_site_fract_x
_atom_site_fract_y
_atom_site_fract_z
_atom_type_partial_charge
C1    C     C_R   0.413796 0.500017 0.914122 0.970227
C2    C     C_R   0.586204 0.500036 0.085879 0.970270
C3    C     C_R   0.913796 0.000017 0.914123 0.970232
C4    C     C_R   0.086204 0.000036 0.085880 0.970229
C5    C     C_2   0.506368 0.498332 0.821473 -0.317822
C6    C     C_2   0.493614 0.498270 0.178507 -0.317792
C7    C     C_2   0.006368 0.998333 0.821474 -0.317814
C8    C     C_2   0.993614 0.998270 0.178507 -0.317467
C9    C     C_R   0.296552 0.527135 0.840405 0.332289
C10   C     C_R   0.703460 0.527259 0.159609 0.332693
C11   C     C_R   0.796552 0.027135 0.840407 0.332369
C12   C     C_R   0.203461 0.027238 0.159597 0.332384
C13   C     C_R   0.342788 0.526068 0.887573 0.167275
C14   C     C_R   0.657223 0.526168 0.112442 0.167241
C15   C     C_R   0.842788 0.026067 0.887575 0.167244
C16   C     C_R   0.157224 0.026153 0.112433 0.167216
C17   C     C_R   0.365893 0.500225 0.866872 -0.226543
C18   C     C_R   0.634107 0.500288 0.133145 -0.226546
C19   C     C_R   0.865893 0.000225 0.866872 -0.226539
C20   C     C_R   0.134106 0.000287 0.133148 -0.226594
C21   C     C_R   0.342906 0.475296 0.799949 0.248708
C22   C     C_R   0.657083 0.475357 0.200079 0.248792
C23   C     C_R   0.842905 0.975298 0.799948 0.248729
C24   C     C_R   0.157081 0.975363 0.200090 0.248624
C25   C     C_R   0.297141 0.475762 0.754603 -0.269793
C26   C     C_R   0.702848 0.475849 0.245428 -0.269720
C27   C     C_R   0.797141 0.975764 0.754602 -0.269673
C28   C     C_R   0.202845 0.975851 0.245438 -0.269751
C29   C     C_R   0.274045 0.501210 0.774631 -0.056101
C30   C     C_R   0.725955 0.501325 0.225389 -0.055971
C31   C     C_R   0.774045 0.001212 0.774631 -0.056097
C32   C     C_R   0.225954 0.001314 0.225387 -0.056067
C33   C     C_R   0.203661 0.516200 0.652750 -0.211765
C34   C     C_R   0.796367 0.516290 0.347253 -0.210733
C35   C     C_R   0.703660 0.016205 0.652753 -0.211386
C36   C     C_R   0.296366 0.016289 0.347247 -0.211471
C37   C     C_R   0.157826 0.515582 0.606253 -0.190186
C38   C     C_R   0.842201 0.515636 0.393750 -0.188880
C39   C     C_R   0.657826 0.015587 0.606255 -0.189394
C40   C     C_R   0.342200 0.015638 0.393744 -0.189447
C41   C     C_R   0.134292 0.498974 0.633541 -0.095108
C42   C     C_R   0.865707 0.499013 0.366458 -0.095832
C43   C     C_R   0.634292 0.998976 0.633541 -0.095315
C44   C     C_R   0.365706 0.999007 0.366460 -0.095341
C45   C     C_R   0.501622 0.499858 0.882588 0.959472
C46   C     C_R   0.498376 0.499836 0.117410 0.959470
C47   C     C_R   0.001622 0.999859 0.882588 0.959490
C48   C     C_R   0.998376 0.999836 0.117409 0.959423
C49   C     C_R   0.156735 0.481657 0.706628 -0.238369
C50   C     C_R   0.843234 0.481726 0.293361 -0.239131
C51   C     C_R   0.656735 0.981656 0.706627 -0.238248
C52   C     C_R   0.343235 0.981705 0.293371 -0.238540
C53   C     C_R   0.202707 0.480700 0.752495 0.528243
C54   C     C_R   0.797260 0.480809 0.247490 0.528164
C55   C     C_R   0.702707 0.980699 0.752494 0.528216
C56   C     C_R   0.297260 0.980785 0.247501 0.528249
C57   C     C_R   0.226062 0.499619 0.726176 0.052766
C58   C     C_R   0.773937 0.499734 0.273821 0.052438
C59   C     C_R   0.726062 0.999622 0.726177 0.052519
C60   C     C_R   0.273936 0.999721 0.273822 0.052618
C61   C     C_R   0.499990 0.413740 0.499984 0.937648
C62   C     C_R   0.999976 0.913712 0.500027 0.938343
C63   C     C_R   0.499611 0.501580 0.618601 0.954191
C64   C     C_R   0.500390 0.501574 0.381397 0.954133
C65   C     C_R   0.999611 0.001580 0.618601 0.954090
C66   C     C_R   0.000390 0.001574 0.381397 0.954858
C67   C     C_R   0.500009 0.586183 0.500011 1.035278
C68   C     C_R   0.000009 0.086183 0.500011 1.035176
C69   C     C_R   0.999999 0.413739 0.500015 0.987107
C70   C     C_R   0.499999 0.913739 0.500015 0.986603
C71   C     C_R   0.086372 0.499766 0.586098 0.922752
C72   C     C_R   0.913628 0.499770 0.413901 0.923150
C73   C     C_R   0.586372 0.999766 0.586098 0.922597
C74   C     C_R   0.413628 0.999768 0.413901 0.922572
C75   C     C_R   0.000015 0.586386 0.499971 0.928544
C76   C     C_R   0.499996 0.086355 0.499981 0.928908
C77   C     C_R   0.460608 0.297064 0.474580 0.484650
C78   C     C_R   0.539257 0.297089 0.525040 0.484631
C79   C     C_R   0.959746 0.797035 0.469943 0.499438
C80   C     C_R   0.038971 0.796772 0.525322 0.474816
C81   C     C_R   0.000028 0.274083 0.500083 0.122053
C82   C     C_R   0.500030 0.774083 0.500085 0.122036
C83   C     C_R   0.461132 0.342910 0.475911 -0.298846
C84   C     C_R   0.538778 0.342936 0.523844 -0.299105
C85   C     C_R   0.960414 0.842923 0.472311 -0.316709
C86   C     C_R   0.038850 0.842674 0.525258 -0.293302
C87   C     C_R   0.499967 0.365851 0.499919 -0.179428
C88   C     C_R   0.999824 0.865770 0.499624 -0.173980
C89   C     C_R   0.499923 0.274047 0.499782 -0.105782
C90   C     C_R   0.999249 0.774009 0.497861 -0.068360
C91   C     C_R   0.007155 0.703212 0.450825 0.500111
C92   C     C_R   0.989624 0.703241 0.543594 0.466790
C93   C     C_R   0.510308 0.202993 0.455555 0.483966
C94   C     C_R   0.489547 0.202969 0.544088 0.483894
C95   C     C_R   0.008681 0.657126 0.453582 -0.336970
C96   C     C_R   0.989567 0.657367 0.543356 -0.297830
C97   C     C_R   0.510868 0.157147 0.456849 -0.299432
C98   C     C_R   0.489041 0.157122 0.542917 -0.299496
C99   C     C_R   0.999661 0.634312 0.499333 -0.158058
C100  C     C_R   0.499971 0.134221 0.499918 -0.173543
C101  C     C_R   0.998859 0.726027 0.497687 -0.062266
C102  C     C_R   0.499917 0.226010 0.499795 -0.105126
C103  C     C_R   0.488576 0.703091 0.542744 0.189210
C104  C     C_R   0.511511 0.703158 0.457430 0.189281
C105  C     C_R   0.988584 0.203091 0.542755 0.189235
C106  C     C_R   0.011500 0.203158 0.457415 0.189307
C107  C     C_R   0.486306 0.656884 0.539541 0.342932
C108  C     C_R   0.513761 0.656951 0.460585 0.342906
C109  C     C_R   0.986316 0.156884 0.539555 0.342959
C110  C     C_R   0.013751 0.156951 0.460569 0.342941
C111  C     C_R   0.500029 0.634082 0.500051 -0.343594
C112  C     C_R   0.000029 0.134082 0.500050 -0.343558
C113  C     C_R   0.963779 0.296863 0.440305 -0.099115
C114  C     C_R   0.036262 0.296898 0.559850 -0.099031
C115  C     C_R   0.463782 0.796862 0.440303 -0.099128
C116  C     C_R   0.536261 0.796899 0.559855 -0.099015
C117  C     C_R   0.500044 0.726033 0.500093 -0.180905
C118  C     C_R   0.000042 0.226033 0.500091 -0.180891
C119  C     C_R   0.000003 0.365907 0.500052 -0.165600
C120  C     C_R   0.500004 0.865907 0.500053 -0.165457
C121  C     C_R   0.963625 0.342811 0.439765 0.217171
C122  C     C_R   0.036391 0.342847 0.560359 0.217133
C123  C     C_R   0.463628 0.842810 0.439763 0.217198
C124  C     C_R   0.536389 0.842847 0.560364 0.217197
C125  C     C_2   0.528711 0.527610 0.744720 -0.107325
C126  C     C_2   0.471265 0.527525 0.255208 -0.107579
C127  C     C_2   0.028710 0.027611 0.744720 -0.107335
C128  C     C_2   0.971264 0.027525 0.255207 -0.108077
C129  C     C_2   0.497566 0.506089 0.682323 -0.353857
C130  C     C_2   0.502433 0.506071 0.317664 -0.353904
C131  C     C_2   0.997566 0.006090 0.682324 -0.353956
C132  C     C_2   0.002432 0.006071 0.317663 -0.353193
C133  C     C_2   0.524619 0.531427 0.807520 -0.118294
C134  C     C_2   0.475349 0.531338 0.192397 -0.118156
C135  C     C_2   0.024619 0.031428 0.807520 -0.118238
C136  C     C_2   0.975348 0.031338 0.192397 -0.118384
H1    H     H_    0.556156 0.543757 0.748571 0.188853
H2    H     H_    0.443809 0.543630 0.251318 0.188918
H3    H     H_    0.056155 0.043759 0.748570 0.188907
H4    H     H_    0.943809 0.043630 0.251318 0.188935
H5    H     H_    0.140798 0.528997 0.549778 0.170796
H6    H     H_    0.859251 0.529031 0.450230 0.171916
H7    H     H_    0.640798 0.029004 0.549782 0.171520
H8    H     H_    0.359249 0.029044 0.450218 0.171527
H9    H     H_    0.138738 0.468319 0.727842 0.198364
H10   H     H_    0.861208 0.468379 0.272143 0.198201
H11   H     H_    0.638739 0.968316 0.727840 0.198405
H12   H     H_    0.361209 0.968351 0.272160 0.198331
H13   H     H_    0.935749 0.278839 0.394348 0.182325
H14   H     H_    0.064302 0.278903 0.605818 0.182336
H15   H     H_    0.435753 0.778838 0.394344 0.182311
H16   H     H_    0.564301 0.778903 0.605826 0.182326
H17   H     H_    0.431102 0.360422 0.458360 0.194264
H18   H     H_    0.568824 0.360470 0.541445 0.194273
H19   H     H_    0.930050 0.860489 0.452470 0.190358
H20   H     H_    0.069240 0.860088 0.544640 0.193971
H21   H     H_    0.017118 0.639228 0.420390 0.175835
H22   H     H_    0.981348 0.639934 0.577316 0.191303
H23   H     H_    0.520016 0.139616 0.424287 0.191628
H24   H     H_    0.479913 0.139571 0.575525 0.191641
H25   H     H_    0.467473 0.494635 0.674940 0.164362
H26   H     H_    0.532530 0.494657 0.325065 0.164482
H27   H     H_    0.967473 0.994634 0.674941 0.164420
H28   H     H_    0.032529 0.994656 0.325064 0.164833
H29   H     H_    0.537964 0.560411 0.843607 0.208655
H30   H     H_    0.461999 0.560309 0.156263 0.208709
H31   H     H_    0.037962 0.060413 0.843605 0.208651
H32   H     H_    0.961999 0.060309 0.156264 0.208740
H33   H     H_    0.497565 0.467375 0.790539 0.168895
H34   H     H_    0.502429 0.467321 0.209495 0.168886
H35   H     H_    0.997567 0.967375 0.790540 0.168844
H36   H     H_    0.002428 0.967321 0.209493 0.169589
H37   H     H_    0.279384 0.456214 0.703380 0.193885
H38   H     H_    0.720597 0.456293 0.296654 0.193891
H39   H     H_    0.779383 0.956217 0.703378 0.193974
H40   H     H_    0.220592 0.956302 0.296672 0.193926
H41   H     H_    0.221720 0.530051 0.632004 0.172757
H42   H     H_    0.778332 0.530144 0.368008 0.173331
H43   H     H_    0.721719 0.030059 0.632008 0.173049
H44   H     H_    0.278330 0.030151 0.367995 0.173049
O1    O     O_R   0.434530 0.536960 0.934530 -0.591466
O2    O     O_R   0.565470 0.536960 0.065470 -0.591399
O3    O     O_R   0.934530 0.036960 0.934530 -0.591467
O4    O     O_R   0.065470 0.036960 0.065470 -0.591498
O5    O     O_R   0.065470 0.500010 0.514410 -0.628232
O6    O     O_R   0.934530 0.500010 0.485590 -0.627470
O7    O     O_R   0.565470 0.000010 0.514410 -0.627888
O8    O     O_R   0.434530 0.000010 0.485590 -0.627917
O9    O     O_R   0.065460 0.500010 0.616540 -0.609560
O10   O     O_R   0.934540 0.500010 0.383460 -0.610230
O11   O     O_R   0.565460 0.000010 0.616540 -0.609593
O12   O     O_R   0.434540 0.000010 0.383460 -0.609583
O13   O     O_R   0.000010 0.565480 0.448930 -0.632294
O14   O     O_R   0.999990 0.565480 0.551070 -0.631716
O15   O     O_R   0.500010 0.065480 0.448930 -0.631084
O16   O     O_R   0.499990 0.065480 0.551070 -0.631065
O17   O     O_R   0.434530 0.463040 0.934530 -0.594523
O18   O     O_R   0.565470 0.463040 0.065470 -0.594549
O19   O     O_R   0.934530 0.963040 0.934530 -0.594507
O20   O     O_R   0.065470 0.963040 0.065470 -0.594550
O21   O     O_R   0.500010 0.536960 0.909550 -0.606769
O22   O     O_R   0.499990 0.536960 0.090450 -0.606712
O23   O     O_R   0.000010 0.036960 0.909550 -0.606778
O24   O     O_R   0.999990 0.036960 0.090450 -0.606824
O25   O     O_R   0.500010 0.463040 0.909550 -0.610434
O26   O     O_R   0.499990 0.463040 0.090450 -0.610454
O27   O     O_R   0.000010 0.963040 0.909550 -0.610487
O28   O     O_R   0.999990 0.963040 0.090450 -0.610103
O29   O     O_R   0.536960 0.434530 0.536970 -0.626123
O30   O     O_R   0.463040 0.434530 0.463030 -0.626148
O31   O     O_R   0.036960 0.934530 0.536970 -0.626423
O32   O     O_R   0.963040 0.934530 0.463030 -0.626331
O33   O     O_R   0.536950 0.500000 0.627420 -0.612152
O34   O     O_R   0.463050 0.500000 0.372580 -0.612124
O35   O     O_R   0.036950 0.000000 0.627420 -0.612282
O36   O     O_R   0.963050 0.000000 0.372580 -0.612443
O37   O     O_R   0.463030 0.500000 0.553490 -0.627833
O38   O     O_R   0.536970 0.500000 0.446510 -0.627818
O39   O     O_R   0.963030 0.000000 0.553490 -0.627675
O40   O     O_R   0.036970 0.000000 0.446510 -0.627312
O41   O     O_R   0.536960 0.565470 0.536960 -0.632640
O42   O     O_R   0.463040 0.565470 0.463040 -0.632601
O43   O     O_R   0.036960 0.065470 0.536960 -0.632665
O44   O     O_R   0.963040 0.065470 0.463040 -0.632618
O45   O     O_R   0.000000 0.434540 0.448940 -0.588777
O46   O     O_R   0.000000 0.434540 0.551060 -0.588735
O47   O     O_R   0.500000 0.934540 0.448940 -0.588784
O48   O     O_R   0.500000 0.934540 0.551060 -0.588857
Zn1   Zn    Zn3+2 0.500000 0.549350 0.000000 1.067338
Zn2   Zn    Zn3+2 1.000000 0.049350 0.000000 1.067139
Zn3   Zn    Zn3+2 0.500000 0.450640 0.000000 1.049414
Zn4   Zn    Zn3+2 0.000000 0.950640 0.000000 1.049731
Zn5   Zn    Zn3+2 0.549360 0.500000 0.549360 0.978681
Zn6   Zn    Zn3+2 0.450640 0.500000 0.450640 0.978680
Zn7   Zn    Zn3+2 0.049360 1.000000 0.549360 0.979280
Zn8   Zn    Zn3+2 0.950640 0.000000 0.450640 0.978188
Zn9   Zn    Zn3+2 0.000010 0.500010 0.431810 1.013331
Zn10  Zn    Zn3+2 0.999990 0.500010 0.568190 1.017370
Zn11  Zn    Zn3+2 0.500010 0.000010 0.431810 1.017494
Zn12  Zn    Zn3+2 0.499990 0.000010 0.568190 1.017414
O49   O     O_3   0.224820 0.463554 0.824560 -0.586664
C137  C     C_3   0.229440 0.417526 0.820745 0.080321
H45   H     H_    0.246327 0.409838 0.793022 0.145567
H46   H     H_    0.196531 0.400966 0.789335 0.179497
C138  C     C_3   0.257456 0.398830 0.900300 -0.726661
H47   H     H_    0.241298 0.405340 0.929378 0.265043
H48   H     H_    0.261302 0.362573 0.898103 0.207733
H49   H     H_    0.290699 0.414483 0.932685 0.259888
O50   O     O_3   0.775115 0.463689 0.175416 -0.586821
C139  C     C_3   0.770448 0.417657 0.179216 0.080311
H50   H     H_    0.753573 0.409950 0.206973 0.145607
H51   H     H_    0.803337 0.401093 0.210587 0.179379
C140  C     C_3   0.742385 0.398993 0.099654 -0.726903
H52   H     H_    0.758528 0.405523 0.070542 0.264963
H53   H     H_    0.738502 0.362733 0.101838 0.207769
H54   H     H_    0.709160 0.414651 0.067308 0.259902
O51   O     O_3   0.724820 0.963551 0.824558 -0.586647
C141  C     C_3   0.729441 0.917524 0.820740 0.080434
H55   H     H_    0.746328 0.909838 0.793015 0.145574
H56   H     H_    0.696532 0.900963 0.789329 0.179489
C142  C     C_3   0.757458 0.898826 0.900293 -0.726886
H57   H     H_    0.741300 0.905334 0.929372 0.265020
H58   H     H_    0.761303 0.862569 0.898095 0.207684
H59   H     H_    0.790700 0.914479 0.932679 0.259916
O52   O     O_3   0.275116 0.963652 0.175437 -0.586624
C143  C     C_3   0.270450 0.917622 0.179261 0.080269
H60   H     H_    0.253575 0.909925 0.207020 0.145544
H61   H     H_    0.303341 0.901058 0.210642 0.179382
C144  C     C_3   0.242389 0.898943 0.099709 -0.726617
H62   H     H_    0.258533 0.905462 0.070595 0.265077
H63   H     H_    0.238507 0.862685 0.101912 0.207691
H64   H     H_    0.209164 0.914600 0.067353 0.259872
O53   O     O_3   0.422419 0.275173 0.454332 -0.553745
C145  C     C_3   0.397240 0.265494 0.376569 0.067854
H65   H     H_    0.413318 0.238780 0.365389 0.123084
H66   H     H_    0.392568 0.295271 0.342343 0.130705
C146  C     C_3   0.351868 0.249052 0.351536 -0.725320
H67   H     H_    0.334580 0.275026 0.361432 0.256363
H68   H     H_    0.331798 0.240928 0.290484 0.207630
H69   H     H_    0.355312 0.218885 0.383724 0.263864
O54   O     O_3   0.577426 0.275224 0.545243 -0.553711
C147  C     C_3   0.602644 0.265563 0.623021 0.067854
H70   H     H_    0.586548 0.238882 0.634299 0.122968
H71   H     H_    0.607397 0.295359 0.657226 0.130787
C148  C     C_3   0.647966 0.249070 0.647963 -0.725311
H72   H     H_    0.665270 0.275010 0.637966 0.256424
H73   H     H_    0.668067 0.240964 0.709029 0.207584
H74   H     H_    0.644439 0.218883 0.615794 0.263822
O55   O     O_3   0.920817 0.774443 0.442818 -0.563888
C149  C     C_3   0.895653 0.773630 0.363327 0.067335
H75   H     H_    0.915625 0.761883 0.343085 0.131970
H76   H     H_    0.882331 0.807136 0.339899 0.148937
C150  C     C_3   0.857023 0.741985 0.333495 -0.739387
H77   H     H_    0.835869 0.753015 0.351507 0.266111
H78   H     H_    0.836842 0.741149 0.270929 0.209577
H79   H     H_    0.869522 0.708156 0.355528 0.256738
O56   O     O_3   0.076942 0.774601 0.545249 -0.558973
C151  C     C_3   0.102183 0.764792 0.622970 0.058080
H80   H     H_    0.086133 0.737931 0.633993 0.122437
H81   H     H_    0.106868 0.794443 0.657415 0.132586
C152  C     C_3   0.147556 0.748510 0.647837 -0.724941
H82   H     H_    0.164803 0.774624 0.638041 0.256982
H83   H     H_    0.167662 0.740258 0.708848 0.208407
H84   H     H_    0.144121 0.718452 0.615477 0.261761
O57   O     O_3   0.015977 0.726865 0.406125 -0.569687
C153  C     C_3   0.987224 0.713773 0.329843 0.077266
H85   H     H_    0.953215 0.706057 0.313217 0.125088
H86   H     H_    0.000934 0.684352 0.319383 0.158031
C154  C     C_3   0.983517 0.751303 0.279882 -0.774606
H87   H     H_    0.016652 0.759352 0.293506 0.272591
H88   H     H_    0.961335 0.741385 0.219711 0.209489
H89   H     H_    0.969661 0.781138 0.288954 0.244702
O58   O     O_3   0.976406 0.725431 0.583091 -0.559185
C155  C     C_3   0.013844 0.734511 0.656568 0.065375
H90   H     H_    0.033942 0.761160 0.654949 0.119757
H91   H     H_    0.034703 0.704517 0.684193 0.134781
C156  C     C_3   0.998643 0.750755 0.704328 -0.739238
H92   H     H_    0.978558 0.724840 0.707616 0.257476
H93   H     H_    0.027823 0.758444 0.762205 0.201274
H94   H     H_    0.978372 0.781143 0.679058 0.263913
O59   O     O_3   0.523445 0.224887 0.415654 -0.554216
C157  C     C_3   0.485851 0.234402 0.342547 0.073294
H95   H     H_    0.466081 0.261117 0.344836 0.121269
H96   H     H_    0.464722 0.204567 0.314793 0.132719
C158  C     C_3   0.500792 0.250741 0.294428 -0.740722
H97   H     H_    0.520525 0.224761 0.290432 0.256932
H98   H     H_    0.471496 0.258732 0.236825 0.200966
H99   H     H_    0.521341 0.280966 0.319874 0.265325
O60   O     O_3   0.476395 0.224834 0.583946 -0.554240
C159  C     C_3   0.513980 0.234391 0.657044 0.073331
H100  H     H_    0.533739 0.261142 0.654722 0.121302
H101  H     H_    0.535124 0.204585 0.684844 0.132692
C160  C     C_3   0.499025 0.250688 0.705130 -0.740810
H102  H     H_    0.479309 0.224667 0.709168 0.256918
H103  H     H_    0.528314 0.258719 0.762720 0.200963
H104  H     H_    0.478455 0.280880 0.679631 0.265328
Br1   Br    Br    0.912492 0.372551 0.357188 -0.534516
Br2   Br    Br    0.087509 0.372636 0.642916 -0.534739
Br3   Br    Br    0.412496 0.872549 0.357180 -0.534371
Br4   Br    Br    0.587506 0.872636 0.642924 -0.534653
Br5   Br    Br    0.476313 0.734412 0.606056 -0.445239
Br6   Br    Br    0.523789 0.734570 0.394153 -0.444907
Br7   Br    Br    0.976332 0.234411 0.606081 -0.445244
Br8   Br    Br    0.023767 0.234569 0.394123 -0.445345
O61   O     O_3   0.474808 0.633710 0.580798 -0.578174
C161  C     C_3   0.428201 0.631035 0.538314 0.133435
H105  H     H_    0.414284 0.613517 0.483959 0.147561
H106  H     H_    0.412919 0.664433 0.526046 0.174097
C162  C     C_3   0.415295 0.605480 0.583154 -0.745524
H107  H     H_    0.428831 0.622120 0.637977 0.275038
H108  H     H_    0.378711 0.603923 0.550951 0.203271
H109  H     H_    0.428474 0.571305 0.593724 0.253985
O62   O     O_3   0.525234 0.633842 0.419281 -0.578148
C163  C     C_3   0.571837 0.631168 0.461756 0.133290
H110  H     H_    0.585744 0.613639 0.516115 0.147505
H111  H     H_    0.587147 0.664569 0.474013 0.174250
C164  C     C_3   0.584711 0.605629 0.416907 -0.745099
H112  H     H_    0.571199 0.622290 0.362093 0.275036
H113  H     H_    0.621293 0.604057 0.449113 0.203463
H114  H     H_    0.571483 0.571458 0.406317 0.253920
O63   O     O_3   0.974828 0.133710 0.580828 -0.578191
C165  C     C_3   0.928222 0.131033 0.538361 0.133356
H115  H     H_    0.914303 0.113489 0.484028 0.147642
H116  H     H_    0.912935 0.164431 0.526053 0.174103
C166  C     C_3   0.915327 0.105511 0.583245 -0.745237
H117  H     H_    0.928865 0.122180 0.638046 0.275027
H118  H     H_    0.878744 0.103949 0.551053 0.203400
H119  H     H_    0.928512 0.071337 0.593859 0.253960
O64   O     O_3   0.025213 0.133843 0.419251 -0.578174
C167  C     C_3   0.071816 0.131168 0.461710 0.133243
H120  H     H_    0.085725 0.113614 0.516048 0.147577
H121  H     H_    0.087129 0.164568 0.474002 0.174178
C168  C     C_3   0.084679 0.105659 0.416819 -0.745244
H122  H     H_    0.071166 0.122347 0.362025 0.274985
H123  H     H_    0.121261 0.104084 0.449015 0.203428
H124  H     H_    0.071446 0.071490 0.406189 0.253925
Br9   Br    Br    0.264292 0.565207 0.864040 -0.382522
Br10  Br    Br    0.735739 0.565364 0.135961 -0.382305
Br11  Br    Br    0.764293 0.065207 0.864044 -0.382165
Br12  Br    Br    0.235742 0.065324 0.135926 -0.382178
Br13  Br    Br    0.373871 0.558153 0.981775 -0.438035
Br14  Br    Br    0.626151 0.558269 0.018233 -0.437886
Br15  Br    Br    0.873871 0.058151 0.981779 -0.438050
Br16  Br    Br    0.126152 0.058244 0.018214 -0.438015
Br17  Br    Br    0.372223 0.441699 0.765786 -0.496534
Br18  Br    Br    0.627752 0.441712 0.234246 -0.496310
Br19  Br    Br    0.872222 0.941702 0.765784 -0.496282
Br20  Br    Br    0.127745 0.941737 0.234269 -0.495228

loop_
_geom_bond_atom_site_label_1
_geom_bond_atom_site_label_2
_ccdc_geom_bond_type
C157  H96   S    
C103  Br5   S    
C164  H112  S    
C55   C59   A    
C149  C150  S    
O45   Zn9   S    
C24   Br20  S    
C23   Br19  S    
C160  H102  S    
C77   C89   A    
C147  H70   S    
C97   H23   S    
C70   O48   A    
C63   C129  S    
C86   C88   A    
C160  H104  S    
C157  C158  S    
C139  H51   S    
C96   C99   A    
C106  Br8   S    
C145  H65   S    
C85   H19   S    
C31   C59   S    
C9    C13   A    
C79   C90   A    
C80   C86   A    
C124  Br4   S    
C84   H18   S    
C11   Br11  S    
C12   C16   A    
C36   H44   S    
C137  H46   S    
C3    C19   S    
C139  C140  S    
C119  C121  A    
C138  H47   S    
C106  C118  A    
C103  C117  A    
O10   Zn9   S    
O33   Zn5   S    
C41   C49   A    
C78   C89   A    
C25   C29   A    
C137  C138  S    
C115  C123  A    
C159  H100  S    
C27   C31   A    
C77   O53   S    
C28   C32   A    
C168  H124  S    
C1    O1    A    
C155  H90   S    
C152  H82   S    
C62   C88   S    
C69   C119  S    
C17   C21   A    
O37   Zn6   S    
C156  H94   S    
C19   C23   A    
C122  Br2   S    
O8    Zn12  S    
C76   O15   A    
C10   C30   A    
O7    Zn11  S    
C16   C20   A    
C21   Br17  S    
C48   O28   A    
C42   C72   S    
C153  H85   S    
C44   C74   S    
O3    Zn2   S    
C159  H101  S    
O28   Zn4   S    
C164  H114  S    
C144  H63   S    
C105  C118  A    
C151  H80   S    
C114  H14   S    
C79   C85   A    
C140  H53   S    
C104  C117  A    
C152  H84   S    
O42   Zn6   S    
O26   Zn3   S    
C76   C100  S    
C108  C111  A    
C63   O37   A    
C168  H123  S    
C148  H73   S    
C166  H117  S    
C49   C53   A    
C54   O50   S    
O31   Zn7   S    
C95   C99   A    
C61   O30   A    
C127  C131  D    
C82   C116  A    
C4    C20   S    
C25   H37   S    
C94   C102  A    
O59   C157  S    
C138  H49   S    
C115  H15   S    
C34   C58   A    
C126  C130  D    
C103  C107  A    
O20   Zn4   S    
C93   O59   S    
C123  Br3   S    
C43   C73   S    
C162  H107  S    
C158  H99   S    
C69   O46   A    
C167  H120  S    
C94   C98   A    
C5    C133  D    
C16   Br16  S    
C110  O64   S    
O50   C139  S    
O15   Zn11  S    
C53   O49   S    
C82   C115  A    
O48   Zn12  S    
C140  H52   S    
C165  H115  S    
C92   C96   A    
O51   C141  S    
C68   C112  S    
C158  H98   S    
C86   H20   S    
O24   Zn2   S    
C61   C87   S    
O5    Zn9   S    
C70   C120  S    
C81   C114  A    
C66   O40   A    
C51   H11   S    
C51   C55   A    
C41   C71   S    
C130  H26   S    
O21   Zn1   S    
C52   H12   S    
C94   O60   S    
C146  H67   S    
C68   O44   A    
C11   C15   A    
C71   O5    A    
C72   O10   A    
O32   Zn8   S    
C160  H103  S    
C154  H88   S    
C35   H43   S    
C33   H41   S    
C10   C14   A    
C166  H119  S    
C65   O39   A    
O18   Zn3   S    
C63   O33   A    
C78   O54   S    
C150  H77   S    
C125  C129  D    
C161  H106  S    
C75   C99   S    
O55   C149  S    
C129  H25   S    
O14   Zn10  S    
C126  C134  S    
C143  H61   S    
C80   O56   S    
C42   C50   A    
O22   Zn1   S    
C91   O57   S    
C64   C130  S    
C26   C30   A    
C162  H109  S    
O25   Zn3   S    
C93   C97   A    
C97   C100  A    
C161  C162  S    
C6    H34   S    
C85   C88   A    
O11   Zn12  S    
C46   O26   A    
C21   C25   A    
C92   O58   S    
C62   O32   A    
O41   Zn5   S    
C18   C22   A    
C107  C111  A    
C1    O17   A    
C24   C28   A    
O38   Zn5   S    
C98   H24   S    
C143  C144  S    
O23   Zn2   S    
C9    Br9   S    
C83   H17   S    
C48   O24   A    
C1    C17   S    
C13   C17   A    
C40   H8    S    
C141  H55   S    
C128  H4    S    
C145  H66   S    
C37   C41   A    
C110  C112  A    
C91   C95   A    
C141  C142  S    
C75   O14   A    
C4    O20   A    
C113  C121  A    
C147  C148  S    
C163  H110  S    
C146  H69   S    
C135  H31   S    
C3    O3    A    
C83   C87   A    
C7    H35   S    
C8    C136  D    
C145  C146  S    
O40   Zn7   S    
C12   Br12  S    
O62   C163  S    
C15   C19   A    
C50   C54   A    
C37   H5    S    
C127  C135  S    
C150  H79   S    
C128  C136  S    
C106  C110  A    
O27   Zn4   S    
C154  H89   S    
C26   H38   S    
C155  H91   S    
C35   C59   A    
C149  H75   S    
O56   C151  S    
C156  H93   S    
C105  C109  A    
C76   O16   A    
C10   Br10  S    
C159  C160  S    
C153  H86   S    
C134  H30   S    
C120  C123  A    
C50   H10   S    
C155  C156  S    
O17   Zn3   S    
C157  H95   S    
C164  H113  S    
C95   H21   S    
C144  H62   S    
O34   Zn6   S    
C151  H81   S    
O9    Zn10  S    
C73   O7    A    
C74   O8    A    
C152  H83   S    
C153  C154  S    
C70   O47   A    
C27   H39   S    
C53   C57   A    
C28   H40   S    
C125  H1    S    
C139  H50   S    
C5    C45   S    
C81   C118  S    
C33   C37   A    
C56   C60   A    
C55   O51   S    
C151  C152  S    
C7    C47   S    
C35   C39   A    
O19   Zn4   S    
C132  H28   S    
C148  H72   S    
C133  H29   S    
C142  H59   S    
C131  H27   S    
O47   Zn11  S    
C137  H45   S    
C47   O23   A    
C61   O29   A    
C71   O9    A    
C72   O6    A    
C92   C101  A    
C67   C111  S    
C29   C57   S    
C98   C100  A    
C138  H48   S    
O36   Zn8   S    
C34   H42   S    
C32   C60   S    
C104  C108  A    
C45   O25   A    
C116  C124  A    
C147  H71   S    
C69   O45   A    
C93   C102  A    
C167  H121  S    
C65   O35   A    
C64   O38   A    
C13   Br13  S    
C140  H54   S    
O44   Zn8   S    
O4    Zn2   S    
C15   Br15  S    
C22   Br18  S    
C43   C51   A    
O58   C155  S    
C142  H57   S    
C165  H116  S    
O30   Zn6   S    
C158  H97   S    
C167  C168  S    
C46   O22   A    
C150  H78   S    
O57   C153  S    
C22   C26   A    
C144  H64   S    
C81   C113  A    
C5    H33   S    
C82   C117  S    
C107  O61   S    
C8    H36   S    
C165  C166  S    
C96   H22   S    
O46   Zn10  S    
C89   C102  S    
C2    C18   S    
O60   C159  S    
C14   C18   A    
C84   C87   A    
C8    C48   S    
C104  Br6   S    
C154  H87   S    
C64   O34   A    
O49   C137  S    
C148  H74   S    
C121  Br1   S    
C166  H118  S    
C77   C83   A    
C67   O41   A    
C2    O2    A    
O6    Zn10  S    
C120  C124  A    
C20   C24   A    
O1    Zn1   S    
C109  O63   S    
C3    O19   A    
C62   O31   A    
C105  Br7   S    
C23   C27   A    
O52   C143  S    
C91   C101  A    
C14   Br14  S    
C9    C29   A    
C11   C31   A    
C162  H108  S    
C12   C32   A    
C66   O36   A    
C38   H6    S    
C127  H3    S    
C128  C132  D    
C65   C131  S    
C66   C132  S    
C49   H9    S    
C113  H13   S    
C36   C40   A    
O35   Zn7   S    
C108  O62   S    
C109  C112  A    
C142  H58   S    
C34   C38   A    
O12   Zn11  S    
C39   C43   A    
C136  H32   S    
O54   C147  S    
C67   O42   A    
C141  H56   S    
C90   C101  S    
C7    C135  D    
O2    Zn1   S    
C40   C44   A    
O53   C145  S    
C4    O4    A    
C56   O52   S    
O13   Zn9   S    
C73   O11   A    
O43   Zn7   S    
C79   O55   S    
C74   O12   A    
C75   O13   A    
C45   O21   A    
C39   H7    S    
C163  H111  S    
C146  H68   S    
C68   O43   A    
C116  H16   S    
O64   C167  S    
C54   C58   A    
C119  C122  A    
C125  C133  S    
C126  H2    S    
C33   C57   A    
C6    C46   S    
C2    O18   A    
O39   Zn8   S    
C36   C60   A    
C163  C164  S    
O63   C165  S    
C47   O27   A    
C6    C134  D    
C168  H122  S    
C44   C52   A    
C161  H105  S    
C30   C58   S    
C149  H76   S    
C80   C90   A    
C156  H92   S    
O29   Zn5   S    
C143  H60   S    
C114  C122  A    
C38   C42   A    
C78   C84   A    
O16   Zn12  S    
O61   C161  S    
C52   C56   A    
