data_mof_unit_22544.cif
_audit_creation_date              2012-12-10T18:05:47-0500
_audit_creation_method            fapswitch 2.2
_symmetry_space_group_name_H-M    P1
_symmetry_Int_Tables_number       1
_space_group_crystal_system       triclinic
_cell_length_a                    10.923279
_cell_length_b                    10.782735
_cell_length_c                    9.592821
_cell_angle_alpha                 91.553423
_cell_angle_beta                  91.997502
_cell_angle_gamma                 92.366335
_cell_volume                      1127.75888277

loop_
_atom_site_label
_atom_site_type_symbol
_atom_type_description
_atom_site_fract_x
_atom_site_fract_y
_atom_site_fract_z
_atom_type_partial_charge
C1    C     C_R   0.499154 0.262315 0.498772 0.804628
C2    C     C_R   0.500846 0.737685 0.501228 0.804628
C3    C     C_R   0.871807 0.495684 0.508331 -0.084162
C4    C     C_R   0.128193 0.504316 0.491669 -0.084162
C5    C     C_R   0.946607 0.531069 0.627688 0.012830
C6    C     C_R   0.053393 0.468931 0.372312 0.012830
C7    C     C_R   0.538701 0.062601 0.382103 -0.141779
C8    C     C_R   0.461299 0.937399 0.617897 -0.141779
C9    C     C_R   0.540332 0.934514 0.383973 -0.180027
C10   C     C_R   0.459668 0.065486 0.616027 -0.180027
C11   C     C_R   0.501654 0.871684 0.501924 -0.020008
C12   C     C_R   0.498346 0.128316 0.498076 -0.020008
C13   C     C_R   0.447852 0.402169 0.066178 0.362241
C14   C     C_R   0.552147 0.597831 0.933822 0.362241
C15   C     C_R   0.448442 0.403044 0.918976 -0.118055
C16   C     C_R   0.551558 0.596956 0.081024 -0.118055
C17   C     C_R   0.262222 0.500950 0.496970 0.792217
C18   C     C_R   0.737778 0.499050 0.503029 0.792217
C19   C     C_R   0.178245 0.522035 0.015860 -0.198211
C20   C     C_R   0.821755 0.477965 0.984140 -0.198211
C21   C     C_R   0.153397 0.540113 0.156421 -0.073082
C22   C     C_R   0.846603 0.459887 0.843579 -0.073082
C23   C     C_R   0.098145 0.443853 0.230683 0.124719
C24   C     C_R   0.901855 0.556147 0.769317 0.124719
C25   C     C_R   0.063770 0.330930 0.160309 -0.185915
C26   C     C_R   0.936230 0.669070 0.839691 -0.185915
C27   C     C_R   0.086205 0.312400 0.018146 0.250081
C28   C     C_R   0.913795 0.687600 0.981854 0.250081
C29   C     C_R   0.145535 0.408991 0.947059 -0.093772
C30   C     C_R   0.854465 0.591009 0.052941 -0.093772
C31   C     C_R   0.926909 0.461984 0.384526 -0.262824
C32   C     C_R   0.073091 0.538016 0.615474 -0.262824
Cu1   Cu    Cu3+1 0.500000 0.500020 0.640660 0.975918
Cu2   Cu    Cu3+1 0.500000 0.499980 0.359340 0.975918
H1    H     H_    0.167889 0.397639 0.839020 0.150528
H2    H     H_    0.832111 0.602360 0.160980 0.150528
H3    H     H_    0.405499 0.326110 0.858350 0.162504
H4    H     H_    0.594501 0.673890 0.141650 0.162504
H5    H     H_    0.222252 0.596239 0.959666 0.138134
H6    H     H_    0.777748 0.403761 0.040334 0.138134
H7    H     H_    0.174885 0.629926 0.206652 0.130428
H8    H     H_    0.825115 0.370074 0.793348 0.130428
H9    H     H_    0.016832 0.257944 0.215946 0.123160
H10   H     H_    0.983168 0.742056 0.784054 0.123160
H11   H     H_    0.870309 0.430984 0.294328 0.154534
H12   H     H_    0.129690 0.569016 0.705672 0.154534
H13   H     H_    0.570573 0.110066 0.291253 0.173832
H14   H     H_    0.429427 0.889934 0.708747 0.173832
H15   H     H_    0.572704 0.884848 0.293679 0.151666
H16   H     H_    0.427296 0.115152 0.706321 0.151666
N1    N     N_R   0.500030 0.500030 0.852070 -0.200864
N2    N     N_R   0.499970 0.499970 0.147930 -0.200864
O1    O     O_R   0.499990 0.319660 0.618740 -0.604142
O2    O     O_R   0.500010 0.680340 0.381260 -0.604142
O3    O     O_R   0.499990 0.319630 0.381170 -0.536288
O4    O     O_R   0.500010 0.680370 0.618830 -0.536289
O5    O     O_R   0.319650 0.500020 0.618780 -0.597292
O6    O     O_R   0.680350 0.499980 0.381220 -0.597292
O7    O     O_R   0.319640 0.500000 0.381210 -0.552514
O8    O     O_R   0.680360 0.500000 0.618790 -0.552514
C33   C     C_3   0.045309 0.188657 0.949095 -0.418578
C34   C     C_3   0.073963 0.173703 0.794723 -0.847215
H17   H     H_    0.027440 0.244610 0.732520 0.250232
H18   H     H_    0.174529 0.181520 0.780865 0.253682
H19   H     H_    0.039954 0.080400 0.755096 0.246843
H20   H     H_    0.089774 0.113368 0.006472 0.226291
H21   H     H_    0.944561 0.175263 0.958997 0.194499
C35   C     C_3   0.954691 0.811343 0.050905 -0.418577
C36   C     C_3   0.926037 0.826297 0.205277 -0.847214
H22   H     H_    0.825471 0.818480 0.219135 0.253682
H23   H     H_    0.972560 0.755390 0.267480 0.250232
H24   H     H_    0.960046 0.919600 0.244904 0.246843
H25   H     H_    0.055439 0.824737 0.041002 0.194499
H26   H     H_    0.910226 0.886632 0.993527 0.226291
Br1   Br    Br    0.365893 0.258711 0.138270 -0.564238
Br2   Br    Br    0.634107 0.741289 0.861729 -0.564238

loop_
_geom_bond_atom_site_label_1
_geom_bond_atom_site_label_2
_ccdc_geom_bond_type
C27   C29   A    
C25   H9    S    
C26   H10   S    
C20   C30   A    
C19   H5    S    
C19   C21   A    
C24   C26   A    
C20   H6    S    
C35   H26   S    
C3    C18   S    
C36   H23   S    
C1    O1    A    
C15   H3    S    
C34   H18   S    
C27   C33   S    
C33   H20   S    
C18   O6    A    
C13   Br1   S    
C35   C36   S    
C15   N1    A    
C5    C32   A    
Cu1   O4    S    
C6    C31   A    
Cu2   O3    S    
C33   C34   S    
C1    C12   S    
C32   H12   S    
C2    C11   S    
C21   C23   A    
Cu1   O1    S    
C7    C12   A    
C9    H15   S    
C4    C6    A    
C2    O2    A    
C35   H25   S    
C7    H13   S    
C36   H24   S    
C8    H14   S    
C34   H17   S    
C13   N2    A    
C33   H21   S    
C14   N1    A    
Cu1   Cu2   S    
C3    C31   A    
C9    C11   A    
C4    C32   A    
C10   C12   A    
C17   O7    A    
C21   H7    S    
C4    C17   S    
C18   O8    A    
C20   C22   A    
Cu2   O2    S    
Cu1   O8    S    
C13   C15   A    
Cu2   O7    S    
C22   C24   A    
C25   C27   A    
C10   H16   S    
C7    C9    A    
Cu1   O5    S    
C34   H19   S    
C28   C35   S    
Cu2   N2    S    
C16   N2    A    
C3    C5    A    
Cu1   N1    S    
C29   H1    S    
C26   C28   A    
C30   H2    S    
C28   C30   A    
C1    O3    A    
C2    O4    A    
C22   H8    S    
C5    C24   S    
C8    C11   A    
C6    C23   S    
C14   C16   A    
C23   C25   A    
C36   H22   S    
C8    C10   A    
C31   H11   S    
C17   O5    A    
Cu2   O6    S    
C14   Br2   S    
C16   H4    S    
C19   C29   A    
