data_mof_unit_37114.cif
_audit_creation_date              2013-03-05T15:54:21-0500
_audit_creation_method            fapswitch 2.2
_symmetry_space_group_name_H-M    P1
_symmetry_Int_Tables_number       1
_space_group_crystal_system       triclinic
_cell_length_a                    15.028568
_cell_length_b                    14.860758
_cell_length_c                    14.900139
_cell_angle_alpha                 109.748802
_cell_angle_beta                  109.217047
_cell_angle_gamma                 109.708046
_cell_volume                      2553.38117245

loop_
_atom_site_label
_atom_site_type_symbol
_atom_site_description
_atom_site_fract_x
_atom_site_fract_y
_atom_site_fract_z
_atom_type_partial_charge
C1    C     C_R   0.930127 0.744476 0.023057 -0.098466
H1    H     H_    0.871188 0.745840 0.048419 0.101905
N1    N     N_R   0.995640 0.706130 0.053910 -0.037295
C2    C     C_R   0.779713 0.251844 0.685643 -0.135734
H2    H     H_    0.803506 0.247261 0.624230 0.113880
N2    N     N_R   0.848310 0.293860 0.791110 -0.043666
C3    C     C_R   0.097961 0.592990 0.794641 -0.142199
H3    H     H_    0.162383 0.677090 0.832185 0.113567
N3    N     N_R   0.054010 0.556790 0.847890 -0.042216
C4    C     C_R   0.701306 0.409461 0.006869 -0.144557
H4    H     H_    0.644119 0.324102 0.975880 0.094961
N4    N     N_R   0.789940 0.443190 0.997130 -0.041987
C5    C     C_R   0.005658 0.409659 0.699940 -0.135299
H5    H     H_    0.982157 0.325321 0.646940 0.095371
N5    N     N_R   0.997630 0.443170 0.791110 -0.041051
C6    C     C_R   0.794939 0.592887 0.099909 -0.125691
H6    H     H_    0.829763 0.678722 0.158983 0.140060
N6    N     N_R   0.846320 0.556810 0.053910 -0.048149
C7    C     C_R   0.685469 0.248202 0.775212 -0.130431
H7    H     H_    0.620920 0.236498 0.794935 0.102169
N7    N     N_R   0.791080 0.293860 0.847890 -0.043670
C8    C     C_R   0.025268 0.749805 0.934688 -0.109828
H8    H     H_    0.057296 0.761050 0.881785 0.096597
N8    N     N_R   0.052880 0.706130 0.997130 -0.043122
C9    C     C_R   0.947307 0.774012 0.949033 0.059898
C10   C     C_R   0.676553 0.221634 0.672399 0.101075
C11   C     C_R   0.068685 0.502861 0.700593 0.083137
C12   C     C_R   0.702881 0.502402 0.071772 0.077284
C13   C     C_R   0.067155 0.593420 0.313807 -0.015288
H9    H     H_    0.124393 0.679174 0.375616 0.086634
N9    N     N_R   0.002370 0.556830 0.208890 -0.040993
C14   C     C_R   0.224798 0.408777 0.969217 -0.137617
H10   H     H_    0.205322 0.323591 0.929785 0.103177
N10   N     N_R   0.153680 0.443190 0.946090 -0.041235
C15   C     C_R   0.296342 0.805713 0.205214 -0.168686
H11   H     H_    0.342094 0.833742 0.167993 0.127832
N11   N     N_R   0.208920 0.706140 0.152110 -0.052443
C16   C     C_R   0.905019 0.195629 0.995231 -0.155048
H12   H     H_    0.840832 0.167040 0.013743 0.106430
N12   N     N_R   0.947120 0.293870 0.002870 -0.043308
C17   C     C_R   0.998107 0.195268 0.906082 -0.127812
H13   H     H_    0.021923 0.166572 0.846001 0.096357
N13   N     N_R   0.004360 0.293870 0.946090 -0.041045
C18   C     C_R   0.209892 0.806401 0.300346 -0.108048
H14   H     H_    0.180630 0.834059 0.355301 0.156461
N14   N     N_R   0.151690 0.706140 0.208890 -0.058330
C19   C     C_R   0.971393 0.408369 0.223772 -0.111806
H15   H     H_    0.937749 0.322814 0.203143 0.097116
N15   N     N_R   0.945990 0.443210 0.152110 -0.045680
C20   C     C_R   0.313567 0.593901 0.067771 -0.065447
H16   H     H_    0.373027 0.679811 0.125984 0.154656
N16   N     N_R   0.210060 0.556810 0.002870 -0.046862
Ni1   Ni    Ni4+2 0.999010 0.630300 0.130220 0.267950
Ni2   Ni    Ni4+2 0.000990 0.369700 0.869780 0.213141
Ni3   Ni    Ni4+2 0.130280 0.630280 0.000000 0.220787
Ni4   Ni    Ni4+2 0.869720 0.369720 0.000000 0.214683
C21   C     C_R   0.048117 0.502314 0.326694 0.059866
C22   C     C_R   0.327273 0.503334 0.044381 0.013134
C23   C     C_R   0.300422 0.871211 0.298951 0.118916
C24   C     C_R   0.935281 0.131456 0.935137 0.081084
C25   C     C_3   0.532267 0.481014 0.957577 -0.444369
H17   H     H_    0.515840 0.403408 0.891473 0.179479
H18   H     H_    0.572903 0.549461 0.944379 0.194962
C26   C     C_3   0.423563 0.468985 0.945415 -0.308967
H19   H     H_    0.401701 0.517028 0.907804 0.207583
H20   H     H_    0.358601 0.380457 0.887428 0.161544
H21   H     H_    0.509990 0.331515 0.025206 0.155476
H22   H     H_    0.371407 0.343609 0.047285 0.170675
C27   C     C_3   0.542615 0.415317 0.094111 -0.332957
C28   C     C_3   0.638077 0.622272 0.161804 0.123613
C29   C     C_3   0.607118 0.505388 0.074113 0.145387
H23   H     H_    0.686748 0.685101 0.147396 0.119590
C30   C     C_3   0.430959 0.508108 0.059539 0.211079
C31   C     C_3   0.445965 0.427105 0.099315 -0.455480
C32   C     C_3   0.533496 0.628016 0.143836 0.176501
H24   H     H_    0.533751 0.660983 0.223049 0.119384
H25   H     H_    0.595801 0.420964 0.170521 0.214242
H26   H     H_    0.460367 0.458251 0.184790 0.208300
C33   C     C_R   0.577985 0.113332 0.469364 0.156916
C34   C     C_R   0.577248 0.164344 0.566667 -0.005347
C35   C     C_R   0.476478 0.146543 0.559508 -0.317674
H27   H     H_    0.474079 0.194333 0.630997 0.175903
C36   C     C_R   0.378132 0.060006 0.461948 0.336848
C37   C     C_R   0.383946 0.988449 0.375273 -0.112360
C38   C     C_R   0.482970 0.026334 0.375420 0.102667
C39   C     C_3   0.539742 0.966282 0.342953 -0.422522
C40   C     C_3   0.643806 0.061774 0.445876 -0.486746
H28   H     H_    0.514121 0.887838 0.345029 0.203164
H29   H     H_    0.540121 0.959629 0.266495 0.219601
H30   H     H_    0.677217 0.037659 0.506479 0.205962
H31   H     H_    0.703662 0.109875 0.428313 0.199076
C41   C     C_R   0.139368 0.607660 0.529474 -0.030603
C42   C     C_R   0.092383 0.508077 0.432252 0.079406
C43   C     C_R   0.075375 0.412020 0.438890 -0.158865
H32   H     H_    0.044959 0.334439 0.367126 0.127543
C44   C     C_R   0.081725 0.411992 0.534756 -0.178509
H33   H     H_    0.054518 0.334042 0.533470 0.134546
C45   C     C_R   0.107070 0.508694 0.623876 0.085028
C46   C     C_R   0.151367 0.608865 0.625353 0.100741
C47   C     C_3   0.134758 0.706026 0.663474 -0.592587
C48   C     C_3   0.117361 0.702287 0.556360 0.360768
H34   H     H_    0.061059 0.687233 0.672458 0.235407
H35   H     H_    0.210710 0.781581 0.736122 0.170602
H36   H     H_    0.180633 0.777694 0.567731 0.069722
C49   C     C_R   0.842677 0.872870 0.945888 0.146144
C50   C     C_R   0.898623 0.829412 0.903260 0.023520
C51   C     C_R   0.925207 0.859916 0.831818 -0.154372
H37   H     H_    0.960672 0.822577 0.789695 0.144954
C52   C     C_R   0.923884 0.952864 0.829469 -0.172706
H38   H     H_    0.958332 0.983520 0.785567 0.143697
C53   C     C_R   0.894741 0.013873 0.897611 0.019643
C54   C     C_R   0.840302 0.963640 0.942489 0.161699
C55   C     C_3   0.848309 0.011012 0.052744 -0.505895
C56   C     C_3   0.851761 0.912501 0.057181 -0.467471
H39   H     H_    0.925871 0.090192 0.116746 0.203121
H40   H     H_    0.772842 0.011479 0.047067 0.204671
H41   H     H_    0.931656 0.936961 0.123863 0.221674
H42   H     H_    0.778684 0.856758 0.054935 0.218115
N17   N     N_R   0.705537 0.651975 0.275865 0.246826
O1    O     O_R   0.663891 0.606038 0.323508 -0.394477
O2    O     O_R   0.805229 0.735073 0.334969 -0.330625
Cl1   Cl    Cl    0.536317 0.726734 0.097209 -0.746734
N18   N     N_R   0.275476 0.044313 0.453693 0.230469
O3    O     O_R   0.194708 0.013002 0.360362 -0.406607
O4    O     O_R   0.267088 0.076650 0.541809 -0.405409
Cl2   Cl    Cl    0.979137 0.664498 0.472581 -0.560086

loop_
_geom_bond_atom_site_label_1
_geom_bond_atom_site_label_2
_geom_bond_distance
_ccdc_geom_bond_type
C6    C12   1.371301 A    
C11   C45   1.454056 S    
C42   C43   1.406694 A    
C40   H31   1.111912 S    
C32   Cl1   1.817371 S    
C51   C52   1.400113 A    
C17   H13   1.080387 S    
C27   H25   1.110535 S    
C53   C54   1.399759 A    
C14   C22   1.393594 A    
C33   C40   1.498633 S    
C35   H27   1.082416 S    
C3    H3    1.080343 S    
C19   N15   1.338860 A    
C38   C39   1.500628 S    
N8    Ni3   1.873390 S    
C36   C37   1.419565 A    
C15   N11   1.324775 A    
N9    N15   1.372032 A    
C1    N1    1.327745 A    
C52   C53   1.408252 A    
C16   H12   1.079369 S    
C39   H28   1.112487 S    
N18   O4    1.301561 A    
C50   C51   1.407907 A    
C18   C23   1.388331 A    
H22   C31   1.111990 S    
C3    C11   1.370958 A    
C15   C23   1.373518 A    
C1    H1    1.074754 S    
C30   C31   1.558329 S    
C27   C29   1.550707 S    
C7    C10   1.393218 A    
C47   C48   1.508067 S    
N6    Ni1   1.871962 S    
N12   N13   1.390997 A    
C15   H11   1.080673 S    
C6    H6    1.078657 S    
N12   Ni4   1.873389 S    
C8    C9    1.394633 A    
C44   C45   1.407767 A    
C20   N16   1.315284 A    
C51   H37   1.081774 S    
C28   C29   1.569009 S    
N3    Ni3   1.848292 S    
N16   Ni3   1.874075 S    
C55   H40   1.111793 S    
C25   C29   1.557572 S    
C21   C42   1.451015 S    
C5    H5    1.080829 S    
C1    C9    1.383490 A    
C17   N13   1.338380 A    
N1    N8    1.390996 A    
C25   H17   1.114185 S    
N2    Ni2   1.871281 S    
C54   C55   1.496688 S    
C35   C36   1.411307 A    
C18   N14   1.343977 A    
C9    C50   1.461347 S    
C20   H16   1.073660 S    
N17   O2    1.301481 A    
C20   C22   1.375709 A    
N5    Ni2   1.852505 S    
C49   C56   1.500700 S    
N18   O3    1.301678 A    
C23   C37   1.466515 S    
C2    N2    1.326068 A    
C39   C40   1.505025 S    
C2    H2    1.076814 S    
N2    N7    1.390874 A    
C47   H35   1.111844 S    
C10   C34   1.457029 S    
H21   C27   1.112720 S    
C26   H20   1.113878 S    
C25   C26   1.523126 S    
C32   H24   1.112696 S    
C13   H9    1.076172 S    
C19   C21   1.390601 A    
N13   Ni2   1.852504 S    
C19   H15   1.080111 S    
C28   N17   1.472423 S    
C26   C30   1.551079 S    
C44   H33   1.081591 S    
C47   H34   1.112164 S    
C48   Cl2   1.794792 S    
C27   C31   1.543717 S    
C56   H42   1.112186 S    
C37   C38   1.401286 A    
C43   C44   1.400069 A    
N4    Ni4   1.874075 S    
C4    N4    1.331436 A    
C41   C48   1.505831 S    
C16   C24   1.378976 A    
C49   C54   1.378716 A    
C13   C21   1.379265 A    
N10   Ni2   1.871959 S    
C48   H36   1.111582 S    
C5    N5    1.341325 A    
C8    N8    1.339665 A    
N9    Ni1   1.852505 S    
C12   C29   1.466112 S    
C30   C32   1.577608 S    
C33   C38   1.373302 A    
C18   H14   1.079039 S    
C55   C56   1.504845 S    
C4    C12   1.379728 A    
C3    N3    1.322494 A    
C7    N7    1.340846 A    
C25   H18   1.114234 S    
C17   C24   1.385938 A    
C34   C35   1.406851 A    
C39   H29   1.111850 S    
N7    Ni4   1.848209 S    
C2    C10   1.383251 A    
N17   O1    1.301335 A    
N15   Ni4   1.848291 S    
C49   C50   1.402854 A    
N10   N16   1.372030 A    
C46   C47   1.500636 S    
C14   H10   1.080592 S    
C7    H7    1.079863 S    
N3    N5    1.372030 A    
C13   N9    1.324381 A    
C24   C53   1.461025 S    
C52   H38   1.081080 S    
C26   H19   1.113157 S    
C16   N12   1.327400 A    
N1    Ni1   1.852505 S    
N14   Ni1   1.871281 S    
C41   C42   1.400091 A    
C43   H32   1.082221 S    
C56   H41   1.112306 S    
C4    H4    1.081013 S    
C33   C34   1.396534 A    
N11   Ni3   1.848208 S    
C41   C46   1.372844 A    
C6    N6    1.316336 A    
C45   C46   1.399806 A    
C31   H26   1.111622 S    
C40   H30   1.112433 S    
N4    N6    1.372030 A    
C28   C32   1.542117 S    
C8    H8    1.079568 S    
C5    C11   1.384075 A    
C28   H23   1.109547 S    
C36   N18   1.436211 S    
N11   N14   1.390872 A    
C22   C30   1.472103 S    
C14   N10   1.329637 A    
C55   H39   1.112461 S    
