data_mof_unit_12323.cif
_audit_creation_date              2012-12-10T21:00:46-0500
_audit_creation_method            fapswitch 2.2
_symmetry_space_group_name_H-M    P1
_symmetry_Int_Tables_number       1
_space_group_crystal_system       triclinic
_cell_length_a                    18.162602
_cell_length_b                    18.251738
_cell_length_c                    18.299163
_cell_angle_alpha                 119.902923
_cell_angle_beta                  90.12549
_cell_angle_gamma                 120.083751
_cell_volume                      4285.55497708

loop_
_atom_site_label
_atom_site_type_symbol
_atom_type_description
_atom_site_fract_x
_atom_site_fract_y
_atom_site_fract_z
_atom_type_partial_charge
C1    C     C_R   0.110039 0.220008 0.609726 0.534690
C2    C     C_3   0.451189 0.897272 0.948653 0.026803
C3    C     C_2   0.541273 0.453445 0.613182 0.282676
C4    C     C_3   0.444627 0.030793 0.010002 -0.149446
C5    C     C_3   0.555373 0.969207 0.989998 -0.149453
C6    C     C_3   0.412382 0.427710 0.447489 -0.143493
C7    C     C_3   0.587617 0.572290 0.552511 -0.143495
C8    C     C_3   0.484203 0.405509 0.449680 -0.117930
C9    C     C_3   0.515797 0.594491 0.550320 -0.117931
C10   C     C_3   0.551088 0.500222 0.449369 0.042271
C11   C     C_3   0.448912 0.499778 0.550631 0.042272
C12   C     C_3   0.480478 0.522193 0.447170 0.000738
C13   C     C_R   0.889962 0.779992 0.390274 0.534697
C14   C     C_3   0.519522 0.477806 0.552830 0.000738
C15   C     C_R   0.100659 0.155245 0.837065 -0.054005
C16   C     C_R   0.899366 0.844764 0.162935 -0.054012
C17   C     C_R   0.393109 0.781026 0.889091 0.503458
C18   C     C_R   0.606890 0.218974 0.110909 0.503462
C19   C     C_R   0.092997 0.111049 0.746228 0.002827
C20   C     C_R   0.907020 0.888956 0.253770 0.002822
C21   C     C_R   0.028427 0.099247 0.689629 0.013618
C22   C     C_R   0.971582 0.900752 0.310372 0.013621
C23   C     C_R   0.973282 0.131408 0.724989 0.412910
C24   C     C_3   0.925676 0.403060 0.442378 -0.120172
C25   C     C_R   0.026725 0.868586 0.275017 0.412911
C26   C     C_R   0.982050 0.175045 0.815291 -0.026285
C27   C     C_R   0.017964 0.824951 0.184717 -0.026288
C28   C     C_R   0.045455 0.186799 0.871118 -0.123909
C29   C     C_R   0.954569 0.813205 0.128887 -0.123904
C30   C     C_R   0.963384 0.944046 0.536864 -0.132584
C31   C     C_R   0.036618 0.055954 0.463136 -0.132594
C32   C     C_R   0.947054 0.892292 0.444773 0.046820
C33   C     C_R   0.052948 0.107708 0.555227 0.046813
C34   C     C_R   0.984182 0.948932 0.407177 -0.007403
C35   C     C_3   0.074324 0.596940 0.557622 -0.120174
C36   C     C_R   0.015822 0.051068 0.592823 -0.007400
C37   C     C_R   0.688885 0.844784 0.027355 0.008809
C38   C     C_R   0.311124 0.155222 0.972658 0.008793
C39   C     C_R   0.645436 0.739584 0.996505 0.099544
C40   C     C_R   0.354574 0.260423 0.003507 0.099531
C41   C     C_R   0.111032 0.500766 0.889751 0.541935
C42   C     C_R   0.888967 0.499234 0.110249 0.541936
C43   C     C_R   0.571641 0.694854 0.023788 0.098510
C44   C     C_R   0.428359 0.305146 0.976211 0.098506
C45   C     C_R   0.541785 0.753359 0.078721 -0.079949
C46   C     C_3   0.453337 0.964363 0.920543 0.015992
C47   C     C_R   0.458204 0.246634 0.921265 -0.079942
C48   C     C_R   0.586212 0.856648 0.110218 -0.089778
C49   C     C_R   0.413776 0.143345 0.889769 -0.089764
C50   C     C_R   0.660034 0.902509 0.086123 -0.104093
C51   C     C_R   0.339963 0.097490 0.913877 -0.104097
C52   C     C_R   0.583829 0.590809 0.063305 0.367435
C53   C     C_R   0.416171 0.409191 0.936696 0.367432
C54   C     C_R   0.550526 0.498058 0.054298 0.002916
C55   C     C_R   0.449474 0.501942 0.945703 0.002908
C56   C     C_R   0.465781 0.406623 0.991365 -0.032153
C57   C     C_3   0.546663 0.035637 0.079457 0.015988
C58   C     C_R   0.534218 0.593378 0.008635 -0.032155
C59   C     C_R   0.102085 0.766510 0.927240 -0.137904
C60   C     C_R   0.897914 0.233490 0.072760 -0.137902
C61   C     C_R   0.092813 0.712210 0.963864 -0.141875
C62   C     C_R   0.907186 0.287790 0.036135 -0.141872
C63   C     C_R   0.019861 0.607591 0.919315 0.039178
C64   C     C_R   0.980138 0.392409 0.080685 0.039179
C65   C     C_R   0.392288 0.499983 0.607687 0.544871
C66   C     C_R   0.607711 0.500017 0.392313 0.544870
C67   C     C_R   0.955219 0.558694 0.839010 -0.069155
C68   C     C_3   0.557500 0.037241 0.961459 -0.102317
C69   C     C_R   0.044779 0.441306 0.160991 -0.069157
C70   C     C_R   0.964142 0.613611 0.803077 0.421472
C71   C     C_R   0.035856 0.386389 0.196924 0.421470
C72   C     C_R   0.037883 0.717258 0.846837 0.434292
C73   C     C_R   0.962115 0.282742 0.153164 0.434290
C74   C     C_R   0.954285 0.545682 0.010016 0.329824
C75   C     C_R   0.045714 0.454317 0.989983 0.329828
C76   C     C_R   0.944764 0.497334 0.053030 -0.022714
C77   C     C_R   0.055236 0.502666 0.946970 -0.022714
C78   C     C_R   0.989923 0.449575 0.041520 -0.055461
C79   C     C_3   0.442500 0.962760 0.038541 -0.102320
C80   C     C_R   0.010077 0.550424 0.958480 -0.055462
C81   C     C_R   0.393881 0.500973 0.889493 0.557575
C82   C     C_R   0.606119 0.499027 0.110507 0.557580
C83   C     C_R   0.109066 0.500019 0.607488 0.517513
C84   C     C_R   0.890934 0.499981 0.392512 0.517514
C85   C     C_3   0.023806 0.437771 0.447634 -0.063656
C86   C     C_3   0.976194 0.562229 0.552366 -0.063659
C87   C     C_3   0.045918 0.535028 0.454350 -0.098529
C88   C     C_3   0.954082 0.464972 0.545650 -0.098532
C89   C     C_3   0.948633 0.500250 0.449834 0.032497
C90   C     C_3   0.548811 0.102728 0.051346 0.026806
C91   C     C_3   0.051367 0.499750 0.550166 0.032495
C92   C     C_2   0.152770 0.078511 0.711599 0.297987
C93   C     C_2   0.847248 0.921498 0.288393 0.297985
C94   C     C_2   0.763422 0.898357 0.999889 0.198796
C95   C     C_2   0.236599 0.101657 0.000138 0.198783
C96   C     C_2   0.679792 0.679081 0.941067 0.304327
C97   C     C_2   0.320228 0.320932 0.058958 0.304303
C98   C     C_2   0.399433 0.919258 0.829302 0.211982
C99   C     C_2   0.600569 0.080744 0.170698 0.211985
C100  C     C_2   0.458727 0.546555 0.386818 0.282680
F1    F     F_    0.910907 0.120319 0.671728 -0.620867
F2    F     F_    0.092030 0.412662 0.983505 -0.621858
F3    F     F_    0.089092 0.879669 0.328282 -0.620872
F4    F     F_    0.663672 0.680252 0.127504 -0.590861
F5    F     F_    0.336327 0.319749 0.872498 -0.590864
F6    F     F_    0.046928 0.770273 0.811676 -0.610853
F7    F     F_    0.953069 0.229728 0.188326 -0.610858
F8    F     F_    0.900768 0.566532 0.726226 -0.618327
F9    F     F_    0.099228 0.433469 0.273776 -0.618333
F10   F     F_    0.907969 0.587337 0.016494 -0.621856
H1    H     H_    0.082767 0.564495 0.416447 0.183687
H2    H     H_    0.065402 0.098814 0.433991 0.152012
H3    H     H_    0.694015 0.983409 0.112173 0.102609
H4    H     H_    0.305981 0.016591 0.887827 0.102613
H5    H     H_    0.486474 0.720077 0.100729 0.125459
H6    H     H_    0.513506 0.279911 0.899248 0.125469
H7    H     H_    0.044013 0.386578 0.405188 0.212751
H8    H     H_    0.955987 0.613422 0.594812 0.212750
H9    H     H_    0.564092 0.901630 0.154852 0.176078
H10   H     H_    0.435886 0.098357 0.845125 0.176087
H11   H     H_    0.158933 0.846827 0.961340 0.129730
H12   H     H_    0.917233 0.435505 0.583553 0.183683
H13   H     H_    0.841065 0.153172 0.038660 0.129729
H14   H     H_    0.142698 0.751132 0.026347 0.130560
H15   H     H_    0.857302 0.248867 0.973652 0.130562
H16   H     H_    0.898060 0.478437 0.804660 0.153806
H17   H     H_    0.101938 0.521563 0.195341 0.153805
H18   H     H_    0.863793 0.323482 0.394164 0.152528
H19   H     H_    0.136207 0.676518 0.605836 0.152526
H20   H     H_    0.604545 0.068716 0.929958 0.148115
H21   H     H_    0.395455 0.931284 0.070042 0.148112
H22   H     H_    0.399630 0.056716 0.019599 0.127755
H23   H     H_    0.051913 0.220566 0.941067 0.171231
H24   H     H_    0.600370 0.943284 0.980401 0.127752
H25   H     H_    0.472568 0.328540 0.408301 0.155071
H26   H     H_    0.527431 0.671460 0.591699 0.155070
H27   H     H_    0.340015 0.369077 0.405038 0.154652
H28   H     H_    0.659985 0.630923 0.594962 0.154650
H29   H     H_    0.150474 0.048494 0.642800 0.124226
H30   H     H_    0.849541 0.951516 0.357191 0.124227
H31   H     H_    0.807193 0.982537 0.040427 0.153528
H32   H     H_    0.192821 0.017478 0.959598 0.153518
H33   H     H_    0.751155 0.717606 0.949562 0.153858
H34   H     H_    0.948116 0.779440 0.058939 0.171235
H35   H     H_    0.248868 0.282409 0.050479 0.153860
H36   H     H_    0.326240 0.872043 0.808042 0.119890
H37   H     H_    0.673762 0.127953 0.191954 0.119890
H38   H     H_    0.391513 0.495216 0.338249 0.150152
H39   H     H_    0.608489 0.504781 0.661747 0.150152
H40   H     H_    0.149455 0.165460 0.881923 0.171774
H41   H     H_    0.850578 0.834554 0.118074 0.171762
H42   H     H_    0.939519 0.199785 0.842127 0.153601
H43   H     H_    0.060493 0.800207 0.157885 0.153593
H44   H     H_    0.934600 0.901186 0.566009 0.152014
O1    O     O_3   0.251620 0.500000 0.748430 -0.470766
O2    O     O_R   0.570330 0.268390 0.136490 -0.536684
O3    O     O_R   0.134680 0.268390 0.572240 -0.545944
O4    O     O_R   0.865320 0.731610 0.427760 -0.545945
O5    O     O_R   0.306670 0.731630 0.863510 -0.555686
O6    O     O_R   0.693330 0.268370 0.136490 -0.555687
O7    O     O_R   0.135450 0.439270 0.865360 -0.461047
O8    O     O_R   0.864550 0.560730 0.134640 -0.461047
O9    O     O_R   0.429670 0.560710 0.692610 -0.522601
O10   O     O_R   0.570330 0.439290 0.307390 -0.522598
O11   O     O_R   0.308540 0.439240 0.865360 -0.467402
O12   O     O_3   0.748380 0.500000 0.251570 -0.470769
O13   O     O_R   0.691460 0.560760 0.134640 -0.467402
O14   O     O_R   0.133580 0.439310 0.571150 -0.538168
O15   O     O_R   0.866420 0.560690 0.428850 -0.538167
O16   O     O_R   0.430770 0.560690 0.864590 -0.538230
O17   O     O_R   0.569230 0.439310 0.135410 -0.538225
O18   O     O_R   0.133580 0.560760 0.692610 -0.537650
O19   O     O_R   0.866420 0.439240 0.307390 -0.537649
O20   O     O_2   0.205593 0.084793 0.759637 -0.452646
O21   O     O_2   0.794430 0.915218 0.240351 -0.452656
O22   O     O_2   0.774497 0.850567 0.930403 -0.501728
O23   O     O_R   0.134680 0.560740 0.864590 -0.566980
O24   O     O_2   0.225544 0.149452 0.069636 -0.501730
O25   O     O_2   0.628694 0.585529 0.884866 -0.479994
O26   O     O_2   0.371330 0.414485 0.115152 -0.479994
O27   O     O_2   0.437274 0.933902 0.778144 -0.496364
O28   O     O_2   0.562730 0.066108 0.221860 -0.496358
O29   O     O_2   0.516570 0.623761 0.391653 -0.451108
O30   O     O_2   0.483430 0.376241 0.608349 -0.451112
O31   O     O_R   0.865320 0.439260 0.135410 -0.566980
O32   O     O_R   0.306670 0.439270 0.571150 -0.535522
O33   O     O_R   0.693330 0.560730 0.428850 -0.535522
O34   O     O_R   0.135450 0.268370 0.694460 -0.526876
O35   O     O_R   0.864550 0.731630 0.305540 -0.526874
O36   O     O_R   0.429670 0.731610 0.863510 -0.536686
Zn1   Zn    Zn3+2 0.207400 0.586780 0.791530 0.930937
Zn2   Zn    Zn3+2 0.792600 0.413220 0.208470 0.930940
Zn3   Zn    Zn3+2 0.208510 0.413230 0.792630 1.036374
Zn4   Zn    Zn3+2 0.791490 0.586770 0.207370 1.036378
Zn5   Zn    Zn3+2 0.383150 0.586740 0.791530 0.982417
Zn6   Zn    Zn3+2 0.616850 0.413260 0.208470 0.982426
Zn7   Zn    Zn3+2 0.207400 0.413250 0.618010 0.975957
Zn8   Zn    Zn3+2 0.792600 0.586750 0.381990 0.975959

loop_
_geom_bond_atom_site_label_1
_geom_bond_atom_site_label_2
_ccdc_geom_bond_type
C59   H11   S    
C7    C10   S    
C38   C40   A    
C20   C93   S    
C27   H43   S    
O23   Zn1   S    
C41   O7    A    
C27   C29   A    
C57   C79   S    
C13   C32   S    
C54   C82   S    
C24   C89   S    
C85   C91   S    
C1    C33   S    
C4    H22   S    
C21   C36   S    
C4    C46   S    
C2    C46   S    
C15   C19   A    
C74   C76   A    
C61   H14   S    
C76   C78   A    
C41   O23   A    
O2    Zn6   S    
O12   Zn6   S    
C6    C12   S    
O16   Zn5   S    
C41   C77   S    
C86   C88   S    
C73   F7    S    
C49   H10   S    
C87   H1    S    
C57   C99   S    
C71   F9    S    
C60   C73   A    
C33   C36   A    
C13   O35   A    
C60   C62   A    
C23   C26   A    
C61   C63   A    
C100  O29   D    
C45   H5    S    
C99   O28   D    
C62   C64   A    
C2    C79   S    
C43   C58   S    
O4    Zn8   S    
C65   O32   A    
C35   C87   S    
O35   Zn4   S    
C7    C14   S    
C49   C51   A    
C22   C25   A    
C38   C95   S    
C75   F2    S    
C68   C90   S    
C31   H2    S    
C31   C33   A    
O32   Zn7   S    
C19   C92   S    
C55   C81   S    
C3    O30   D    
C35   H19   S    
C40   C44   A    
O12   Zn2   S    
O1    Zn7   S    
C44   C47   A    
C59   C72   A    
C63   C80   S    
C48   C50   A    
C46   C98   S    
C69   C71   A    
C74   C80   A    
C66   O33   A    
C8    H25   S    
C65   O9    A    
C47   H6    S    
C64   C78   S    
C5    C68   S    
C10   C12   S    
C47   C49   A    
C75   C78   A    
C52   C54   A    
C48   H9    S    
C4    C90   S    
C82   O13   A    
C10   C66   S    
O18   Zn1   S    
C5    H24   S    
C22   C34   S    
C63   C67   A    
C3    H39   S    
C51   H4    S    
C59   C61   A    
C57   C90   S    
C85   C87   S    
C66   O10   A    
C28   H23   S    
C18   C90   S    
O5    Zn1   S    
O1    Zn5   S    
O6    Zn2   S    
C4    C79   S    
C88   H12   S    
C84   O15   A    
O14   Zn7   S    
C67   H16   S    
C40   C97   S    
C71   C73   A    
C25   F3    S    
C97   O26   D    
C6    C8    S    
C38   C51   A    
O33   Zn8   S    
C92   O20   D    
C16   C29   A    
C64   C69   A    
C29   H34   S    
C93   O21   D    
C100  H38   S    
C45   C48   A    
C32   C34   A    
C60   H13   S    
C85   H7    S    
O12   Zn8   S    
C46   C68   S    
O1    Zn3   S    
C62   H15   S    
C24   C88   S    
C44   C56   S    
C95   O24   D    
C88   C91   S    
O9    Zn5   S    
C16   C20   A    
C79   H21   S    
C83   O18   A    
O8    Zn4   S    
C42   O8    A    
C31   C34   A    
O7    Zn3   S    
C86   H8    S    
C81   O16   A    
C52   C58   A    
C68   H20   S    
C43   C45   A    
C75   C77   A    
C3    C14   S    
O1    Zn1   S    
O36   Zn5   S    
C42   O31   A    
C1    O34   A    
C72   F6    S    
O34   Zn3   S    
C9    C11   S    
O13   Zn4   S    
C2    C5    S    
C84   C89   S    
C53   C55   A    
C84   O19   A    
C13   O4    A    
C6    C11   S    
C18   O2    A    
O31   Zn2   S    
C24   C85   S    
C53   C56   A    
C7    C9    S    
C99   H37   S    
C82   O17   A    
C52   F4    S    
C8    C14   S    
C19   C21   A    
C94   H31   S    
C97   H35   S    
O12   Zn4   S    
C20   C22   A    
O17   Zn6   S    
C86   C89   S    
O11   Zn3   S    
C74   F10   S    
C7    H28   S    
C39   C43   A    
O10   Zn6   S    
C54   C56   A    
C5    C57   S    
C17   O36   A    
C25   C27   A    
C98   H36   S    
C83   O14   A    
O19   Zn2   S    
C26   C28   A    
C30   C36   A    
C67   C70   A    
C50   H3    S    
C6    H27   S    
C21   C23   A    
C37   C39   A    
C93   H30   S    
C70   F8    S    
C96   H33   S    
C30   C32   A    
C37   C50   A    
C77   C80   A    
C15   C28   A    
C23   F1    S    
C98   O27   D    
C83   C91   S    
C1    O3    A    
C11   C14   S    
C42   C76   S    
C37   C94   S    
C16   H41   S    
O3    Zn7   S    
C96   O25   D    
C17   O5    A    
C9    C12   S    
C39   C96   S    
C12   C100  S    
C18   O6    A    
C9    H26   S    
C53   F5    S    
C30   H44   S    
C26   H42   S    
C69   H17   S    
C95   H32   S    
C8    C10   S    
C55   C58   A    
C24   H18   S    
C87   C89   S    
C81   O11   A    
C70   C72   A    
C92   H29   S    
C35   C86   S    
C15   H40   S    
C11   C65   S    
C94   O22   D    
O15   Zn8   S    
C2    C17   S    
C35   C91   S    
