data_mof_unit_67745.cif
_audit_creation_date              2012-12-10T16:47:16-0500
_audit_creation_method            fapswitch 2.2
_symmetry_space_group_name_H-M    P1
_symmetry_Int_Tables_number       1
_space_group_crystal_system       triclinic
_cell_length_a                    11.811053
_cell_length_b                    12.587778
_cell_length_c                    7.871946
_cell_angle_alpha                 89.51814
_cell_angle_beta                  93.607313
_cell_angle_gamma                 91.021494
_cell_volume                      1167.82527932

loop_
_atom_site_label
_atom_site_type_symbol
_atom_type_description
_atom_site_fract_x
_atom_site_fract_y
_atom_site_fract_z
_atom_type_partial_charge
C1    C     C_R   0.356932 0.849603 0.458621 0.913975
C2    C     C_2   0.713204 0.760391 0.560702 -0.287799
C3    C     C_2   0.703278 0.247343 0.544982 -0.284493
C4    C     C_2   0.296715 0.752663 0.455016 -0.284470
C5    C     C_2   0.786850 0.739654 0.439325 -0.287953
C6    C     C_2   0.213185 0.260375 0.560692 -0.287857
C7    C     C_2   0.203281 0.747340 0.544982 -0.284453
C8    C     C_2   0.796712 0.252667 0.455015 -0.284438
C9    C     C_2   0.823184 0.816399 0.306752 0.989390
C10   C     C_2   0.176879 0.183653 0.693308 0.989454
C11   C     C_2   0.134984 0.841189 0.583779 0.974032
C12   C     C_R   0.643065 0.150399 0.541378 0.913957
C13   C     C_2   0.865016 0.158819 0.416247 0.974111
C14   C     C_2   0.323147 0.316368 0.306718 0.989401
C15   C     C_2   0.676913 0.683679 0.693339 0.989450
C16   C     C_2   0.634985 0.341192 0.583795 0.974059
C17   C     C_2   0.365016 0.658814 0.416232 0.974116
C18   C     C_R   0.646388 0.852440 0.543938 0.905810
C19   C     C_R   0.353621 0.147569 0.456065 0.905783
C20   C     C_R   0.856930 0.349605 0.458621 0.913959
C21   C     C_R   0.143066 0.650398 0.541378 0.913943
C22   C     C_R   0.146383 0.352435 0.543936 0.905780
C23   C     C_R   0.853627 0.647575 0.456067 0.905775
C24   C     C_2   0.286829 0.239637 0.439315 -0.287880
H1    H     H_    0.871836 0.837216 0.066952 0.362731
H2    H     H_    0.128375 0.162887 0.933196 0.362710
H3    H     H_    0.028281 0.907917 0.740766 0.380492
H4    H     H_    0.971684 0.092062 0.259237 0.380469
H5    H     H_    0.371704 0.337156 0.066865 0.362722
H6    H     H_    0.628476 0.662934 0.933268 0.362693
H7    H     H_    0.528268 0.407908 0.740775 0.380494
H8    H     H_    0.471705 0.592071 0.259238 0.380475
I1    I     I_    0.707253 0.016544 0.987250 -0.058683
I2    I     I_    0.292747 0.983430 0.012743 -0.058778
I3    I     I_    0.207253 0.516567 0.987256 -0.058710
I4    I     I_    0.792748 0.483412 0.012739 -0.058797
N1    N     N_2   0.541470 0.000000 0.055820 0.027236
N2    N     N_2   0.458530 0.000000 0.944180 0.027228
N3    N     N_2   0.041470 0.500000 0.055820 0.027250
N4    N     N_2   0.958530 0.500000 0.944180 0.027244
O1    O     O_R   0.375700 0.885870 0.609240 -0.616722
O2    O     O_R   0.597720 0.114130 0.675960 -0.580657
O3    O     O_R   0.597720 0.885870 0.675960 -0.590037
O4    O     O_R   0.402280 0.114130 0.324040 -0.589952
O5    O     O_R   0.902280 0.385870 0.324040 -0.580704
O6    O     O_R   0.097720 0.614130 0.675960 -0.580666
O7    O     O_R   0.097720 0.385870 0.675960 -0.589989
O8    O     O_R   0.902280 0.614130 0.324040 -0.589889
O9    O     O_2   0.848603 0.907741 0.345221 -0.575469
O10   O     O_R   0.835953 0.781386 0.140959 -0.730534
O11   O     O_2   0.151311 0.092342 0.654842 -0.575430
O12   O     O_R   0.624300 0.114130 0.390760 -0.616705
O13   O     O_R   0.164297 0.218672 0.859150 -0.730545
O14   O     O_2   0.124714 0.913963 0.480428 -0.567773
O15   O     O_R   0.075470 0.841942 0.731772 -0.758303
O16   O     O_2   0.875344 0.086085 0.519664 -0.567729
O17   O     O_R   0.924476 0.158027 0.268203 -0.758292
O18   O     O_2   0.348661 0.407689 0.345187 -0.575471
O19   O     O_R   0.335797 0.281354 0.140896 -0.730540
O20   O     O_2   0.651288 0.592379 0.654878 -0.575431
O21   O     O_R   0.664407 0.718702 0.859201 -0.730566
O22   O     O_2   0.624741 0.413985 0.480476 -0.567742
O23   O     O_R   0.624300 0.885870 0.390760 -0.601705
O24   O     O_R   0.575447 0.341928 0.731767 -0.758322
O25   O     O_2   0.375310 0.586057 0.519609 -0.567709
O26   O     O_R   0.424506 0.658042 0.268217 -0.758317
O27   O     O_R   0.375700 0.114130 0.609240 -0.601723
O28   O     O_R   0.875700 0.385870 0.609240 -0.616719
O29   O     O_R   0.124300 0.614130 0.390760 -0.616705
O30   O     O_R   0.124300 0.385870 0.390760 -0.601736
O31   O     O_R   0.875700 0.614130 0.609240 -0.601740
O32   O     O_R   0.402280 0.885870 0.324040 -0.580693
Zn1   Zn    Zn3+2 0.482250 0.000000 0.690430 1.098511
Zn2   Zn    Zn3+2 0.517750 0.000000 0.309570 1.098520
Zn3   Zn    Zn3+2 0.982250 0.500000 0.690430 1.098525
Zn4   Zn    Zn3+2 0.017750 0.500000 0.309570 1.098533

loop_
_geom_bond_atom_site_label_1
_geom_bond_atom_site_label_2
_ccdc_geom_bond_type
O3    Zn1   S    
N1    Zn2   S    
C8    C13   S    
C2    C18   S    
C15   O20   D    
O8    Zn4   S    
H4    O17   S    
O28   Zn3   S    
C7    C11   S    
C14   O19   S    
C17   O26   S    
C8    C20   S    
O5    Zn4   S    
O12   Zn2   S    
H3    O15   S    
C18   O23   A    
C13   O17   S    
C6    C22   S    
O29   Zn4   S    
C14   C24   S    
C10   O13   S    
H1    O10   S    
C12   O2    A    
C3    C12   S    
H5    O19   S    
C19   O27   A    
O27   Zn1   S    
C20   O5    A    
C13   O16   D    
C22   O7    A    
C16   O22   D    
C4    C7    D    
C10   O11   D    
O6    Zn3   S    
C12   O12   A    
C14   O18   D    
C1    O32   A    
C23   O31   A    
I4    N4    S    
C9    O9    D    
O32   Zn2   S    
C3    C8    D    
N3    N4    D    
C7    C21   S    
I1    N1    S    
C21   O29   A    
I3    N3    S    
C5    C9    S    
N1    N2    D    
C5    C23   S    
C6    C24   D    
C15   O21   S    
N3    Zn4   S    
O4    Zn2   S    
C2    C15   S    
C11   O14   D    
C4    C17   S    
C1    O1    A    
O30   Zn4   S    
C2    C5    D    
H2    O13   S    
C11   O15   S    
C19   O4    A    
H8    O26   S    
C21   O6    A    
O2    Zn1   S    
C23   O8    A    
I2    N2    S    
H7    O24   S    
C20   O28   A    
C9    O10   S    
C6    C10   S    
O23   Zn2   S    
C17   O25   D    
N4    Zn3   S    
C1    C4    S    
C19   C24   S    
O7    Zn3   S    
C18   O3    A    
O31   Zn3   S    
O1    Zn1   S    
H6    O21   S    
C16   O24   S    
C22   O30   A    
C3    C16   S    
N2    Zn1   S    
