data_mof_unit_19925.cif
_audit_creation_date              2012-12-10T17:18:18-0500
_audit_creation_method            fapswitch 2.2
_symmetry_space_group_name_H-M    P1
_symmetry_Int_Tables_number       1
_space_group_crystal_system       triclinic
_cell_length_a                    10.229278
_cell_length_b                    10.444322
_cell_length_c                    14.907699
_cell_angle_alpha                 91.731862
_cell_angle_beta                  81.563276
_cell_angle_gamma                 94.681963
_cell_volume                      1569.94528456

loop_
_atom_site_label
_atom_site_type_symbol
_atom_type_description
_atom_site_fract_x
_atom_site_fract_y
_atom_site_fract_z
_atom_type_partial_charge
C1    C     C_R   0.554477 0.734967 0.498265 0.965451
C2    C     C_2   0.075790 0.506091 0.481711 0.492026
C3    C     C_R   0.500740 0.501093 0.672587 0.983277
C4    C     C_R   0.499138 0.498008 0.327537 0.944954
C5    C     C_R   0.478927 0.379190 0.187276 0.438725
C6    C     C_R   0.526775 0.618153 0.812818 0.435510
C7    C     C_R   0.497563 0.495771 0.232549 -0.118688
C8    C     C_R   0.502922 0.502403 0.767693 -0.136805
C9    C     C_R   0.522398 0.610971 0.188268 -0.245169
C10   C     C_R   0.477798 0.387038 0.811922 -0.244842
C11   C     C_R   0.527921 0.614333 0.094694 0.033657
C12   C     C_R   0.445527 0.265194 0.508005 0.971122
C13   C     C_R   0.476495 0.382875 0.905201 0.030999
C14   C     C_R   0.501807 0.497470 0.046845 -0.042983
C15   C     C_R   0.504266 0.499388 0.952969 -0.040306
C16   C     C_R   0.473444 0.378839 0.093402 -0.031036
C17   C     C_R   0.533711 0.617894 0.906429 -0.030332
C18   C     C_R   0.563224 0.731106 0.048447 -0.111998
C19   C     C_R   0.443752 0.265641 0.951324 -0.103564
C20   C     C_2   0.600028 0.851299 0.097996 0.875903
C21   C     C_2   0.408228 0.145172 0.901685 0.858760
C22   C     C_2   0.318024 0.054797 0.474510 0.879075
C23   C     C_R   0.569504 0.732128 0.953497 0.378673
C24   C     C_2   0.693856 0.940607 0.452016 0.862571
C25   C     C_R   0.439718 0.264147 0.046170 0.382238
C26   C     C_2   0.581860 0.872986 0.511876 -0.272392
C27   C     C_2   0.418559 0.127821 0.523485 -0.312485
C28   C     C_2   0.500108 0.933032 0.577027 0.383891
C29   C     C_2   0.494630 0.073354 0.576879 0.295877
C30   C     C_2   0.929796 0.527788 0.495683 0.639217
H1    H     H_    0.541323 0.696836 0.228343 0.191404
H2    H     H_    0.360038 0.922180 0.680272 0.352101
H3    H     H_    0.197779 0.893758 0.462759 0.361055
H4    H     H_    0.838192 0.084445 0.437007 0.379755
H5    H     H_    0.190644 0.385128 0.419797 0.391768
H6    H     H_    0.959275 0.704079 0.535975 0.347721
H7    H     H_    0.178848 0.625409 0.649550 0.401579
H8    H     H_    0.804529 0.299900 0.397594 0.375931
H9    H     H_    0.455934 0.301634 0.772174 0.202804
H10   H     H_    0.537547 0.213211 0.204413 0.368170
H11   H     H_    0.473517 0.786222 0.796582 0.375429
H12   H     H_    0.741101 0.992107 0.116253 0.362195
H13   H     H_    0.269117 0.002297 0.883840 0.351191
H14   H     H_    0.599429 0.919314 0.943001 0.353620
H15   H     H_    0.413015 0.076649 0.055864 0.354708
H16   H     H_    0.620797 0.093518 0.662638 0.394261
N1    N     N_2   0.842700 0.448880 0.462930 0.033455
N2    N     N_2   0.157300 0.551120 0.537070 -0.022826
O1    O     O_R   0.431060 0.692470 0.507460 -0.552231
O2    O     O_3   0.538559 0.729383 0.763953 -0.673238
O3    O     O_2   0.517616 0.899211 0.154018 -0.589132
O4    O     O_R   0.728323 0.910463 0.078942 -0.735876
O5    O     O_2   0.490894 0.098877 0.845015 -0.612923
O6    O     O_R   0.280974 0.083894 0.921363 -0.743883
O7    O     O_3   0.615546 0.841591 0.904760 -0.675650
O8    O     O_3   0.397321 0.153792 0.094783 -0.661779
O9    O     O_3   0.572192 0.150090 0.629152 -0.705939
O10   O     O_3   0.411791 0.861923 0.639372 -0.697203
O11   O     O_2   0.279306 0.104138 0.410836 -0.536346
O12   O     O_R   0.568940 0.307530 0.492540 -0.567103
O13   O     O_R   0.265127 0.931978 0.501631 -0.757606
O14   O     O_2   0.733008 0.894308 0.377506 -0.590347
O15   O     O_R   0.758412 0.053504 0.481807 -0.744883
O16   O     O_3   0.123222 0.439574 0.404138 -0.696914
O17   O     O_3   0.884877 0.636522 0.540892 -0.718035
O18   O     O_3   0.102930 0.598384 0.617393 -0.680513
O19   O     O_3   0.884477 0.342375 0.419220 -0.645993
O20   O     O_R   0.651120 0.659650 0.483670 -0.566400
O21   O     O_R   0.348880 0.340350 0.516330 -0.640231
O22   O     O_R   0.389960 0.516440 0.644050 -0.625638
O23   O     O_R   0.610040 0.483560 0.355950 -0.622298
O24   O     O_R   0.610030 0.483620 0.620260 -0.555573
O25   O     O_R   0.389970 0.516380 0.379740 -0.607206
O26   O     O_3   0.470217 0.268245 0.236399 -0.682130
Zn1   Zn    Zn3+2 0.353060 0.521920 0.515880 1.048245
Zn2   Zn    Zn3+2 0.646940 0.478080 0.484120 1.101177

loop_
_geom_bond_atom_site_label_1
_geom_bond_atom_site_label_2
_ccdc_geom_bond_type
C5    O26   S    
C6    C8    A    
C12   O21   A    
O1    Zn1   S    
C11   C18   A    
C23   O7    S    
H5    O16   S    
C28   O10   S    
O20   Zn2   S    
C9    C11   A    
C1    C26   S    
H11   O2    S    
H13   O6    S    
C26   C28   D    
N2    Zn1   S    
C25   O8    S    
H2    O10   S    
O24   Zn2   S    
N2    O18   S    
H7    O18   S    
C1    O20   A    
C14   C15   A    
C3    O24   A    
C5    C7    A    
C20   O4    S    
C17   C23   A    
C6    O2    S    
C22   O13   S    
C21   O5    D    
O25   Zn1   S    
H14   O7    S    
C4    O25   A    
C21   O6    S    
C4    C7    S    
N1    O19   S    
H4    O15   S    
C19   C21   S    
C2    O16   S    
N1    Zn2   S    
O21   Zn1   S    
C20   O3    D    
C18   C20   S    
C22   C27   S    
C13   C15   A    
H16   O9    S    
O23   Zn2   S    
C19   C25   A    
C11   C14   A    
C14   C16   A    
C24   O15   S    
C30   O17   S    
C27   C29   D    
C2    C30   S    
C9    H1    S    
C12   C27   S    
C18   C23   A    
C12   O12   A    
C30   N1    D    
C22   O11   D    
C3    O22   A    
H8    O19   S    
O22   Zn1   S    
C8    C10   A    
C3    C8    S    
C29   O9    S    
H12   O4    S    
C16   C25   A    
C7    C9    A    
C6    C17   A    
C13   C19   A    
H6    O17   S    
C28   C29   S    
C5    C16   A    
C24   O14   D    
C2    N2    D    
C15   C17   A    
C1    O1    A    
H3    O13   S    
O12   Zn2   S    
C4    O23   A    
C24   C26   S    
H15   O8    S    
H10   O26   S    
C10   H9    S    
C10   C13   A    
