data_mof_unit_53776.cif
_audit_creation_date              2012-12-11T15:50:33-0500
_audit_creation_method            fapswitch 2.2
_symmetry_space_group_name_H-M    P1
_symmetry_Int_Tables_number       1
_space_group_crystal_system       triclinic
_cell_length_a                    18.959647
_cell_length_b                    10.949877
_cell_length_c                    18.744144
_cell_angle_alpha                 90.025478
_cell_angle_beta                  91.150482
_cell_angle_gamma                 89.89864
_cell_volume                      3890.60217821

loop_
_atom_site_label
_atom_site_type_symbol
_atom_type_description
_atom_site_fract_x
_atom_site_fract_y
_atom_site_fract_z
_atom_type_partial_charge
C1    C     C_R   0.289203 0.999954 0.861118 0.559719
C2    C     C_R   0.760326 0.573212 0.928632 0.015082
C3    C     C_R   0.229421 0.549943 0.352112 0.552827
C4    C     C_R   0.466526 0.823343 0.644918 0.570371
C5    C     C_R   0.528961 0.823182 0.352254 0.545029
C6    C     C_R   0.970274 0.323966 0.647312 0.559063
C7    C     C_R   0.031956 0.322930 0.354177 0.545861
C8    C     C_R   0.262481 0.645660 0.640297 0.587500
C9    C     C_R   0.739781 0.639073 0.357198 0.558525
C10   C     C_R   0.762312 0.145294 0.640390 0.587046
C11   C     C_R   0.240005 0.138712 0.356894 0.560180
C12   C     C_3   0.460898 0.926871 0.035239 -0.043507
C13   C     C_R   0.725832 0.036600 0.065355 0.021055
C14   C     C_3   0.510770 0.918991 0.971047 -0.015493
C15   C     C_3   0.963054 0.435594 0.033478 -0.038406
C16   C     C_3   0.012396 0.414500 0.969864 -0.022414
C17   C     C_3   0.412197 0.828532 0.000694 -0.146901
C18   C     C_3   0.553443 0.816876 0.008891 -0.099729
C19   C     C_3   0.908975 0.344264 0.000406 -0.135802
C20   C     C_3   0.048747 0.308250 0.010091 -0.114021
C21   C     C_3   0.462651 0.821300 0.937751 0.036188
C22   C     C_3   0.502681 0.825104 0.071548 0.046367
C23   C     C_3   0.959198 0.323297 0.938236 0.041971
C24   C     C_R   0.278297 0.020154 0.937350 0.007054
C25   C     C_3   0.998785 0.328807 0.072528 0.043693
C26   C     C_R   0.292915 0.527443 0.036804 -0.052179
C27   C     C_R   0.696298 0.547705 0.961364 -0.059753
C28   C     C_R   0.793495 0.031679 0.037189 -0.057618
C29   C     C_R   0.222157 0.966836 0.973883 -0.040531
C30   C     C_R   0.303807 0.551696 0.965311 -0.022670
C31   C     C_R   0.689968 0.557527 0.034927 -0.007492
C32   C     C_R   0.804024 0.053739 0.965428 -0.020987
C33   C     C_R   0.711833 0.002995 0.138635 0.575619
C34   C     C_R   0.211595 0.991730 0.045593 0.005435
C35   C     C_R   0.179986 0.597210 0.949325 -0.127794
C36   C     C_R   0.812762 0.611159 0.045566 -0.151009
C37   C     C_R   0.679725 0.093540 0.948672 -0.139987
C38   C     C_R   0.321208 0.100060 0.050830 -0.153107
C39   C     C_R   0.169373 0.576189 0.021243 0.321215
C40   C     C_R   0.817875 0.611730 0.972241 0.313348
C41   C     C_R   0.669388 0.074747 0.020919 0.311287
C42   C     C_R   0.330405 0.081048 0.978329 0.310812
C43   C     C_3   0.342382 0.422002 0.037086 -0.241295
C44   C     C_R   0.774152 0.538977 0.855173 0.553422
C45   C     C_3   0.651870 0.435650 0.957430 -0.246811
C46   C     C_3   0.845684 0.930300 0.039483 -0.241055
C47   C     C_3   0.144707 0.966376 0.957663 -0.256052
C48   C     C_3   0.354666 0.448251 0.958987 -0.227254
C49   C     C_3   0.644732 0.445941 0.037546 -0.236700
C50   C     C_3   0.856402 0.952288 0.960618 -0.226170
C51   C     C_3   0.133397 0.991982 0.036483 -0.254491
C52   C     C_R   0.247089 0.581556 0.919987 -0.037765
C53   C     C_R   0.748966 0.585361 0.078096 -0.045115
C54   C     C_R   0.747088 0.080061 0.919630 -0.042312
C55   C     C_R   0.211550 0.502248 0.138672 0.576106
C56   C     C_R   0.257822 0.068517 0.083607 -0.040145
C57   C     C_R   0.493869 0.828646 0.420420 0.004191
C58   C     C_R   0.481048 0.830086 0.569309 0.030340
C59   C     C_R   0.015705 0.328027 0.429230 -0.002219
C60   C     C_R   0.002187 0.336549 0.578022 0.050459
C61   C     C_R   0.439529 0.816781 0.862518 0.548022
C62   C     C_R   0.529144 0.821132 0.144924 0.548893
C63   C     C_R   0.938392 0.316957 0.862274 0.564123
C64   C     C_R   0.028033 0.321813 0.145365 0.545460
C65   C     C_R   0.483187 0.720024 0.458160 0.020317
C66   C     C_3   0.505256 0.718867 0.974705 -0.123329
C67   C     C_R   0.478224 0.721566 0.530841 0.017291
C68   C     C_R   0.041211 0.233803 0.473007 0.043938
C69   C     C_R   0.036325 0.238314 0.545976 0.032370
C70   C     C_R   0.477574 0.940588 0.530885 -0.066619
C71   C     C_R   0.484425 0.939743 0.456392 -0.109292
C72   C     C_R   0.985064 0.439385 0.535569 -0.050376
C73   C     C_R   0.992545 0.435284 0.461511 -0.139157
C74   C     C_3   0.524455 0.602936 0.460864 -0.263275
C75   C     C_3   0.519257 0.606637 0.541187 -0.274374
C76   C     C_3   0.027194 0.099872 0.470175 -0.262561
C77   C     C_3   0.455099 0.726636 0.038327 -0.137585
C78   C     C_3   0.025664 0.103106 0.550898 -0.277394
C79   C     C_R   0.251436 0.610827 0.416951 0.026523
C80   C     C_R   0.745869 0.591633 0.579140 0.026404
C81   C     C_R   0.751209 0.111059 0.416947 0.027370
C82   C     C_R   0.247017 0.089241 0.578309 0.029794
C83   C     C_R   0.201418 0.679340 0.454051 -0.043418
C84   C     C_R   0.777348 0.692247 0.547840 -0.031176
C85   C     C_R   0.701208 0.179734 0.454054 -0.040459
C86   C     C_R   0.277439 0.191243 0.547445 -0.028962
C87   C     C_R   0.206174 0.687287 0.526477 0.033413
C88   C     C_3   0.995324 0.216841 0.977857 -0.132970
C89   C     C_R   0.776905 0.701707 0.475191 0.057869
C90   C     C_R   0.705879 0.187674 0.526599 0.037799
C91   C     C_R   0.276747 0.201716 0.474795 0.059078
C92   C     C_R   0.318708 0.586343 0.526436 -0.172936
C93   C     C_R   0.703801 0.523200 0.462773 -0.185283
C94   C     C_R   0.817720 0.084520 0.526496 -0.175825
C95   C     C_R   0.207317 0.018848 0.461558 -0.174086
C96   C     C_R   0.314950 0.580265 0.451888 -0.166262
C97   C     C_R   0.702584 0.514590 0.536675 -0.167225
C98   C     C_R   0.814282 0.079315 0.452002 -0.171523
C99   C     C_3   0.945577 0.237683 0.040887 -0.142652
C100  C     C_R   0.206269 0.009227 0.535298 -0.162952
C101  C     C_3   0.122099 0.672388 0.456462 -0.191748
C102  C     C_3   0.849671 0.746614 0.555092 -0.212870
C103  C     C_3   0.622021 0.171037 0.456497 -0.196689
C104  C     C_3   0.349742 0.245751 0.554736 -0.214350
C105  C     C_3   0.128598 0.681820 0.536595 0.244210
C106  C     C_3   0.849317 0.754395 0.474587 0.243386
C107  C     C_3   0.628286 0.180935 0.536539 0.238621
C108  C     C_3   0.349088 0.254902 0.474340 0.240778
C109  C     C_R   0.260181 0.634484 0.850672 0.545690
C110  C     C_R   0.225430 0.535104 0.065247 0.025022
C111  C     C_R   0.739326 0.634517 0.149093 0.540314
C112  C     C_R   0.760093 0.133986 0.850492 0.547073
C113  C     C_R   0.240013 0.133845 0.149150 0.537036
C114  C     C_R   0.260173 0.628918 0.564263 0.063731
C115  C     C_R   0.745579 0.612517 0.431673 0.065017
C116  C     C_R   0.759647 0.128462 0.564331 0.067555
C117  C     C_R   0.246565 0.111636 0.431048 0.072940
C118  C     C_R   0.270767 0.046176 0.646629 0.559158
C119  C     C_R   0.729367 0.050003 0.352100 0.552437
C120  C     C_R   0.770560 0.546600 0.646820 0.552673
Cr1   Cr    Cr6+3 0.229640 0.835880 0.747370 1.020620
Cr2   Cr    Cr6+3 0.614230 0.677220 0.250660 1.014460
Cr3   Cr    Cr6+3 0.885770 0.177220 0.749340 1.013253
Cr4   Cr    Cr6+3 0.114230 0.177220 0.250660 1.016063
Cr5   Cr    Cr6+3 0.770360 0.835880 0.252630 1.031434
Cr6   Cr    Cr6+3 0.729640 0.335880 0.747370 1.020091
Cr7   Cr    Cr6+3 0.270360 0.335880 0.252630 1.031669
Cr8   Cr    Cr6+3 0.387390 0.989720 0.750850 1.063764
Cr9   Cr    Cr6+3 0.612610 0.989720 0.249150 1.059052
Cr10  Cr    Cr6+3 0.887390 0.489720 0.750850 1.067099
Cr11  Cr    Cr6+3 0.112610 0.489720 0.249150 1.061270
Cr12  Cr    Cr6+3 0.385770 0.677220 0.749340 1.011982
F1    F     F_    0.109298 0.575708 0.571065 -0.637754
F2    F     F_    0.897331 0.676179 0.444246 -0.666899
F3    F     F_    0.609170 0.074501 0.570924 -0.644424
F4    F     F_    0.397206 0.177474 0.443383 -0.664695
F5    F     F_    0.103841 0.593921 0.047266 -0.645649
F6    F     F_    0.881538 0.642104 0.945378 -0.637558
F7    F     F_    0.603821 0.091937 0.046951 -0.643518
F8    F     F_    0.389800 0.125954 0.948686 -0.637818
H1    H     H_    0.353827 0.828406 0.996641 0.108887
H2    H     H_    0.974434 0.075273 0.572197 0.154009
H3    H     H_    0.579077 0.614747 0.442628 0.176272
H4    H     H_    0.487379 0.530857 0.562970 0.136134
H5    H     H_    0.495101 0.525510 0.436045 0.138216
H6    H     H_    0.570651 0.622488 0.569191 0.153775
H7    H     H_    0.975239 0.078602 0.444984 0.136016
H8    H     H_    0.071415 0.056859 0.576983 0.141442
H9    H     H_    0.365360 0.553371 0.554211 0.129711
H10   H     H_    0.673519 0.459493 0.430293 0.120779
H11   H     H_    0.863264 0.048473 0.554305 0.116753
H12   H     H_    0.611844 0.812018 0.014003 0.117140
H13   H     H_    0.179513 0.952591 0.428628 0.114696
H14   H     H_    0.100884 0.582993 0.438818 0.199428
H15   H     H_    0.890910 0.684006 0.576203 0.185034
H16   H     H_    0.602105 0.080601 0.439213 0.192845
H17   H     H_    0.391038 0.182459 0.575218 0.184795
H18   H     H_    0.105281 0.766097 0.559185 0.112887
H19   H     H_    0.851063 0.847426 0.453019 0.129346
H20   H     H_    0.604574 0.265022 0.558947 0.113763
H21   H     H_    0.350575 0.348405 0.453332 0.127287
H22   H     H_    0.448820 0.011296 0.064781 0.169740
H23   H     H_    0.851034 0.356942 0.994834 0.112019
H24   H     H_    0.532019 0.997460 0.941016 0.187400
H25   H     H_    0.953769 0.525138 0.058868 0.175593
H26   H     H_    0.038626 0.486332 0.938386 0.172060
H27   H     H_    0.819844 0.842936 0.051435 0.165188
H28   H     H_    0.125647 0.874712 0.940678 0.170817
H29   H     H_    0.313631 0.336036 0.046043 0.157997
H30   H     H_    0.682132 0.353721 0.941176 0.169759
H31   H     H_    0.389621 0.437146 0.071974 0.146801
H32   H     H_    0.601472 0.451024 0.927487 0.145248
H33   H     H_    0.892838 0.951763 0.073289 0.145513
H34   H     H_    0.106768 0.295461 0.015025 0.104511
H35   H     H_    0.128131 0.043064 0.922210 0.145011
H36   H     H_    0.409030 0.480550 0.948492 0.149845
H37   H     H_    0.590094 0.467739 0.053942 0.156195
H38   H     H_    0.910044 0.985866 0.948508 0.149905
H39   H     H_    0.109747 0.082532 0.047221 0.150100
H40   H     H_    0.335062 0.374852 0.922686 0.186819
H41   H     H_    0.670303 0.369445 0.067407 0.167330
H42   H     H_    0.837242 0.876233 0.926071 0.189825
H43   H     H_    0.108644 0.914385 0.064787 0.178464
H44   H     H_    0.358056 0.540925 0.422709 0.122765
H45   H     H_    0.472812 0.026906 0.558336 0.187767
H46   H     H_    0.673932 0.439736 0.559740 0.128411
H47   H     H_    0.856816 0.038610 0.422770 0.115024
H48   H     H_    0.179713 0.931849 0.557939 0.121909
H49   H     H_    0.096159 0.753335 0.431500 0.097317
H50   H     H_    0.848514 0.837187 0.581612 0.090625
H51   H     H_    0.595322 0.250982 0.431228 0.098740
H52   H     H_    0.348722 0.336017 0.581708 0.091126
H53   H     H_    0.523563 0.633169 0.949413 0.132123
H54   H     H_    0.432812 0.648594 0.067972 0.133982
H55   H     H_    0.008799 0.126934 0.954488 0.127391
H56   H     H_    0.488194 0.025037 0.427927 0.199172
H57   H     H_    0.918757 0.166817 0.072509 0.134047
H58   H     H_    0.135672 0.628819 0.916919 0.157216
H59   H     H_    0.858181 0.640239 0.077006 0.154440
H60   H     H_    0.635177 0.122870 0.915856 0.159789
H61   H     H_    0.361487 0.151680 0.079270 0.159972
H62   H     H_    0.961264 0.519369 0.558662 0.176256
H63   H     H_    0.978585 0.513469 0.429182 0.208154
H64   H     H_    0.071412 0.046691 0.448697 0.152683
O1    O     O_R   0.214300 0.709080 0.827500 -0.525940
O2    O     O_R   0.543340 0.717710 0.330180 -0.522174
O3    O     O_R   0.956660 0.217710 0.669820 -0.528454
O4    O     O_R   0.043340 0.217710 0.330180 -0.516186
O5    O     O_R   0.320590 0.625770 0.672930 -0.520723
O6    O     O_R   0.679410 0.625770 0.327070 -0.522973
O7    O     O_R   0.820590 0.125770 0.672930 -0.522093
O8    O     O_R   0.179410 0.125770 0.327070 -0.517218
O9    O     O_3   0.334270 0.834280 0.749190 -0.305831
O10   O     O_3   0.665730 0.834280 0.250810 -0.279562
O11   O     O_3   0.834270 0.334280 0.749190 -0.288597
O12   O     O_R   0.785700 0.709080 0.172500 -0.536010
O13   O     O_3   0.165730 0.334280 0.250810 -0.281176
O14   O     O_R   0.236190 0.958390 0.823150 -0.512560
O15   O     O_R   0.763810 0.958390 0.176850 -0.519091
O16   O     O_R   0.736190 0.458390 0.823150 -0.520849
O17   O     O_R   0.263810 0.458390 0.176850 -0.518325
O18   O     O_R   0.332090 0.075280 0.831290 -0.440488
O19   O     O_R   0.667910 0.075280 0.168710 -0.448271
O20   O     O_R   0.832090 0.575280 0.831290 -0.442252
O21   O     O_R   0.167910 0.575280 0.168710 -0.443638
O22   O     O_R   0.446280 0.918040 0.826620 -0.483229
O23   O     O_R   0.714300 0.209080 0.827500 -0.527244
O24   O     O_R   0.553720 0.918040 0.173380 -0.478803
O25   O     O_R   0.946280 0.418040 0.826620 -0.476553
O26   O     O_R   0.053720 0.418040 0.173380 -0.478597
O27   O     O_R   0.457080 0.716270 0.831760 -0.518591
O28   O     O_R   0.542920 0.716270 0.168240 -0.525222
O29   O     O_R   0.957080 0.216270 0.831760 -0.522307
O30   O     O_R   0.042920 0.216270 0.168240 -0.528655
O31   O     O_R   0.320980 0.624440 0.823040 -0.507787
O32   O     O_R   0.679020 0.624440 0.176960 -0.492099
O33   O     O_R   0.820980 0.124440 0.823040 -0.506083
O34   O     O_R   0.285700 0.209080 0.172500 -0.536833
O35   O     O_R   0.179020 0.124440 0.176960 -0.496022
O36   O     O_R   0.213880 0.710510 0.665560 -0.488863
O37   O     O_R   0.786120 0.710510 0.334440 -0.473203
O38   O     O_R   0.713880 0.210510 0.665560 -0.488458
O39   O     O_R   0.286120 0.210510 0.334440 -0.473768
O40   O     O_R   0.235800 0.959720 0.673040 -0.515584
O41   O     O_R   0.764200 0.959720 0.326960 -0.507060
O42   O     O_R   0.735800 0.459720 0.673040 -0.517056
O43   O     O_R   0.264200 0.459720 0.326960 -0.507386
O44   O     O_R   0.331670 0.076720 0.669350 -0.528135
O45   O     O_R   0.445900 0.919370 0.676500 -0.494774
O46   O     O_R   0.668330 0.076720 0.330650 -0.528751
O47   O     O_R   0.831670 0.576720 0.669350 -0.531304
O48   O     O_R   0.168330 0.576720 0.330650 -0.527964
O49   O     O_R   0.554100 0.919370 0.323500 -0.510609
O50   O     O_R   0.945900 0.419370 0.676500 -0.496750
O51   O     O_R   0.054100 0.419370 0.323500 -0.508905
O52   O     O_R   0.456660 0.717710 0.669820 -0.519636

loop_
_geom_bond_atom_site_label_1
_geom_bond_atom_site_label_2
_ccdc_geom_bond_type
Cr1   O40   S    
Cr2   O32   S    
C74   H3    S    
C89   C115  A    
C34   C56   A    
Cr3   O11   S    
C80   C97   A    
Cr6   O42   S    
C84   C102  S    
Cr1   O14   S    
C14   C18   S    
C74   H5    S    
Cr5   O41   S    
Cr6   O23   S    
C44   O16   A    
C36   H59   S    
Cr1   O1    S    
C104  H17   S    
Cr9   O19   S    
C3    C79   S    
C45   H30   S    
C66   H53   S    
C80   C120  S    
C107  H20   S    
C93   H10   S    
C103  H51   S    
Cr10  O47   S    
C95   C117  A    
C15   C19   S    
C73   H63   S    
C28   C46   S    
C34   C51   S    
C3    O43   A    
Cr12  O27   S    
C29   C47   S    
C52   C109  S    
C14   C21   S    
C30   C48   S    
Cr11  O21   S    
C100  H48   S    
C76   C78   S    
C4    O45   A    
C38   C42   A    
C101  H49   S    
C86   C91   A    
C78   H2    S    
C59   C68   A    
Cr5   O12   S    
C18   H12   S    
C15   C25   S    
C82   C118  S    
C64   O26   A    
C81   C98   A    
C94   C98   A    
C7    O51   A    
C15   C16   S    
C104  H52   S    
C12   C22   S    
C92   C96   A    
C24   C42   A    
C6    O50   A    
C17   H1    S    
C93   C115  A    
C37   H60   S    
C5    O49   A    
Cr9   O10   S    
Cr2   O2    S    
C24   C29   A    
C87   C114  A    
C107  F3    S    
C36   C53   A    
C70   H45   S    
C61   O27   A    
C5    O2    A    
Cr3   O29   S    
C63   O25   A    
C21   C66   S    
C25   C99   S    
C39   C110  A    
C20   H34   S    
C76   H7    S    
C2    C44   S    
C68   C69   A    
C65   C67   A    
C38   H61   S    
C40   F6    S    
C12   C17   S    
Cr6   O38   S    
C56   C113  S    
C91   C117  A    
C13   C28   A    
Cr5   O37   S    
C2    C27   A    
C44   O20   A    
C90   C116  A    
C83   C101  S    
C43   C48   S    
C59   C73   A    
C21   C61   S    
C75   H4    S    
C85   C103  S    
C8    C114  S    
Cr8   O9    S    
C55   O17   A    
Cr4   O30   S    
C53   C111  S    
C8    O36   A    
C86   C104  S    
C112  O23   A    
Cr4   O4    S    
C14   H24   S    
C88   H55   S    
C69   C78   S    
C50   H42   S    
C120  O42   A    
C43   H31   S    
C96   H44   S    
C51   H39   S    
C7    C59   S    
C118  O40   A    
C26   C43   S    
C111  O32   A    
C49   H37   S    
C33   O15   A    
C75   H6    S    
C101  C105  S    
C97   H46   S    
C48   H40   S    
C46   H27   S    
C54   C112  S    
C80   C84   A    
C9    C115  S    
C42   F8    S    
C6    C60   S    
C28   C32   A    
C26   C110  A    
Cr7   O39   S    
C111  O12   A    
C72   C73   A    
C74   C75   S    
C119  O46   A    
C16   H26   S    
Cr4   O35   S    
C94   C116  A    
C95   C100  A    
C58   C70   A    
C47   C51   S    
Cr4   O8    S    
Cr10  O25   S    
C94   H11   S    
C82   C86   A    
C27   C31   A    
C29   C34   A    
C17   C21   S    
C65   C74   S    
Cr2   O10   S    
Cr3   O7    S    
C1    O18   A    
C95   H13   S    
C25   C64   S    
Cr1   O9    S    
C89   C106  S    
C35   C39   A    
C77   H54   S    
C13   C33   S    
C98   H47   S    
C39   F5    S    
C22   C62   S    
C57   C71   A    
Cr5   O10   S    
C58   C67   A    
C106  F2    S    
C105  H18   S    
C87   C105  S    
Cr7   O13   S    
C36   C40   A    
C9    O6    A    
C16   C20   S    
Cr7   O43   S    
C99   H57   S    
C27   C45   S    
C17   C77   S    
C45   C49   S    
C46   H33   S    
Cr3   O3    S    
Cr10  O11   S    
C19   H23   S    
C3    O48   A    
C109  O1    A    
C32   C50   S    
C6    O3    A    
C1    O14   A    
Cr8   O44   S    
C1    C24   S    
Cr2   O6    S    
C49   H41   S    
C37   C54   A    
C109  O31   A    
Cr11  O26   S    
C60   C69   A    
C113  O34   A    
C12   C14   S    
C9    O37   A    
C26   C30   A    
C16   C23   S    
C62   O28   A    
C23   C88   S    
C43   H29   S    
C55   C110  S    
C7    O4    A    
C31   C53   A    
C67   C75   S    
C84   C89   A    
C4    O52   A    
Cr11  O51   S    
Cr8   O18   S    
C8    O5    A    
C11   C117  S    
C45   H32   S    
C93   C97   A    
C104  C108  S    
C70   C71   A    
C10   C116  S    
Cr11  O48   S    
C19   C23   S    
C72   H62   S    
C66   C77   S    
C30   C52   A    
Cr9   O46   S    
C19   C99   S    
C10   O38   A    
Cr5   O15   S    
C50   H38   S    
C64   O30   A    
C18   C22   S    
C105  F1    S    
C82   C100  A    
C91   C108  S    
C10   O7    A    
Cr12  O5    S    
Cr8   O45   S    
C22   C77   S    
C57   C65   A    
C11   O8    A    
Cr10  O50   S    
C83   C87   A    
C90   C107  S    
C85   C90   A    
C76   H64   S    
C108  F4    S    
C13   C41   A    
C120  O47   A    
C78   H8    S    
C68   C76   S    
Cr1   O36   S    
Cr2   O28   S    
C108  H21   S    
C46   C50   S    
C51   H43   S    
C61   O22   A    
C32   C54   A    
C92   H9    S    
C5    C57   S    
C11   O39   A    
Cr11  O13   S    
Cr6   O16   S    
C33   O19   A    
Cr12  O52   S    
Cr10  O20   S    
C119  O41   A    
C79   C96   A    
C81   C119  S    
C79   C83   A    
C47   H28   S    
C55   O21   A    
C71   H56   S    
Cr4   O13   S    
C101  H14   S    
C62   O24   A    
C20   C88   S    
Cr9   O24   S    
C23   C63   S    
C102  H50   S    
C102  C106  S    
C118  O44   A    
C37   C41   A    
C18   C66   S    
Cr12  O31   S    
C81   C85   A    
C41   F7    S    
C88   C99   S    
Cr6   O11   S    
Cr7   O17   S    
C63   O29   A    
C12   H22   S    
C2    C40   A    
C103  H16   S    
C113  O35   A    
C38   C56   A    
Cr7   O34   S    
Cr8   O22   S    
C112  O33   A    
C20   C25   S    
C4    C58   S    
C35   C52   A    
Cr9   O49   S    
C60   C72   A    
C15   H25   S    
C103  C107  S    
Cr12  O9    S    
C31   C49   S    
C48   H36   S    
C92   C114  A    
C102  H15   S    
C47   H35   S    
C106  H19   S    
C35   H58   S    
Cr3   O33   S    
