data_mof_unit_19719.cif
_audit_creation_date              2012-12-11T14:51:46-0500
_audit_creation_method            fapswitch 2.2
_symmetry_space_group_name_H-M    P1
_symmetry_Int_Tables_number       1
_space_group_crystal_system       triclinic
_cell_length_a                    6.944822
_cell_length_b                    16.677036
_cell_length_c                    16.879007
_cell_angle_alpha                 101.316858
_cell_angle_beta                  89.439103
_cell_angle_gamma                 91.459712
_cell_volume                      1916.25615248

loop_
_atom_site_label
_atom_site_type_symbol
_atom_type_description
_atom_site_fract_x
_atom_site_fract_y
_atom_site_fract_z
_atom_type_partial_charge
O1    O     O_R   0.506340 0.439070 0.579550 -0.537798
O2    O     O_R   0.170010 0.404890 0.412100 -0.542016
O3    O     O_R   0.005010 0.560930 0.420450 -0.535630
C1    C     C_R   0.339009 0.381278 0.383337 0.675194
O4    O     O_R   0.176280 0.429360 0.578400 -0.543102
O5    O     O_R   0.011320 0.585570 0.587940 -0.539168
C2    C     C_R   0.342068 0.413425 0.605200 0.697626
O6    O     O_R   0.500030 0.414430 0.412060 -0.537419
O7    O     O_3   0.340950 0.551220 0.502940 -0.364446
V1    V     V_3+5 0.064020 0.490500 0.499460 1.397906
O8    O     O_R   0.681910 0.595110 0.587900 -0.541695
C3    C     C_R   0.852013 0.618302 0.616665 0.676743
O9    O     O_R   0.675640 0.570640 0.421600 -0.536594
C4    C     C_R   0.846103 0.586124 0.394799 0.695115
V2    V     V_3+5 0.564670 0.509500 0.500540 1.401961
O10   O     O_3   0.837610 0.448780 0.497060 -0.368805
C5    C     C_R   0.903095 0.863451 0.168386 -0.047153
C6    C     C_R   0.861827 0.634494 0.329560 -0.088004
C7    C     C_R   0.949470 0.646905 0.191862 -0.182679
C8    C     C_R   0.914026 0.596983 0.249571 0.075194
C9    C     C_R   0.828376 0.719036 0.347755 -0.253909
C10   C     C_R   0.852773 0.767317 0.288405 0.154453
C11   C     C_R   0.918327 0.731310 0.210403 0.124662
C12   C     C_R   0.946589 0.779917 0.151268 -0.222580
C13   C     C_R   0.834473 0.898320 0.245660 -0.174156
C14   C     C_R   0.812278 0.851093 0.305497 -0.167610
H1    H     H_    0.996447 0.752403 0.091241 0.097814
H2    H     H_    0.799008 0.962457 0.259803 0.104575
H3    H     H_    0.998451 0.620623 0.131573 0.107564
H4    H     H_    0.760834 0.879875 0.364824 0.111864
H5    H     H_    0.783916 0.747185 0.408396 0.107250
C15   C     C_3   0.707080 0.777607 0.772231 -0.110542
C16   C     C_3   0.800478 0.775827 0.688213 -0.145656
H6    H     H_    0.732040 0.796643 0.636861 0.098848
H7    H     H_    0.561494 0.800572 0.790753 0.110816
C17   C     C_3   0.867515 0.688512 0.687459 -0.005484
C18   C     C_3   0.774251 0.689463 0.770668 -0.145327
C19   C     C_3   0.965605 0.724070 0.811876 -0.146079
C20   C     C_3   0.059003 0.722288 0.727857 -0.110398
C21   C     C_3   0.991833 0.810432 0.729419 -0.144860
C22   C     C_3   0.898568 0.811386 0.812627 -0.004876
H8    H     H_    0.684005 0.639243 0.787111 0.099502
H9    H     H_    0.034037 0.703252 0.863229 0.098051
H10   H     H_    0.204589 0.699322 0.709336 0.110925
H11   H     H_    0.082083 0.860651 0.712978 0.099772
C23   C     C_3   0.471130 0.233348 0.315760 -0.134276
C24   C     C_3   0.308755 0.180162 0.267729 -0.134362
H12   H     H_    0.247851 0.122319 0.281762 0.099472
H13   H     H_    0.542274 0.220105 0.370231 0.100117
C25   C     C_3   0.411488 0.188632 0.188231 -0.012102
C26   C     C_3   0.573681 0.241073 0.235465 -0.118198
C27   C     C_3   0.458414 0.318953 0.233183 -0.136013
C28   C     C_3   0.296678 0.265730 0.185059 -0.139212
C29   C     C_3   0.193683 0.258089 0.265282 -0.122387
C30   C     C_3   0.355735 0.310480 0.312627 -0.009177
H14   H     H_    0.729408 0.233516 0.222050 0.103877
H15   H     H_    0.515500 0.377696 0.220188 0.103407
H16   H     H_    0.231082 0.277723 0.129058 0.109485
H17   H     H_    0.037944 0.265704 0.278658 0.100129
C31   C     C_R   0.430855 0.140709 0.834113 -0.069461
C32   C     C_R   0.335756 0.359776 0.666219 -0.070315
C33   C     C_R   0.145777 0.299124 0.763365 -0.205718
C34   C     C_R   0.164835 0.354162 0.710959 -0.167994
C35   C     C_R   0.489550 0.309586 0.676339 -0.245938
C36   C     C_R   0.470239 0.253164 0.728483 0.161401
C37   C     C_R   0.296602 0.247567 0.772118 0.161217
C38   C     C_R   0.277205 0.191050 0.824166 -0.246008
C39   C     C_R   0.601896 0.146453 0.789492 -0.167563
C40   C     C_R   0.621089 0.201628 0.737242 -0.205635
H18   H     H_    0.145309 0.187978 0.858456 0.122481
H19   H     H_    0.722956 0.108397 0.795437 0.127430
H20   H     H_    0.012153 0.296469 0.796549 0.121890
H21   H     H_    0.754768 0.204337 0.704110 0.121492
H22   H     H_    0.043740 0.392176 0.704947 0.127483
H23   H     H_    0.621433 0.312630 0.642036 0.122592
O11   O     O_R   0.266070 0.085680 0.087850 -0.536962
O12   O     O_R   0.590090 0.070660 0.921580 -0.543141
O13   O     O_R   0.754780 0.914400 0.912080 -0.539734
C41   C     C_R   0.424352 0.086781 0.894871 0.697149
O14   O     O_R   0.596110 0.095130 0.087880 -0.540396
O15   O     O_R   0.760850 0.939050 0.079570 -0.534649
C42   C     C_R   0.427306 0.118387 0.116976 0.680272
O16   O     O_R   0.260010 0.061030 0.920360 -0.538323
O17   O     O_3   0.425070 0.948840 0.997010 -0.365270
V3    V     V_3+5 0.702100 0.009490 0.000550 1.403556
O18   O     O_R   0.090200 0.929250 0.078500 -0.537097
C43   C     C_R   0.919507 0.913601 0.105037 0.696268
O19   O     O_R   0.084180 0.904770 0.912200 -0.542306
C44   C     C_R   0.914079 0.881614 0.883403 0.674368
V4    V     V_3+5 0.201420 0.990350 0.999580 1.405137
O20   O     O_3   0.928580 0.051150 0.002990 -0.368466
C45   C     C_3   0.920749 0.503938 0.227112 -0.351697
C46   C     C_3   0.939896 0.467759 0.136208 -0.313552
C47   C     C_3   0.893952 0.375943 0.117618 -0.780182
H24   H     H_    0.948386 0.346173 0.165882 0.228427
H25   H     H_    0.735994 0.364909 0.112699 0.223307
H26   H     H_    0.960399 0.347599 0.059025 0.215167
H27   H     H_    0.838209 0.497177 0.100869 0.195811
H28   H     H_    0.089658 0.478731 0.116246 0.190481
H29   H     H_    0.042187 0.482728 0.259544 0.168920
H30   H     H_    0.784840 0.478915 0.249092 0.164950

loop_
_geom_bond_atom_site_label_1
_geom_bond_atom_site_label_2
_ccdc_geom_bond_type
C22   C44   S    
C31   C41   S    
C46   C47   S    
C28   H16   S    
C6    C9    A    
C4    C6    S    
O2    C1    A    
C7    C8    A    
C12   H1    S    
C1    O6    A    
V3    O20   S    
C28   C29   S    
C13   H2    S    
C8    C45   S    
C23   H13   S    
C45   H29   S    
C18   C19   S    
C17   C18   S    
O5    C3    A    
C19   C20   S    
V2    O10   S    
C16   C17   S    
C26   H14   S    
C18   H8    S    
C32   C34   A    
C2    C32   S    
C23   C24   S    
O8    V2    S    
C31   C38   A    
C39   C40   A    
C23   C30   S    
C11   C12   A    
C40   H21   S    
O1    V2    S    
C3    C17   S    
O7    V1    S    
C46   H28   S    
C27   C30   S    
C37   C38   A    
O12   V3    S    
C5    C43   S    
O9    C4    A    
O17   V4    S    
C25   C26   S    
C24   C25   S    
C29   H17   S    
O12   C41   A    
O13   C44   A    
C21   H11   S    
C5    C12   A    
C33   C37   A    
C26   C27   S    
C25   C28   S    
C15   H7    S    
O17   V3    S    
C19   C22   S    
O14   C42   A    
O18   V4    S    
O11   C42   A    
C20   C21   S    
O4    C2    A    
O18   C43   A    
C47   H26   S    
C13   C14   A    
C23   C26   S    
C16   C21   S    
C32   C35   A    
C7    C11   A    
O14   V3    S    
C9    H5    S    
C24   H12   S    
C15   C22   S    
C33   C34   A    
C16   H6    S    
C33   H20   S    
C15   C18   S    
C47   H25   S    
O15   C43   A    
O3    C4    A    
C45   H30   S    
C24   C29   S    
O13   V3    S    
C21   C22   S    
O19   V4    S    
C14   H4    S    
O6    V2    S    
O9    V2    S    
C1    C30   S    
O2    V1    S    
C27   C28   S    
C25   C42   S    
O16   V4    S    
C29   C30   S    
O1    C2    A    
C17   C20   S    
O5    V1    S    
O8    C3    A    
C20   H10   S    
C34   H22   S    
C38   H18   S    
C5    C13   A    
C15   C16   S    
O7    V2    S    
C19   H9    S    
O3    V1    S    
V1    O10   S    
C35   C36   A    
C41   O16   A    
V4    O20   S    
C39   H19   S    
C36   C40   A    
C45   C46   S    
C35   H23   S    
C6    C8    A    
C47   H24   S    
C27   H15   S    
O4    V1    S    
O19   C44   A    
C31   C39   A    
C36   C37   A    
C10   C14   A    
C10   C11   A    
C9    C10   A    
C46   H27   S    
O15   V3    S    
O11   V4    S    
C7    H3    S    
