data_mof_unit_28646.cif
_audit_creation_date              2012-12-11T15:31:51-0500
_audit_creation_method            fapswitch 2.2
_symmetry_space_group_name_H-M    P1
_symmetry_Int_Tables_number       1
_space_group_crystal_system       triclinic
_cell_length_a                    13.51862
_cell_length_b                    13.593696
_cell_length_c                    27.639919
_cell_angle_alpha                 90.391997
_cell_angle_beta                  89.98018
_cell_angle_gamma                 119.918239
_cell_volume                      4402.32038378

loop_
_atom_site_label
_atom_site_type_symbol
_atom_type_description
_atom_site_fract_x
_atom_site_fract_y
_atom_site_fract_z
_atom_type_partial_charge
C1    C     C_R   0.619968 0.898362 0.431409 0.548377
C2    C     C_R   0.680921 0.468876 0.231251 -0.113845
C3    C     C_R   0.667502 0.440603 0.280367 -0.110801
C4    C     C_R   0.689715 0.356426 0.297166 0.042224
C5    C     C_R   0.716082 0.412702 0.198752 0.036402
C6    C     C_1   0.723584 0.436925 0.147811 -0.059419
C7    C     C_1   0.664581 0.317796 0.346400 -0.044713
C8    C     C_1   0.728824 0.457819 0.105236 -0.012702
C9    C     C_1   0.232024 0.862563 0.382884 -0.007594
C10   C     C_R   0.275544 0.898524 0.257343 0.391031
C11   C     C_R   0.256047 0.888603 0.207371 -0.066462
C12   C     C_R   0.600551 0.219795 0.431596 0.548372
C13   C     C_R   0.052533 0.774031 0.221553 -0.126248
C14   C     C_R   0.071864 0.783765 0.271516 -0.171837
C15   C     C_R   0.183389 0.845837 0.289554 0.041100
C16   C     C_R   0.144567 0.826159 0.189378 -0.021778
C17   C     C_1   0.123138 0.812074 0.138079 -0.051657
C18   C     C_1   0.204865 0.853334 0.340847 -0.015966
C19   C     C_1   0.096285 0.793627 0.095994 -0.007121
C20   C     C_1   0.636136 0.865649 0.384017 -0.010117
C21   C     C_R   0.557076 0.740773 0.265159 0.013218
C22   C     C_R   0.565830 0.731784 0.214801 -0.106422
C23   C     C_R   0.279354 0.878827 0.430615 0.544533
C24   C     C_R   0.756002 0.895983 0.216103 -0.110750
C25   C     C_R   0.748951 0.905081 0.266126 -0.117229
C26   C     C_R   0.650272 0.828199 0.290965 0.035251
C27   C     C_R   0.664388 0.809897 0.190313 0.021669
C28   C     C_1   0.675609 0.797901 0.139187 -0.059347
C29   C     C_1   0.644355 0.845344 0.342193 -0.053626
C30   C     C_1   0.692256 0.786870 0.097201 -0.015120
C31   C     C_R   0.644480 0.289797 0.613262 0.008968
C32   C     C_R   0.745258 0.304845 0.635836 -0.012998
C33   C     C_R   0.754564 0.317393 0.685994 -0.111847
C34   C     C_R   0.620977 0.900329 0.568796 0.537148
C35   C     C_R   0.671429 0.326315 0.712997 0.028689
C36   C     C_R   0.583240 0.331814 0.688889 -0.124978
C37   C     C_R   0.569095 0.312438 0.639509 -0.135307
C38   C     C_R   0.578583 0.290890 0.794213 -0.109171
C39   C     C_R   0.586527 0.313765 0.843632 -0.128124
C40   C     C_R   0.792715 0.404583 0.838239 -0.125874
C41   C     C_R   0.785138 0.386785 0.788913 -0.125612
C42   C     C_R   0.678269 0.333108 0.766058 0.039769
C43   C     C_R   0.694067 0.374797 0.865378 0.024946
C44   C     C_R   0.252429 0.874336 0.619541 -0.017527
C45   C     C_R   0.603160 0.225711 0.567789 0.535454
C46   C     C_R   0.165767 0.892818 0.636701 -0.159066
C47   C     C_R   0.145722 0.888776 0.686404 -0.180899
C48   C     C_R   0.214424 0.869308 0.718775 0.031818
C49   C     C_R   0.305573 0.858042 0.701246 0.365376
C50   C     C_R   0.323292 0.859278 0.651976 -0.076045
C51   C     C_R   0.176666 0.753690 0.792225 -0.067362
C52   C     C_R   0.138652 0.727663 0.839442 -0.135790
C53   C     C_R   0.119357 0.895799 0.843580 -0.129066
C54   C     C_R   0.158305 0.922257 0.796216 -0.128630
C55   C     C_R   0.184832 0.849920 0.770063 0.068617
C56   C     C_R   0.281740 0.882310 0.568758 0.535295
C57   C     C_R   0.106261 0.796469 0.864987 0.019959
C58   C     C_R   0.641292 0.860426 0.614861 0.019277
C59   C     C_R   0.551672 0.764578 0.636989 -0.129559
C60   C     C_R   0.559048 0.743171 0.685534 -0.081680
C61   C     C_R   0.656447 0.816705 0.712370 0.050778
C62   C     C_R   0.750124 0.906264 0.689241 -0.128156
C63   C     C_R   0.742880 0.927484 0.640603 -0.128622
C64   C     C_R   0.697055 0.897152 0.795685 -0.092870
C65   C     C_R   0.706879 0.886690 0.845635 -0.014249
C66   C     C_R   0.631787 0.683545 0.833246 -0.134563
C67   C     C_1   0.638527 0.277789 0.386331 -0.004376
C68   C     C_R   0.622387 0.695439 0.784005 -0.126786
C69   C     C_R   0.658777 0.802772 0.764781 0.034571
C70   C     C_R   0.678501 0.778899 0.864159 0.011917
C71   C     C_R   0.049203 0.760950 0.048244 0.538599
C72   C     C_R   0.735121 0.486711 0.055047 0.560342
C73   C     C_R   0.723169 0.770652 0.049483 0.535536
C74   C     C_R   0.044541 0.756004 0.910588 0.545086
C75   C     C_R   0.708279 0.428333 0.912547 0.546585
C76   C     C_R   0.716781 0.765231 0.911958 0.533465
C77   C     C_R   0.727171 0.302136 0.264801 -0.084488
C78   C     C_R   0.740417 0.330247 0.215758 -0.094590
Cr1   Cr    Cr6+3 0.417720 0.831920 0.499820 1.015833
Cr2   Cr    Cr6+3 0.668190 0.085770 0.500360 1.035941
Cr3   Cr    Cr6+3 0.414060 0.082260 0.499840 1.028761
Cr4   Cr    Cr6+3 0.908000 0.821090 0.979770 1.025002
Cr5   Cr    Cr6+3 0.912420 0.571130 0.979880 1.008083
Cr6   Cr    Cr6+3 0.657970 0.566940 0.980940 1.018047
H1    H     H_    0.743440 0.236097 0.277276 0.123061
H2    H     H_    0.495509 0.664521 0.194661 0.114718
H3    H     H_    0.833289 0.955830 0.197537 0.118450
H4    H     H_    0.820423 0.972917 0.285468 0.113975
H5    H     H_    0.494681 0.244678 0.777838 0.112356
H6    H     H_    0.509538 0.288981 0.864231 0.124527
H7    H     H_    0.826134 0.318052 0.703758 0.094887
H8    H     H_    0.863980 0.422301 0.768769 0.098428
H9    H     H_    0.877230 0.451983 0.854076 0.130910
H10   H     H_    0.522169 0.346417 0.708342 0.100303
H11   H     H_    0.767474 0.286194 0.190985 0.116163
H12   H     H_    0.494090 0.306831 0.622662 0.134617
H13   H     H_    0.112906 0.907858 0.611829 0.118632
H14   H     H_    0.194794 0.695633 0.772284 0.149660
H15   H     H_    0.128878 0.650309 0.854904 0.124946
H16   H     H_    0.074926 0.897535 0.699466 0.117858
H17   H     H_    0.164973 0.997268 0.779601 0.101033
H18   H     H_    0.094812 0.950248 0.862572 0.130361
H19   H     H_    0.394308 0.850768 0.639029 0.146576
H20   H     H_    0.472665 0.710498 0.617843 0.125130
H21   H     H_    0.661771 0.532785 0.218492 0.109299
H22   H     H_    0.718482 0.978875 0.780683 0.119246
H23   H     H_    0.486193 0.673094 0.702730 0.124426
H24   H     H_    0.591818 0.621531 0.760652 0.105184
H25   H     H_    0.610133 0.600360 0.846535 0.140923
H26   H     H_    0.827394 0.961821 0.709207 0.093379
H27   H     H_    0.814272 0.999766 0.623924 0.124542
H28   H     H_    0.637362 0.482342 0.304930 0.110337
H29   H     H_    0.327697 0.928752 0.182818 0.136964
H30   H     H_    0.965889 0.725016 0.207985 0.130304
H31   H     H_    0.000164 0.742249 0.295971 0.120394
O1    O     O_R   0.302900 0.805360 0.446400 -0.517457
O2    O     O_R   0.657980 0.180990 0.549630 -0.487457
O3    O     O_R   0.503420 0.197810 0.553190 -0.522278
O4    O     O_R   0.320350 0.978840 0.548910 -0.493298
O5    O     O_3   0.499990 0.999990 0.500010 -0.244226
O6    O     O_R   0.819150 0.845650 0.033320 -0.503261
O7    O     O_R   0.006060 0.815720 0.028680 -0.494713
O8    O     O_R   0.028100 0.664460 0.032550 -0.511539
O9    O     O_R   0.811290 0.477490 0.029660 -0.494911
O10   O     O_R   0.638120 0.455970 0.034270 -0.500281
O11   O     O_R   0.667540 0.672320 0.030160 -0.510704
O12   O     O_R   0.522090 0.841370 0.450730 -0.491813
O13   O     O_R   0.814460 0.840990 0.926980 -0.501027
O14   O     O_R   0.001710 0.811400 0.930110 -0.499102
O15   O     O_R   0.023410 0.659800 0.926210 -0.524402
O16   O     O_R   0.806940 0.473170 0.931090 -0.508119
O17   O     O_R   0.633420 0.451310 0.927930 -0.514365
O18   O     O_R   0.663190 0.668000 0.931580 -0.505065
O19   O     O_3   0.826130 0.653050 0.980200 -0.264082
O20   O     O_R   0.693280 0.995650 0.447220 -0.507216
O21   O     O_R   0.657260 0.178740 0.451050 -0.497135
O22   O     O_R   0.502640 0.195380 0.446850 -0.502984
O23   O     O_R   0.319630 0.976590 0.450330 -0.486424
O24   O     O_R   0.303680 0.807790 0.552740 -0.520796
O25   O     O_R   0.522820 0.843620 0.549310 -0.511627
O26   O     O_R   0.694060 0.998080 0.553560 -0.508616
C79   C     C_R   0.841091 0.307250 0.608396 0.055624
C80   C     C_R   0.885562 0.376901 0.567546 -0.070404
C81   C     C_R   0.975874 0.379786 0.541694 -0.108082
C82   C     C_R   0.023060 0.313907 0.556524 -0.103069
C83   C     C_R   0.980241 0.245277 0.597317 -0.112613
C84   C     C_R   0.889902 0.242078 0.623274 -0.084218
H32   H     H_    0.850201 0.428838 0.555748 0.092987
H33   H     H_    0.009383 0.433244 0.510190 0.105248
H34   H     H_    0.092958 0.316221 0.536467 0.106454
H35   H     H_    0.016977 0.194406 0.608816 0.096122
H36   H     H_    0.857385 0.188033 0.654665 0.094168
F1    F     F_    0.377382 0.845786 0.731770 -0.651528
C85   C     C_R   0.743543 0.988096 0.877309 0.050387
C86   C     C_R   0.835404 0.094326 0.863928 -0.090145
C87   C     C_R   0.865493 0.190691 0.892410 -0.107901
C88   C     C_R   0.804567 0.182109 0.934501 -0.096352
C89   C     C_R   0.713572 0.077065 0.948258 -0.103211
C90   C     C_R   0.682850 0.980508 0.919806 -0.064809
H37   H     H_    0.883786 0.102687 0.831462 0.089894
H38   H     H_    0.935878 0.272156 0.881751 0.102240
H39   H     H_    0.827712 0.256888 0.956394 0.125131
H40   H     H_    0.666158 0.070594 0.980788 0.114659
H41   H     H_    0.610538 0.900302 0.930503 0.101302
F2    F     F_    0.384266 0.958592 0.274271 -0.647148
C91   C     C_R   0.450151 0.658381 0.289608 0.023408
C92   C     C_R   0.410871 0.541473 0.285853 -0.103252
C93   C     C_R   0.309422 0.463296 0.308454 -0.105945
C94   C     C_R   0.246178 0.501122 0.334668 -0.104614
C95   C     C_R   0.284148 0.617185 0.338254 -0.101887
C96   C     C_R   0.385577 0.695697 0.315743 -0.071701
H42   H     H_    0.459175 0.511026 0.265716 0.103317
H43   H     H_    0.279818 0.373363 0.305629 0.117588
H44   H     H_    0.167620 0.440489 0.352109 0.109154
H45   H     H_    0.234769 0.646205 0.358386 0.125990
H46   H     H_    0.413281 0.785291 0.318417 0.169461

loop_
_geom_bond_atom_site_label_1
_geom_bond_atom_site_label_2
_ccdc_geom_bond_type
C45   O3    A    
C48   C55   S    
C66   C68   A    
C21   C26   A    
Cr2   O5    S    
C34   O26   A    
C40   C41   A    
C88   C89   A    
C15   C18   S    
C41   C42   A    
C23   O23   A    
Cr1   O24   S    
C35   C36   A    
C24   C27   A    
C40   H9    S    
C52   H15   S    
C82   C83   A    
C66   C70   A    
C77   C78   A    
Cr3   O22   S    
Cr3   O5    S    
Cr6   O19   S    
C62   C63   A    
Cr2   O20   S    
C59   H20   S    
C49   F1    S    
C36   C37   A    
C38   C42   A    
C84   H36   S    
C10   C15   A    
C33   H7    S    
C5    C6    S    
C95   C96   A    
C45   O2    A    
C14   H31   S    
Cr6   O10   S    
C94   C95   A    
C35   C42   S    
Cr5   O19   S    
C44   C50   A    
C71   O7    A    
C17   C19   T    
C23   O1    A    
C46   C47   A    
C82   H34   S    
C19   C71   S    
C40   C43   A    
C47   C48   A    
C44   C46   A    
C68   C69   A    
C62   H26   S    
C12   O21   A    
C94   H44   S    
C89   C90   A    
Cr5   O9    S    
C3    H28   S    
C39   H6    S    
C32   C79   S    
C13   H30   S    
C20   C29   T    
C51   H14   S    
Cr1   O25   S    
C77   H1    S    
C50   H19   S    
C21   C22   A    
C72   O9    A    
C43   C75   S    
C65   C70   A    
Cr3   O23   S    
C4    C7    S    
C75   O16   A    
Cr2   O2    S    
C95   H45   S    
Cr6   O11   S    
C93   H43   S    
C12   C67   S    
Cr6   O18   S    
C8    C72   S    
C51   C52   A    
C24   C25   A    
Cr5   O15   S    
C52   C57   A    
C92   C93   A    
C56   O24   A    
C53   C57   A    
C16   C17   S    
C6    C8    T    
C58   C59   A    
C53   C54   A    
Cr3   O3    S    
Cr6   O17   S    
C25   H4    S    
C21   C91   S    
C31   C37   A    
C37   H12   S    
C60   C61   A    
C78   H11   S    
C57   C74   S    
Cr4   O19   S    
C59   C60   A    
Cr5   O16   S    
C81   H33   S    
C11   C16   A    
C44   C56   S    
C31   C32   A    
C38   H5    S    
C53   H18   S    
Cr1   O5    S    
C64   C69   A    
Cr4   O14   S    
C54   H17   S    
Cr4   O13   S    
C85   C86   A    
C60   H23   S    
C89   H40   S    
C93   C94   A    
C46   H13   S    
C87   H38   S    
Cr2   O26   S    
C73   O6    A    
C22   C27   A    
C74   O15   A    
C70   C76   S    
C91   C92   A    
C76   O13   A    
C56   O4    A    
C13   C16   A    
C2    C5    A    
C3    C4    A    
C27   C28   S    
C85   C90   A    
C75   O17   A    
C83   C84   A    
C71   O8    A    
C58   C63   A    
C30   C73   S    
Cr1   O12   S    
C54   C55   A    
C87   C88   A    
C1    C20   S    
Cr4   O6    S    
C86   H37   S    
C14   C15   A    
C90   H41   S    
C79   C84   A    
C12   O22   A    
C9    C23   S    
C1    O12   A    
C81   C82   A    
C39   C43   A    
C76   O18   A    
C64   H22   S    
C92   H42   S    
C96   H46   S    
Cr3   O4    S    
C2    H21   S    
Cr2   O21   S    
C72   O10   A    
C61   C69   S    
C64   C65   A    
C28   C30   T    
C73   O11   A    
C25   C26   A    
C4    C77   A    
C1    O20   A    
C32   C33   A    
Cr1   O1    S    
C38   C39   A    
C10   F2    S    
C48   C49   A    
C34   O25   A    
C33   C35   A    
C2    C3    A    
C51   C55   A    
C22   H2    S    
C66   H25   S    
C63   H27   S    
C61   C62   A    
C11   H29   S    
C24   H3    S    
C80   H32   S    
C10   C11   A    
C47   H16   S    
C7    C67   T    
C83   H35   S    
C36   H10   S    
C9    C18   T    
C91   C96   A    
C41   H8    S    
C26   C29   S    
C49   C50   A    
C31   C45   S    
C74   O14   A    
C86   C87   A    
C34   C58   S    
C79   C80   A    
C68   H24   S    
C65   C85   S    
Cr5   O8    S    
C5    C78   A    
C13   C14   A    
C88   H39   S    
Cr4   O7    S    
C80   C81   A    
