data_mof_unit_41442.cif
_audit_creation_date              2012-12-10T17:21:17-0500
_audit_creation_method            fapswitch 2.2
_symmetry_space_group_name_H-M    P1
_symmetry_Int_Tables_number       1
_space_group_crystal_system       triclinic
_cell_length_a                    9.610281
_cell_length_b                    10.850602
_cell_length_c                    13.870243
_cell_angle_alpha                 93.094979
_cell_angle_beta                  84.609649
_cell_angle_gamma                 87.764094
_cell_volume                      1436.44104641

loop_
_atom_site_label
_atom_site_type_symbol
_atom_type_description
_atom_site_fract_x
_atom_site_fract_y
_atom_site_fract_z
_atom_type_partial_charge
C1    C     C_R   0.496450 0.737635 0.505317 0.798992
C2    C     C_1   0.461948 0.507234 0.786361 -0.187077
C3    C     C_R   0.287486 0.890967 0.637148 -0.177615
C4    C     C_R   0.195104 0.964333 0.701590 -0.137862
C5    C     C_R   0.205141 0.091789 0.707125 -0.158580
C6    C     C_R   0.305760 0.147105 0.646867 -0.184581
C7    C     C_R   0.398995 0.075142 0.579148 0.077238
C8    C     C_R   0.390553 0.944601 0.574976 0.098805
C9    C     C_R   0.491269 0.872190 0.512960 -0.130652
C10   C     C_R   0.605270 0.927160 0.466871 -0.240884
C11   C     C_R   0.622582 0.052894 0.478638 -0.018996
C12   C     C_R   0.476939 0.501465 0.682912 0.801406
C13   C     C_R   0.508432 0.129440 0.522169 -0.170496
C14   C     C_R   0.881026 0.352192 0.359069 -0.113313
C15   C     C_R   0.965060 0.291653 0.282739 -0.201227
C16   C     C_R   0.108730 0.290451 0.282700 -0.244581
C17   C     C_R   0.168369 0.351312 0.358222 -0.142938
C18   C     C_R   0.087051 0.427706 0.430091 0.211271
C19   C     C_R   0.937636 0.427898 0.430269 0.195474
C20   C     C_R   0.914112 0.569456 0.566213 -0.056607
C21   C     C_R   0.061903 0.569356 0.566232 -0.067938
C22   C     C_R   0.502374 0.262793 0.506819 0.764457
C23   C     C_R   0.522905 0.498767 0.317157 0.809979
C24   C     C_1   0.536093 0.492211 0.213824 -0.180747
C25   C     C_2   0.541933 0.475770 0.023182 -0.217692
C26   C     C_2   0.435012 0.521351 0.977811 0.025692
C27   C     C_1   0.449020 0.513552 0.873484 -0.053742
C28   C     C_1   0.541800 0.484983 0.126879 -0.001791
Cu1   Cu    Cu3+1 0.359340 0.500010 0.500010 0.921652
Cu2   Cu    Cu3+1 0.640660 0.499990 0.499990 0.926453
H1    H     H_    0.773254 0.332190 0.361814 0.193077
H2    H     H_    0.918389 0.237353 0.227470 0.145884
H3    H     H_    0.277479 0.331317 0.358697 0.194612
H4    H     H_    0.107047 0.626198 0.620576 0.127719
H5    H     H_    0.633954 0.432446 0.981326 0.150612
H6    H     H_    0.688901 0.868801 0.428347 0.168557
H7    H     H_    0.279880 0.792395 0.640181 0.143945
H8    H     H_    0.117610 0.921771 0.749242 0.127290
H9    H     H_    0.135490 0.148144 0.759123 0.130334
H10   H     H_    0.313416 0.245862 0.657484 0.161356
H11   H     H_    0.849283 0.626604 0.620445 0.140093
N1    N     N_R   0.852210 0.498790 0.499090 -0.201437
N2    N     N_R   0.148080 0.498710 0.499060 -0.197839
O1    O     O_R   0.381190 0.680360 0.500010 -0.578573
O2    O     O_R   0.618760 0.680340 0.500000 -0.575661
O3    O     O_R   0.364420 0.499990 0.637850 -0.588150
O4    O     O_R   0.601990 0.499960 0.637840 -0.575114
O5    O     O_R   0.381240 0.319660 0.500000 -0.604769
O6    O     O_R   0.618810 0.319640 0.499990 -0.595034
O7    O     O_R   0.398010 0.500040 0.362160 -0.582209
O8    O     O_R   0.635580 0.500010 0.362150 -0.592213
C29   C     C_R   0.306225 0.583238 0.029884 0.147717
C30   C     C_R   0.259074 0.699683 0.003067 -0.151753
C31   C     C_R   0.138647 0.758879 0.051742 -0.150625
C32   C     C_R   0.063620 0.702133 0.127028 -0.117820
C33   C     C_R   0.108250 0.585651 0.153297 -0.121777
C34   C     C_R   0.228431 0.525931 0.104689 -0.131442
H12   H     H_    0.316421 0.745307 0.945232 0.127208
H13   H     H_    0.103640 0.848933 0.031179 0.124615
H14   H     H_    0.970612 0.748211 0.164766 0.124263
H15   H     H_    0.049378 0.541595 0.211181 0.153010
H16   H     H_    0.260231 0.434869 0.125006 0.132673
H17   H     H_    0.174067 0.235567 0.227176 0.145024
C35   C     C_R   0.770078 0.090760 0.466602 0.139761
C36   C     C_R   0.861411 0.042029 0.386970 -0.192698
C37   C     C_R   0.006158 0.047684 0.388500 -0.117469
C38   C     C_R   0.061285 0.107755 0.466873 -0.065753
C39   C     C_R   0.971881 0.160908 0.544414 -0.148909
C40   C     C_R   0.827601 0.149350 0.545768 -0.093828
H18   H     H_    0.820851 0.994823 0.325474 0.117140
H19   H     H_    0.075538 0.007393 0.328042 0.129464
H20   H     H_    0.173139 0.114997 0.466385 0.146225
H21   H     H_    0.014094 0.209538 0.604360 0.137481
H22   H     H_    0.761184 0.182840 0.609988 0.130913

loop_
_geom_bond_atom_site_label_1
_geom_bond_atom_site_label_2
_ccdc_geom_bond_type
C8    C9    A    
C22   O5    A    
C32   C33   A    
Cu2   O2    S    
C14   H1    S    
Cu2   O8    S    
C2    C12   S    
C20   H11   S    
C34   H16   S    
C30   C31   A    
C25   C28   S    
C26   C27   S    
C18   C19   A    
C5    C6    A    
C36   H18   S    
C33   C34   A    
C38   H20   S    
C21   N2    A    
C16   C17   A    
C23   C24   S    
C2    C27   T    
C16   H17   S    
C9    C10   A    
C19   N1    A    
Cu1   O7    S    
C37   C38   A    
C32   H14   S    
Cu1   N2    S    
C17   H3    S    
C12   O4    A    
C31   H13   S    
Cu1   O5    S    
C38   C39   A    
Cu2   O4    S    
C7    C8    A    
C1    C9    S    
C12   O3    A    
C3    C8    A    
C29   C34   A    
C39   C40   A    
C23   O7    A    
C21   H4    S    
C39   H21   S    
Cu1   Cu2   S    
C26   C29   S    
C1    O1    A    
C23   O8    A    
C37   H19   S    
C17   C18   A    
C40   H22   S    
C35   C40   A    
C25   H5    S    
C22   O6    A    
Cu2   O6    S    
C4    H8    S    
C11   C35   S    
C5    H9    S    
Cu1   O1    S    
C6    H10   S    
C3    C4    A    
C29   C30   A    
C31   C32   A    
C33   H15   S    
C14   C19   A    
C24   C28   T    
C4    C5    A    
C15   H2    S    
C20   N1    A    
C30   H12   S    
C6    C7    A    
Cu1   O3    S    
C35   C36   A    
C25   C26   D    
C18   N2    A    
C11   C13   A    
C1    O2    A    
C13   C22   S    
C10   C11   A    
C7    C13   A    
C20   C21   A    
C3    H7    S    
C36   C37   A    
C14   C15   A    
Cu2   N1    S    
C10   H6    S    
C15   C16   A    
