data_mof_unit_63278.cif
_audit_creation_date              2013-03-05T16:37:54-0500
_audit_creation_method            fapswitch 2.2
_symmetry_space_group_name_H-M    P1
_symmetry_Int_Tables_number       1
_space_group_crystal_system       triclinic
_cell_length_a                    19.161002
_cell_length_b                    18.45782
_cell_length_c                    15.752423
_cell_angle_alpha                 89.832827
_cell_angle_beta                  90.69805
_cell_angle_gamma                 90.189838
_cell_volume                      5570.69747022

loop_
_atom_site_label
_atom_site_type_symbol
_atom_site_description
_atom_site_fract_x
_atom_site_fract_y
_atom_site_fract_z
_atom_type_partial_charge
O1    O     O_R   0.398180 0.560840 0.500000 -0.558301
O2    O     O_R   0.398180 0.439160 0.500000 -0.599913
C1    C     C_R   0.365829 0.499897 0.500386 1.035061
O3    O     O_R   0.500010 0.560840 0.377160 -0.580467
O4    O     O_R   0.500010 0.439160 0.377160 -0.586468
C2    C     C_R   0.500056 0.500115 0.338253 0.951829
Zn1   Zn    Zn3+2 0.500000 0.581210 0.500030 1.076862
Zn2   Zn    Zn3+2 0.500000 0.418790 0.500030 1.054709
O5    O     O_R   0.601820 0.560790 0.500040 -0.607512
O6    O     O_R   0.601820 0.439210 0.500040 -0.608331
O7    O     O_R   0.500000 0.560790 0.622880 -0.597170
O8    O     O_R   0.500000 0.439210 0.622880 -0.620066
C3    C     C_R   0.634206 0.500132 0.500835 0.986574
C4    C     C_R   0.499881 0.499872 0.661848 0.938349
C5    C     C_3   0.436090 0.454830 0.049508 0.344931
C6    C     C_3   0.572016 0.468270 0.049964 0.364995
C7    C     C_3   0.564967 0.457161 0.951603 0.065668
C8    C     C_3   0.429988 0.465293 0.951430 0.107584
H1    H     H_    0.611430 0.481462 0.920640 0.183465
H2    H     H_    0.388718 0.506190 0.938547 0.200489
C9    C     C_1   0.499465 0.499450 0.750489 -0.018692
C10   C     C_3   0.500690 0.502689 0.083132 -0.277984
C11   C     C_3   0.499252 0.498210 0.917152 -0.128252
C12   C     C_3   0.504400 0.578138 0.947756 -0.572151
C13   C     C_3   0.492839 0.584092 0.046450 0.417787
C14   C     C_1   0.499176 0.498769 0.825650 0.130893
C15   C     C_1   0.500529 0.501705 0.174565 0.189541
C16   C     C_1   0.500248 0.500596 0.249706 0.047546
H3    H     H_    0.468274 0.613371 0.910701 0.266480
H4    H     H_    0.557235 0.598422 0.930865 0.249511
C17   C     C_R   0.749279 0.474772 0.440825 0.165181
C18   C     C_R   0.740649 0.525541 0.583798 0.156957
C19   C     C_R   0.822015 0.474787 0.448493 0.250741
C20   C     C_R   0.813234 0.525427 0.591854 0.268462
C21   C     C_R   0.853516 0.500633 0.523920 -0.259089
C22   C     C_R   0.709225 0.500423 0.508296 -0.267248
C23   C     C_R   0.968276 0.559801 0.516766 -0.008860
C24   C     C_R   0.960966 0.431763 0.553165 -0.090610
H5    H     H_    0.943127 0.610577 0.500613 0.180812
H6    H     H_    0.930082 0.383659 0.565355 0.176667
C25   C     C_R   0.040423 0.555655 0.518263 -0.099677
C26   C     C_R   0.033270 0.427536 0.554344 0.000087
H7    H     H_    0.071188 0.603294 0.503408 0.175969
H8    H     H_    0.058516 0.376193 0.567345 0.180339
C27   C     C_R   0.072658 0.489355 0.535810 0.160126
C28   C     C_R   0.928784 0.497701 0.533354 0.151911
C29   C     C_R   0.176599 0.474860 0.447494 0.213579
C30   C     C_R   0.190087 0.501338 0.599541 0.227628
C31   C     C_R   0.248841 0.481814 0.437132 0.183230
C32   C     C_R   0.262106 0.508973 0.589041 0.185555
C33   C     C_R   0.290883 0.499359 0.508063 -0.333756
C34   C     C_R   0.147848 0.484471 0.528632 -0.248522
C35   C     C_R   0.544961 0.721793 0.555840 -0.083709
C36   C     C_R   0.544267 0.278212 0.556650 -0.082222
H9    H     H_    0.577185 0.687757 0.596157 0.216066
H10   H     H_    0.576007 0.312247 0.597571 0.204456
C37   C     C_R   0.551527 0.797909 0.560541 0.196947
C38   C     C_R   0.550776 0.202108 0.561432 0.201199
C39   C     C_R   0.509549 0.841722 0.506396 -0.161157
C40   C     C_R   0.509520 0.158277 0.506483 -0.161309
C41   C     C_R   0.462491 0.807079 0.449811 0.149703
C42   C     C_R   0.463112 0.192896 0.449128 0.152317
C43   C     C_R   0.458712 0.730554 0.447405 0.362983
C44   C     C_R   0.459358 0.269404 0.446701 0.356359
N1    N     N_R   0.499980 0.689440 0.500010 -0.167555
N2    N     N_R   0.499980 0.310560 0.500010 -0.166268
C45   C     C_R   0.541439 0.962221 0.441159 -0.061675
C46   C     C_R   0.541469 0.038330 0.441205 -0.061557
H11   H     H_    0.562849 0.933794 0.387412 0.180029
H12   H     H_    0.562909 0.067193 0.387490 0.180357
C47   C     C_R   0.512968 0.077070 0.509222 0.180352
C48   C     C_R   0.512958 0.922925 0.509159 0.181089
C49   C     C_R   0.485850 0.037853 0.578175 -0.072410
C50   C     C_R   0.485856 0.961568 0.578150 -0.073197
H13   H     H_    0.463622 0.066366 0.631344 0.172896
H14   H     H_    0.463644 0.932604 0.631304 0.172297
Br1   Br    Br    0.392682 0.381868 0.887702 -0.206025
Br2   Br    Br    0.569041 0.356414 0.912349 -0.221073
N3    N     N_R   0.131894 0.463155 0.374796 0.257559
O9    O     O_R   0.136218 0.505449 0.308822 -0.233044
O10   O     O_R   0.086482 0.410600 0.374446 -0.282757
N4    N     N_R   0.159536 0.514804 0.680967 0.257402
O11   O     O_R   0.115265 0.469059 0.713132 -0.298345
O12   O     O_R   0.176661 0.572464 0.723859 -0.241716
N5    N     N_R   0.279345 0.470143 0.355177 0.251346
O13   O     O_R   0.326533 0.514354 0.326352 -0.327801
O14   O     O_R   0.258812 0.416171 0.308023 -0.222076
N6    N     N_R   0.306359 0.523435 0.661341 0.219498
O15   O     O_R   0.344153 0.582071 0.663982 -0.343221
O16   O     O_R   0.304208 0.481403 0.727707 -0.296345
N7    N     N_R   0.601447 0.828896 0.619304 0.235285
O17   O     O_R   0.633460 0.889291 0.601761 -0.297750
O18   O     O_R   0.620566 0.792942 0.686830 -0.293492
N8    N     N_R   0.599926 0.171142 0.621107 0.233428
O19   O     O_R   0.617685 0.206571 0.689389 -0.295491
O20   O     O_R   0.632607 0.111394 0.603807 -0.298701
Br3   Br    Br    0.401609 0.864118 0.377734 -0.279186
Br4   Br    Br    0.402934 0.135852 0.376108 -0.280467
Br5   Br    Br    0.394968 0.684107 0.369882 -0.201450
Br6   Br    Br    0.396541 0.315748 0.368165 -0.237740
Br7   Br    Br    0.441299 0.352299 0.082624 -0.179155
Br8   Br    Br    0.603877 0.381559 0.112506 -0.200455
Br9   Br    Br    0.654668 0.529061 0.071364 -0.248795
Br10  Br    Br    0.346038 0.479019 0.100433 -0.148682
N9    N     N_R   0.423350 0.614323 0.065592 0.234150
O21   O     O_R   0.379254 0.633232 0.006037 -0.305542
O22   O     O_R   0.408398 0.630615 0.143670 -0.238972
N10   N     N_R   0.544316 0.635855 0.082846 0.252989
O23   O     O_R   0.554031 0.639534 0.164666 -0.303715
O24   O     O_R   0.564321 0.691332 0.037852 -0.271445
Br11  Br    Br    0.704837 0.445075 0.335769 -0.280423
Br12  Br    Br    0.684893 0.560352 0.676439 -0.368963
N11   N     N_R   0.863865 0.448229 0.380268 0.253477
O25   O     O_R   0.854377 0.382863 0.351594 -0.252595
O26   O     O_R   0.913258 0.488224 0.348687 -0.281949
N12   N     N_R   0.845941 0.548111 0.669843 0.254733
O27   O     O_R   0.887514 0.603953 0.671131 -0.303159
O28   O     O_R   0.834106 0.512924 0.739910 -0.251777

loop_
_geom_bond_atom_site_label_1
_geom_bond_atom_site_label_2
_geom_bond_distance
_ccdc_geom_bond_type
C5    C8    1.559452 S    
C9    C14   1.184091 T    
C43   N1    1.368279 A    
Zn2   N2    1.997688 S    
C49   H13   1.082862 S    
C49   C50   1.408056 A    
C29   N3    1.438099 S    
C13   N9    1.480144 S    
C29   C31   1.401225 A    
N5    O13   1.300982 A    
N12   O27   1.300639 A    
Zn1   O7    1.970470 S    
N9    O22   1.302511 A    
C7    C11   1.562482 S    
C50   H14   1.082865 S    
C18   C22   1.405672 A    
C4    C9    1.396418 S    
C24   C26   1.387766 A    
C8    Br1   1.968258 S    
O4    C2    1.279624 A    
C20   C21   1.405573 A    
O7    C4    1.279496 A    
C37   C39   1.418432 A    
N7    O18   1.301569 A    
C20   N12   1.435194 S    
N10   O23   1.301935 A    
C40   C42   1.412845 A    
C45   C48   1.406557 A    
C11   C14   1.441362 S    
C41   C43   1.414694 A    
O5    C3    1.281835 A    
C12   H3    1.110734 S    
C43   Br5   1.918558 S    
C7    H1    1.112811 S    
C42   Br4   1.930797 S    
C5    C10   1.603904 S    
C2    C16   1.394886 S    
N10   O24   1.302919 A    
C6    C7    1.567659 S    
C31   C33   1.407372 A    
C10   C13   1.615058 S    
C42   C44   1.414620 A    
C11   C12   1.555849 S    
C17   C19   1.397457 A    
C5    Br10  1.964955 S    
C35   N1    1.361648 A    
C32   N6    1.436688 S    
C39   C48   1.500783 S    
N5    O14   1.301369 A    
C25   H7    1.083587 S    
C26   H8    1.083284 S    
O3    Zn1   1.972759 S    
C35   H9    1.081639 S    
C36   H10   1.081808 S    
C39   C41   1.412919 A    
C45   C46   1.404816 A    
C31   N5    1.440674 S    
C12   C13   1.577233 S    
C3    C22   1.440794 S    
C48   C50   1.407204 A    
N7    O17   1.301201 A    
N3    O10   1.300952 A    
C1    C33   1.442600 S    
C27   C34   1.449636 S    
C18   Br12  1.931794 S    
C8    C11   1.559578 S    
O1    C1    1.282593 A    
C26   C27   1.398036 A    
C18   C20   1.395061 A    
Zn1   N1    1.997688 S    
C6    Br9   1.964237 S    
C30   N4    1.439024 S    
C44   Br6   1.917108 S    
Zn2   O8    1.972629 S    
C32   C33   1.407759 A    
C5    Br7   1.964149 S    
N8    O20   1.301207 A    
O3    C2    1.279043 A    
N6    O16   1.301007 A    
N4    O12   1.301286 A    
C10   C15   1.440387 S    
C47   C49   1.407276 A    
N11   O25   1.300955 A    
C36   C38   1.412367 A    
C6    Br8   1.971667 S    
Zn1   O5    1.988269 S    
C6    C10   1.602969 S    
C37   N7    1.441103 S    
O1    Zn1   1.985643 S    
Zn2   O6    1.985817 S    
C41   Br3   1.930599 S    
O8    C4    1.278502 A    
O6    C3    1.282573 A    
C35   C37   1.412225 A    
O4    Zn2   1.970605 S    
C29   C34   1.409852 A    
C36   N2    1.361779 A    
N9    O21   1.302505 A    
C19   N11   1.437001 S    
C40   C47   1.501046 S    
O2    C1    1.282896 A    
C38   N8    1.440868 S    
C23   H5    1.083491 S    
C25   C27   1.397986 A    
C24   H6    1.083378 S    
C46   C47   1.406700 A    
C30   C32   1.398445 A    
C7    Br2   1.963502 S    
C19   C21   1.409817 A    
N12   O28   1.300921 A    
C8    H2    1.111520 S    
C23   C25   1.384692 A    
N8    O19   1.301559 A    
C12   H4    1.113257 S    
C24   C28   1.398918 A    
N3    O9    1.301258 A    
C30   C34   1.406400 A    
N6    O15   1.300704 A    
C46   H12   1.083014 S    
N4    O11   1.300945 A    
O2    Zn2   1.988089 S    
C15   C16   1.183851 T    
C17   Br11  1.931859 S    
C17   C22   1.402862 A    
C45   H11   1.083000 S    
C23   C28   1.397156 A    
C21   C28   1.449211 S    
C38   C40   1.418378 A    
C13   N10   1.482436 S    
C44   N2    1.368191 A    
N11   O26   1.301093 A    
