data_mof_unit_19623.cif
_audit_creation_date              2012-12-10T16:37:23-0500
_audit_creation_method            fapswitch 2.2
_symmetry_space_group_name_H-M    P1
_symmetry_Int_Tables_number       1
_space_group_crystal_system       triclinic
_cell_length_a                    16.971706
_cell_length_b                    16.971708
_cell_length_c                    16.778696
_cell_angle_alpha                 65.66828
_cell_angle_beta                  65.668397
_cell_angle_gamma                 65.700148
_cell_volume                      3838.61298825

loop_
_atom_site_label
_atom_site_type_symbol
_atom_type_description
_atom_site_fract_x
_atom_site_fract_y
_atom_site_fract_z
_atom_type_partial_charge
C1    C     C_R   0.403177 0.075848 0.648583 -0.213013
C2    C     C_R   0.406589 0.667784 0.037022 -0.219662
C3    C     C_R   0.924151 0.596823 0.351417 -0.213009
C4    C     C_R   0.075846 0.403177 0.648584 -0.213011
C5    C     C_R   0.979945 0.176119 0.430454 0.913595
C6    C     C_R   0.020055 0.823881 0.569546 0.913595
C7    C     C_R   0.179033 0.436621 0.965471 0.902174
C8    C     C_R   0.820967 0.563378 0.034529 0.902174
C9    C     C_R   0.438435 0.961227 0.179283 0.902840
C10   C     C_R   0.561565 0.038773 0.820717 0.902839
C11   C     C_R   0.563379 0.820967 0.034529 0.902175
C12   C     C_R   0.596823 0.924155 0.351415 -0.213007
C13   C     C_R   0.436621 0.179033 0.965471 0.902174
C14   C     C_R   0.038773 0.561565 0.820717 0.902839
C15   C     C_R   0.961227 0.438435 0.179283 0.902840
C16   C     C_R   0.823881 0.020055 0.569546 0.913593
C17   C     C_R   0.176119 0.979944 0.430454 0.913594
C18   C     C_R   0.449059 0.083008 0.696419 -0.183045
C19   C     C_R   0.550941 0.916994 0.303579 -0.183046
C20   C     C_R   0.951839 0.733767 0.500828 -0.188752
C21   C     C_R   0.048163 0.266232 0.499170 -0.188750
C22   C     C_R   0.708925 0.448958 0.057482 -0.177170
C23   C     C_R   0.937243 0.690072 0.456768 -0.215707
C24   C     C_R   0.291075 0.551042 0.942518 -0.177171
C25   C     C_R   0.266233 0.048160 0.499172 -0.188752
C26   C     C_R   0.733767 0.951836 0.500832 -0.188749
C27   C     C_R   0.551041 0.291074 0.942518 -0.177174
C28   C     C_R   0.448959 0.708925 0.057481 -0.177172
C29   C     C_R   0.916992 0.550940 0.303580 -0.183046
C30   C     C_R   0.083007 0.449059 0.696420 -0.183045
C31   C     C_R   0.545404 0.011201 0.547227 0.016077
C32   C     C_R   0.454596 0.988799 0.452773 0.016075
C33   C     C_R   0.011201 0.545404 0.547227 0.016076
C34   C     C_R   0.062758 0.309928 0.543230 -0.215706
C35   C     C_R   0.988799 0.454596 0.452773 0.016076
C36   C     C_R   0.542010 0.542010 0.022517 0.020028
C37   C     C_R   0.457990 0.457990 0.977482 0.020027
C38   C     C_R   0.595582 0.970011 0.475371 0.054191
C39   C     C_R   0.404418 0.029988 0.524630 0.054193
C40   C     C_R   0.039686 0.449851 0.573391 0.048101
C41   C     C_R   0.960313 0.550148 0.426609 0.048101
C42   C     C_R   0.453752 0.586651 0.013289 0.050381
C43   C     C_R   0.546248 0.413348 0.986710 0.050381
C44   C     C_R   0.550149 0.960314 0.426609 0.048101
C45   C     C_R   0.667784 0.406588 0.037023 -0.219662
C46   C     C_R   0.449852 0.039686 0.573391 0.048101
C47   C     C_R   0.413349 0.546248 0.986710 0.050382
C48   C     C_R   0.586652 0.453752 0.013290 0.050381
C49   C     C_R   0.029988 0.404418 0.524629 0.054192
C50   C     C_R   0.970011 0.595582 0.475370 0.054193
C51   C     C_R   0.543640 0.054956 0.671467 0.080246
C52   C     C_R   0.456360 0.945044 0.328533 0.080245
C53   C     C_R   0.999962 0.686259 0.565784 0.067106
C54   C     C_R   0.000038 0.313740 0.434215 0.067104
C55   C     C_R   0.674200 0.542214 0.049812 0.073774
C56   C     C_R   0.332216 0.593412 0.962976 -0.219661
C57   C     C_R   0.325800 0.457786 0.950187 0.073774
C58   C     C_R   0.313741 0.000037 0.434216 0.067105
C59   C     C_R   0.686259 0.999962 0.565785 0.067104
C60   C     C_R   0.457786 0.325800 0.950188 0.073773
C61   C     C_R   0.542214 0.674200 0.049812 0.073774
C62   C     C_R   0.945044 0.456359 0.328532 0.080245
C63   C     C_R   0.054955 0.543640 0.671467 0.080246
C64   C     C_R   0.593123 0.056132 0.721987 -0.138298
C65   C     C_R   0.406877 0.943869 0.278013 -0.138296
C66   C     C_R   0.023994 0.729701 0.605837 -0.119572
C67   C     C_R   0.309928 0.062756 0.543233 -0.215706
C68   C     C_R   0.976006 0.270299 0.394163 -0.119572
C69   C     C_R   0.722775 0.593034 0.052447 -0.124978
C70   C     C_R   0.277225 0.406966 0.947553 -0.124978
C71   C     C_R   0.270299 0.976005 0.394163 -0.119572
C72   C     C_R   0.729701 0.023994 0.605837 -0.119573
C73   C     C_R   0.406966 0.277225 0.947553 -0.124978
C74   C     C_R   0.593034 0.722775 0.052446 -0.124978
C75   C     C_R   0.943869 0.406877 0.278013 -0.138298
C76   C     C_R   0.056131 0.593123 0.721987 -0.138297
C77   C     C_R   0.682284 0.052850 0.682290 -0.297167
C78   C     C_R   0.690072 0.937239 0.456772 -0.215707
C79   C     C_R   0.317716 0.947151 0.317710 -0.297169
C80   C     C_R   0.052849 0.682284 0.682290 -0.297169
C81   C     C_R   0.947151 0.317716 0.317709 -0.297168
C82   C     C_R   0.680142 0.680141 0.057486 -0.312269
C83   C     C_R   0.319858 0.319858 0.942513 -0.312267
C84   C     C_R   0.591504 0.023097 0.594038 0.077442
C85   C     C_R   0.408496 0.976903 0.405962 0.077442
C86   C     C_R   0.023096 0.591504 0.594038 0.077441
C87   C     C_R   0.976904 0.408496 0.405962 0.077442
C88   C     C_R   0.586114 0.586114 0.040805 0.071642
C89   C     C_R   0.593411 0.332216 0.962977 -0.219660
C90   C     C_R   0.413886 0.413886 0.959194 0.071642
H1    H     H_    0.717112 0.064433 0.716246 0.194618
H2    H     H_    0.078431 0.194701 0.515486 0.159500
H3    H     H_    0.766374 0.405538 0.082554 0.173964
H4    H     H_    0.233626 0.594462 0.917446 0.173965
H5    H     H_    0.194702 0.078428 0.515489 0.159503
H6    H     H_    0.805298 0.921566 0.484517 0.159499
H7    H     H_    0.594460 0.233627 0.917446 0.173967
H8    H     H_    0.405539 0.766373 0.082554 0.173965
H9    H     H_    0.886443 0.590642 0.248510 0.158947
H10   H     H_    0.113556 0.409357 0.751491 0.158947
H11   H     H_    0.330619 0.097922 0.673972 0.133831
H12   H     H_    0.282887 0.935568 0.283754 0.194618
H13   H     H_    0.669384 0.902084 0.326021 0.133828
H14   H     H_    0.898529 0.733014 0.409189 0.131073
H15   H     H_    0.101474 0.266987 0.590808 0.131074
H16   H     H_    0.699197 0.335325 0.043778 0.140582
H17   H     H_    0.300802 0.664675 0.956222 0.140582
H18   H     H_    0.266986 0.101469 0.590812 0.131073
H19   H     H_    0.733013 0.898520 0.409198 0.131076
H20   H     H_    0.664674 0.300802 0.956223 0.140582
H21   H     H_    0.335326 0.699198 0.043776 0.140583
H22   H     H_    0.902076 0.669382 0.326027 0.133829
H23   H     H_    0.064432 0.717112 0.716246 0.194618
H24   H     H_    0.097919 0.330618 0.673975 0.133830
H25   H     H_    0.935567 0.282887 0.283754 0.194618
H26   H     H_    0.717855 0.717855 0.058612 0.193756
H27   H     H_    0.282145 0.282145 0.941387 0.193756
H28   H     H_    0.409357 0.113558 0.751489 0.158945
H29   H     H_    0.590643 0.886446 0.248508 0.158948
H30   H     H_    0.921571 0.805299 0.484510 0.159502
O1    O     O_R   0.982940 0.138950 0.510160 -0.645772
O2    O     O_R   0.982940 0.510160 0.138950 -0.627321
O3    O     O_R   0.861050 0.017060 0.489840 -0.645770
O4    O     O_R   0.138950 0.982940 0.510160 -0.645773
O5    O     O_R   0.867700 0.025880 0.612340 -0.625758
O6    O     O_R   0.132300 0.974120 0.387660 -0.625758
O7    O     O_R   0.025880 0.612340 0.867700 -0.625837
O8    O     O_R   0.974120 0.387660 0.132300 -0.625837
O9    O     O_R   0.612340 0.867700 0.025880 -0.629267
O10   O     O_R   0.387660 0.132300 0.974120 -0.629268
O11   O     O_R   0.387660 0.974120 0.132300 -0.625837
O12   O     O_R   0.017060 0.861050 0.489840 -0.645772
O13   O     O_R   0.612340 0.025880 0.867700 -0.625836
O14   O     O_R   0.132300 0.387660 0.974120 -0.629268
O15   O     O_R   0.867700 0.612340 0.025880 -0.629267
O16   O     O_R   0.974120 0.132300 0.387660 -0.625758
O17   O     O_R   0.025880 0.867700 0.612340 -0.625758
O18   O     O_R   0.138950 0.510160 0.982940 -0.638098
O19   O     O_R   0.861050 0.489840 0.017060 -0.638098
O20   O     O_R   0.510160 0.982940 0.138950 -0.627322
O21   O     O_R   0.489840 0.017060 0.861050 -0.627321
O22   O     O_R   0.489840 0.861050 0.017060 -0.638098
O23   O     O_R   0.510160 0.138950 0.982940 -0.638098
O24   O     O_R   0.017060 0.489840 0.861050 -0.627322
Zn1   Zn    Zn3+2 0.004880 0.004880 0.583590 0.935312
Zn2   Zn    Zn3+2 0.995120 0.995120 0.416410 0.935313
Zn3   Zn    Zn3+2 0.004880 0.583590 0.004880 0.936739
Zn4   Zn    Zn3+2 0.995120 0.416410 0.995120 0.936739
Zn5   Zn    Zn3+2 0.583590 0.004880 0.004880 0.936738
Zn6   Zn    Zn3+2 0.416410 0.995120 0.995120 0.936739

loop_
_geom_bond_atom_site_label_1
_geom_bond_atom_site_label_2
_ccdc_geom_bond_type
C5    O16   A    
C15   C75   S    
C65   C79   A    
C15   O2    A    
C30   H10   S    
C64   C77   A    
C36   C42   A    
C16   C72   S    
C10   O13   A    
O24   Zn4   S    
C7    C70   S    
C71   C79   A    
O6    Zn2   S    
C36   C88   A    
C38   C44   A    
C1    C18   A    
C43   C89   A    
C37   C90   A    
C8    O19   A    
C68   C81   A    
C4    H24   S    
C52   C85   A    
C16   O3    A    
C27   C60   A    
C54   C87   A    
C9    O20   A    
C17   O6    A    
C54   C68   A    
C63   C76   A    
C28   H8    S    
C40   C49   A    
C5    O1    A    
C60   C73   A    
C32   C39   A    
C55   C88   A    
C3    C29   A    
C69   C82   A    
C35   C87   A    
C19   C52   A    
C77   H1    S    
O10   Zn6   S    
C4    C40   A    
C24   C57   A    
C31   C46   A    
C25   C67   A    
C35   C49   A    
C13   O10   A    
O3    Zn2   S    
C79   H12   S    
C36   C48   A    
C53   C86   A    
C57   C70   A    
C37   C47   A    
C43   C48   A    
C3    H22   S    
C59   C72   A    
C28   C61   A    
C19   H29   S    
C30   C63   A    
C8    O15   A    
C74   C82   A    
C5    C68   S    
C11   O9    A    
O21   Zn6   S    
C9    O11   A    
C26   H6    S    
O19   Zn4   S    
C14   O24   A    
C2    H21   S    
C33   C40   A    
C57   C90   A    
C29   H9    S    
O13   Zn5   S    
C59   C84   A    
C12   H13   S    
C6    O12   A    
O4    Zn1   S    
C75   C81   A    
C23   C50   A    
C21   C34   A    
C38   C78   A    
C33   C50   A    
C89   H20   S    
C4    C30   A    
C14   O7    A    
C10   O21   A    
C14   C76   S    
C37   C43   A    
C33   C86   A    
C56   H17   S    
O9    Zn5   S    
C72   C77   A    
C70   C83   A    
C61   C88   A    
C24   H4    S    
C17   O4    A    
C23   H14   S    
C20   C23   A    
O23   Zn5   S    
O18   Zn3   S    
C81   H25   S    
C8    C69   S    
C26   C59   A    
C26   C78   A    
O2    Zn3   S    
C53   C66   A    
C55   C69   A    
C7    O14   A    
C39   C46   A    
C13   C73   S    
C25   H5    S    
O15   Zn3   S    
C15   O8    A    
C63   C86   A    
C61   C74   A    
C22   H3    S    
O1    Zn1   S    
C62   C75   A    
C25   C58   A    
C58   C85   A    
C1    H11   S    
C41   C50   A    
C20   H30   S    
C66   C80   A    
C45   H16   S    
C16   O5    A    
C45   C48   A    
O17   Zn1   S    
C18   H28   S    
C29   C62   A    
C27   H7    S    
C34   C49   A    
C34   H15   S    
C39   C67   A    
O8    Zn4   S    
C51   C64   A    
C76   C80   A    
C20   C53   A    
C11   C74   S    
C7    O18   A    
C17   C71   S    
C22   C55   A    
C60   C90   A    
C18   C51   A    
C24   C56   A    
O14   Zn4   S    
C62   C87   A    
C10   C64   S    
C31   C38   A    
C67   H18   S    
O12   Zn2   S    
C83   H27   S    
C6    O17   A    
C82   H26   S    
C12   C44   A    
O5    Zn1   S    
O22   Zn6   S    
C21   C54   A    
C2    C42   A    
C32   C85   A    
O20   Zn5   S    
C12   C19   A    
C1    C46   A    
C27   C89   A    
C78   H19   S    
C42   C47   A    
C13   O23   A    
C35   C41   A    
C11   O22   A    
C9    C65   S    
C3    C41   A    
C58   C71   A    
C31   C84   A    
C6    C66   S    
C22   C45   A    
C80   H23   S    
C32   C44   A    
O11   Zn6   S    
C2    C28   A    
C51   C84   A    
C73   C83   A    
O16   Zn2   S    
C52   C65   A    
O7    Zn3   S    
C47   C56   A    
C21   H2    S    
