data_mof_unit_43101.cif
_audit_creation_date              2012-12-10T17:43:33-0500
_audit_creation_method            fapswitch 2.2
_symmetry_space_group_name_H-M    P1
_symmetry_Int_Tables_number       1
_space_group_crystal_system       triclinic
_cell_length_a                    14.900916
_cell_length_b                    10.743669
_cell_length_c                    9.963925
_cell_angle_alpha                 89.386315
_cell_angle_beta                  89.823462
_cell_angle_gamma                 92.00468
_cell_volume                      1594.05259271

loop_
_atom_site_label
_atom_site_type_symbol
_atom_type_description
_atom_site_fract_x
_atom_site_fract_y
_atom_site_fract_z
_atom_type_partial_charge
C1    C     C_R   0.512016 0.262800 0.501070 0.865047
C2    C     C_R   0.910966 0.618336 0.489388 0.111528
C3    C     C_R   0.941313 0.274342 0.504085 -0.213275
C4    C     C_R   0.033954 0.269166 0.504367 -0.217163
C5    C     C_R   0.087890 0.379461 0.501549 0.122035
C6    C     C_R   0.046358 0.496347 0.494752 0.019888
C7    C     C_R   0.098345 0.608392 0.489420 0.130296
C8    C     C_R   0.057602 0.723303 0.482788 -0.212691
C9    C     C_R   0.964826 0.728520 0.482864 -0.214393
C10   C     C_R   0.182059 0.376280 0.506700 0.130717
C11   C     C_R   0.231671 0.490599 0.500347 -0.063639
C12   C     C_R   0.327316 0.495633 0.500266 0.901366
C13   C     C_R   0.190689 0.604348 0.491165 -0.316346
C14   C     C_R   0.571851 0.121461 0.744543 -0.133245
C15   C     C_R   0.561203 0.058852 0.866869 -0.127015
C16   C     C_R   0.513287 0.945639 0.871606 -0.171890
C17   C     C_R   0.485151 0.889202 0.753055 -0.152665
C18   C     C_R   0.509689 0.941830 0.626121 0.058928
C19   C     C_R   0.539354 0.066676 0.624813 0.093592
C20   C     C_R   0.532186 0.132985 0.503558 -0.188443
C21   C     C_R   0.532578 0.071507 0.382193 -0.215286
C22   C     C_R   0.527647 0.943643 0.379340 0.194076
C23   C     C_R   0.499717 0.741184 0.499816 0.866600
C24   C     C_R   0.507699 0.876877 0.501000 -0.161594
C25   C     C_R   0.410546 0.296791 0.129483 0.172098
C26   C     C_R   0.400071 0.191942 0.046306 -0.298639
C27   C     C_R   0.378655 0.213056 0.911154 0.203387
C28   C     C_R   0.383926 0.336803 0.864171 0.270029
C29   C     C_R   0.447329 0.414553 0.928350 0.049012
C30   C     C_R   0.452175 0.406715 0.071167 0.114723
C31   C     C_R   0.549111 0.585016 0.070031 -0.122207
C32   C     C_R   0.550361 0.583632 0.927301 -0.119405
C33   C     C_R   0.672443 0.502445 0.499708 0.885070
C34   C     C_R   0.816656 0.621410 0.491397 0.128482
C35   C     C_R   0.767612 0.507086 0.498651 -0.042813
C36   C     C_R   0.808482 0.393225 0.502545 -0.318371
C37   C     C_R   0.900709 0.389279 0.500329 0.132073
C38   C     C_R   0.952646 0.501413 0.494504 0.021675
H1    H     H_    0.606496 0.211674 0.744094 0.153787
H2    H     H_    0.584970 0.101798 0.958504 0.132241
H3    H     H_    0.496493 0.901701 0.966748 0.136485
H4    H     H_    0.441566 0.807553 0.764598 0.169908
H5    H     H_    0.590525 0.653121 0.121771 0.145884
H6    H     H_    0.381138 0.102382 0.091239 0.174072
H7    H     H_    0.062169 0.177838 0.507038 0.160691
H8    H     H_    0.231379 0.690213 0.486308 0.140326
H9    H     H_    0.097623 0.809506 0.478294 0.143560
H10   H     H_    0.936318 0.819640 0.478249 0.158674
H11   H     H_    0.536618 0.123642 0.288433 0.179999
N1    N     N_R   0.499150 0.498800 0.142780 -0.103803
N2    N     N_R   0.499120 0.498720 0.857170 -0.118199
O1    O     O_R   0.500000 0.316780 0.614690 -0.626938
O2    O     O_R   0.499990 0.316750 0.385360 -0.624267
O3    O     O_R   0.367850 0.499980 0.614680 -0.614951
O4    O     O_R   0.367840 0.499960 0.385350 -0.620417
O5    O     O_R   0.500010 0.683250 0.614640 -0.634156
O6    O     O_R   0.500000 0.683220 0.385310 -0.608375
O7    O     O_R   0.632160 0.500040 0.614650 -0.620518
O8    O     O_R   0.632150 0.500020 0.385320 -0.614768
Zn1   Zn    Zn3+2 0.500010 0.500020 0.653130 0.936051
Zn2   Zn    Zn3+2 0.499990 0.499980 0.346870 0.941421
C39   C     C_3   0.769522 0.744597 0.486341 -0.926449
H12   H     H_    0.695368 0.734351 0.489225 0.237385
H13   H     H_    0.789949 0.802012 0.573812 0.241201
H14   H     H_    0.787706 0.795466 0.391998 0.238170
C40   C     C_3   0.546085 0.885367 0.245346 -0.890631
H15   H     H_    0.484930 0.835550 0.207376 0.252376
H16   H     H_    0.567119 0.955789 0.168136 0.211151
H17   H     H_    0.603260 0.822671 0.255862 0.248119
C41   C     C_3   0.330901 0.306597 0.220787 -0.773782
H18   H     H_    0.299958 0.398250 0.207396 0.247249
H19   H     H_    0.275603 0.238280 0.196239 0.199637
H20   H     H_    0.349737 0.284943 0.324372 0.265861
C42   C     C_3   0.327962 0.114238 0.833547 -0.886432
H21   H     H_    0.334303 0.020921 0.880691 0.237717
H22   H     H_    0.255534 0.134632 0.830632 0.235206
H23   H     H_    0.354559 0.111235 0.729525 0.252493
C43   C     C_3   0.293634 0.393969 0.844676 -0.864221
H24   H     H_    0.258752 0.353830 0.757462 0.262547
H25   H     H_    0.250614 0.375140 0.934486 0.219381
H26   H     H_    0.299415 0.496903 0.833252 0.250910
H27   H     H_    0.767788 0.307323 0.507253 0.137845
H28   H     H_    0.591858 0.651909 0.873046 0.156894
H29   H     H_    0.901283 0.188103 0.507410 0.145537
C44   C     C_3   0.227774 0.252693 0.522073 -1.006933
H30   H     H_    0.215809 0.195322 0.431534 0.248743
H31   H     H_    0.301063 0.262999 0.539020 0.245862
H32   H     H_    0.199819 0.200835 0.610432 0.245916

loop_
_geom_bond_atom_site_label_1
_geom_bond_atom_site_label_2
_ccdc_geom_bond_type
C40   H16   S    
C10   C44   S    
C33   O7    A    
C35   C36   A    
C21   H11   S    
C26   H6    S    
C7    C8    A    
O3    Zn1   S    
C44   H30   S    
C26   C27   A    
C29   C30   A    
C31   H5    S    
C18   C24   A    
C36   C37   A    
C37   C38   A    
C34   C35   A    
C13   H8    S    
C43   H25   S    
C40   H17   S    
O7    Zn1   S    
C15   C16   A    
C34   C39   S    
C18   C19   A    
C1    O2    A    
C17   H4    S    
C22   C40   S    
C39   H13   S    
O1    Zn1   S    
C14   H1    S    
O2    Zn2   S    
C19   C20   A    
C36   H27   S    
C8    C9    A    
C42   H23   S    
C23   C24   S    
C6    C38   A    
C41   H18   S    
C27   C42   S    
C28   C43   S    
C2    C34   A    
C40   H15   S    
C30   N1    A    
C33   O8    A    
C21   C22   A    
C4    H7    S    
C44   H31   S    
O8    Zn2   S    
C42   H21   S    
C23   O5    A    
C43   H24   S    
C16   C17   A    
C25   C26   A    
O5    Zn1   S    
C32   N2    A    
C39   H12   S    
C2    C38   A    
C31   C32   A    
C41   H20   S    
C17   C18   A    
C42   H22   S    
C22   C24   A    
C31   N1    A    
C3    C4    A    
C3    H29   S    
C29   N2    A    
C44   H32   S    
C25   C30   A    
C23   O6    A    
C32   H28   S    
C28   C29   A    
C1    C20   S    
C39   H14   S    
C14   C19   A    
C4    C5    A    
C11   C12   S    
O6    Zn2   S    
C6    C7    A    
N2    Zn1   S    
C8    H9    S    
C5    C10   A    
C11   C13   A    
C43   H26   S    
C5    C6    A    
O4    Zn2   S    
C33   C35   S    
C1    O1    A    
C15   H2    S    
C12   O4    A    
C10   C11   A    
C7    C13   A    
C20   C21   A    
C3    C37   A    
C9    H10   S    
C27   C28   A    
N1    Zn2   S    
C14   C15   A    
C41   H19   S    
C25   C41   S    
C2    C9    A    
C16   H3    S    
C12   O3    A    
