data_mof_unit_49735.cif
_audit_creation_date              2012-12-10T20:36:34-0500
_audit_creation_method            fapswitch 2.2
_symmetry_space_group_name_H-M    P1
_symmetry_Int_Tables_number       1
_space_group_crystal_system       triclinic
_cell_length_a                    10.496382
_cell_length_b                    10.70697
_cell_length_c                    9.910367
_cell_angle_alpha                 89.357863
_cell_angle_beta                  89.116074
_cell_angle_gamma                 90.93525
_cell_volume                      1113.41707388

loop_
_atom_site_label
_atom_site_type_symbol
_atom_type_description
_atom_site_fract_x
_atom_site_fract_y
_atom_site_fract_z
_atom_type_partial_charge
C1    C     C_R   0.501930 0.260251 0.500446 0.858784
C2    C     C_3   0.961614 0.502946 0.370009 -0.160536
C3    C     C_3   0.042839 0.401128 0.437269 -0.221086
C4    C     C_3   0.122637 0.504796 0.501734 -0.052026
C5    C     C_R   0.523928 0.062804 0.621243 0.127646
C6    C     C_R   0.516169 0.128838 0.500056 -0.065724
C7    C     C_R   0.525699 0.066238 0.376785 -0.219065
C8    C     C_R   0.523186 0.937558 0.376408 -0.175392
C9    C     C_R   0.513314 0.871784 0.498940 -0.067810
C10   C     C_R   0.521471 0.935228 0.620728 0.037540
C11   C     C_3   0.441256 0.927106 0.747486 -0.226914
C12   C     C_R   0.257580 0.501900 0.500824 0.930754
C13   C     C_3   0.443715 0.069281 0.747031 -0.532261
C14   C     C_R   0.442397 0.404719 0.073468 0.185390
C15   C     C_R   0.565082 0.590178 0.067026 -0.014787
C16   C     C_R   0.564069 0.588906 0.923898 -0.132481
C17   C     C_R   0.442196 0.404893 0.931211 0.209173
C18   C     C_3   0.304319 0.369199 0.929096 -0.492074
C19   C     C_3   0.304863 0.368388 0.082240 -0.487015
C20   C     C_R   0.501088 0.739797 0.499501 0.936372
C21   C     C_R   0.742468 0.500230 0.499068 0.893916
C22   C     C_3   0.037616 0.503826 0.628713 -0.138757
C23   C     C_3   0.955692 0.399995 0.564265 -0.164193
C24   C     C_3   0.877364 0.501844 0.497392 0.024378
C25   C     C_3   0.956254 0.605842 0.561900 -0.214820
C26   C     C_3   0.043046 0.605554 0.435531 -0.003989
H1    H     H_    0.915051 0.315794 0.616494 0.146021
H2    H     H_    0.494062 0.885815 0.833163 0.190791
H3    H     H_    0.350166 0.113293 0.728839 0.216519
H4    H     H_    0.497657 0.109219 0.832502 0.201795
H5    H     H_    0.614660 0.660513 0.865428 0.173393
H6    H     H_    0.244750 0.444053 0.885781 0.227082
H7    H     H_    0.287973 0.275102 0.886134 0.195180
H8    H     H_    0.244915 0.442299 0.127262 0.229564
H9    H     H_    0.290085 0.273646 0.127374 0.200271
H10   H     H_    0.071525 0.504607 0.734172 0.161198
H11   H     H_    0.916553 0.689316 0.611871 0.150795
H12   H     H_    0.927184 0.502819 0.264620 0.175702
H13   H     H_    0.082459 0.317820 0.386919 0.157463
H14   H     H_    0.526662 0.115599 0.280722 0.173873
H15   H     H_    0.520495 0.890613 0.280693 0.195737
N1    N     N_R   0.499140 0.499140 0.142800 -0.141704
N2    N     N_R   0.499140 0.499180 0.857150 -0.110982
O1    O     O_R   0.500020 0.316790 0.614690 -0.621579
O2    O     O_R   0.500000 0.316760 0.385350 -0.635451
O3    O     O_R   0.313960 0.499990 0.614650 -0.616642
O4    O     O_R   0.313940 0.499950 0.385310 -0.604585
O5    O     O_R   0.500000 0.683240 0.614650 -0.633110
O6    O     O_R   0.499980 0.683210 0.385310 -0.585236
O7    O     O_R   0.686060 0.500050 0.614690 -0.636875
O8    O     O_R   0.686040 0.500010 0.385350 -0.580677
Zn1   Zn    Zn3+2 0.500010 0.500020 0.653130 0.967185
Zn2   Zn    Zn3+2 0.499990 0.499980 0.346870 0.995998
C27   C     C_2   0.637051 0.695247 0.126613 0.918682
O9    O     O_2   0.707981 0.678477 0.220900 -0.585845
O10   O     O_R   0.632855 0.813348 0.065071 -0.858713
H16   H     H_    0.691456 0.876668 0.108952 0.347255
C28   C     C_2   0.088747 0.722284 0.363716 0.896484
O11   O     O_2   0.011077 0.792585 0.314496 -0.597441
O12   O     O_R   0.218856 0.750843 0.353909 -0.795320
H17   H     H_    0.237196 0.832433 0.303894 0.352935
C29   C     C_2   0.310147 0.870410 0.728939 0.980642
O13   O     O_2   0.272306 0.786867 0.805282 -0.625200
O14   O     O_R   0.232724 0.912448 0.624738 -0.798353
H18   H     H_    0.147576 0.866454 0.623088 0.338125

loop_
_geom_bond_atom_site_label_1
_geom_bond_atom_site_label_2
_ccdc_geom_bond_type
O7    Zn1   S    
C23   C24   S    
C17   N2    A    
C24   C25   S    
C20   O6    A    
C23   H1    S    
C4    C12   S    
C4    C22   S    
C9    C10   A    
C2    H12   S    
C9    C20   S    
C4    C26   S    
C14   C17   A    
C14   N1    A    
C7    H14   S    
C11   C29   S    
C5    C13   S    
O14   H18   S    
O1    Zn1   S    
C17   C18   S    
C28   O11   D    
O2    Zn2   S    
C7    C8    A    
C2    C26   S    
C19   H9    S    
C8    H15   S    
C16   H5    S    
C11   C13   S    
C16   N2    A    
C1    O2    A    
C29   O13   D    
C11   H2    S    
C12   O4    A    
O6    Zn2   S    
O4    Zn2   S    
C13   H3    S    
C21   O7    A    
C22   C25   S    
C2    C3    S    
C6    C7    A    
N1    Zn2   S    
C2    C24   S    
C5    C6    A    
C18   H7    S    
C27   O10   S    
N2    Zn1   S    
C21   O8    A    
C18   H6    S    
C10   C11   S    
C5    C10   A    
C15   C16   A    
C15   C27   S    
O3    Zn1   S    
C13   H4    S    
O5    Zn1   S    
C22   H10   S    
O10   H16   S    
C20   O5    A    
C12   O3    A    
C18   C19   S    
C21   C24   S    
C3    H13   S    
C3    C23   S    
C22   C23   S    
O12   H17   S    
C29   O14   S    
C1    O1    A    
C25   H11   S    
C25   C26   S    
C27   O9    D    
C28   O12   S    
C14   C19   S    
C26   C28   S    
C3    C4    S    
C1    C6    S    
C15   N1    A    
C8    C9    A    
O8    Zn2   S    
C19   H8    S    
