data_mof_unit_24521.cif
_audit_creation_date              2012-12-10T17:45:33-0500
_audit_creation_method            fapswitch 2.2
_symmetry_space_group_name_H-M    P1
_symmetry_Int_Tables_number       1
_space_group_crystal_system       triclinic
_cell_length_a                    11.520669
_cell_length_b                    10.657296
_cell_length_c                    9.985675
_cell_angle_alpha                 87.552232
_cell_angle_beta                  89.722569
_cell_angle_gamma                 94.64914
_cell_volume                      1220.84156823

loop_
_atom_site_label
_atom_site_type_symbol
_atom_type_description
_atom_site_fract_x
_atom_site_fract_y
_atom_site_fract_z
_atom_type_partial_charge
C1    C     C_R   0.499494 0.260721 0.502805 0.887514
C2    C     C_R   0.514268 0.874350 0.488623 -0.156846
C3    C     C_R   0.327754 0.357210 0.154382 -0.171232
C4    C     C_R   0.282161 0.499460 0.500219 0.956163
C5    C     C_R   0.224941 0.310935 0.098412 0.356828
C6    C     C_R   0.214377 0.315727 0.961434 -0.215697
C7    C     C_R   0.309893 0.357443 0.879597 0.364613
C8    C     C_R   0.410445 0.428919 0.933430 0.062036
C9    C     C_R   0.413849 0.429075 0.077963 -0.001677
C10   C     C_R   0.581375 0.570186 0.066434 0.437896
C11   C     C_R   0.582098 0.568613 0.924300 -0.136272
C12   C     C_R   0.798248 0.092095 0.653348 -0.221278
C13   C     C_R   0.506864 0.740084 0.496981 0.995248
C14   C     C_R   0.716933 0.492494 0.500136 0.930535
C15   C     C_1   0.161220 0.494554 0.500794 -0.057326
C16   C     C_1   0.058622 0.490116 0.500752 0.097004
C17   C     C_1   0.939578 0.486984 0.500349 0.090537
C18   C     C_1   0.837278 0.487627 0.500047 -0.072368
C19   C     C_R   0.696157 0.145749 0.618569 -0.237520
C20   C     C_R   0.814917 0.970568 0.616905 0.444279
C21   C     C_R   0.725822 0.899815 0.551277 0.292931
C22   C     C_R   0.614517 0.946816 0.533844 -0.087531
C23   C     C_R   0.604098 0.074457 0.556493 0.061323
C24   C     C_R   0.503947 0.128667 0.509364 -0.087378
C25   C     C_R   0.410928 0.058408 0.453940 -0.167809
C26   C     C_R   0.413655 0.930481 0.447672 0.369468
Cl1   Cl    Cl    0.299607 0.268568 0.736638 -0.576560
Cl2   Cl    Cl    0.951795 0.912571 0.646696 -0.443256
Cl3   Cl    Cl    0.767690 0.775395 0.458384 -0.504526
Cl4   Cl    Cl    0.288153 0.843312 0.390053 -0.501465
Cl5   Cl    Cl    0.687462 0.669508 0.142860 -0.463708
Cl6   Cl    Cl    0.113456 0.234903 0.200118 -0.525366
H1    H     H_    0.337229 0.334905 0.258200 0.220960
H2    H     H_    0.334941 0.103266 0.418285 0.202294
H3    H     H_    0.136606 0.268950 0.919250 0.224823
H4    H     H_    0.648896 0.625383 0.867475 0.187494
H5    H     H_    0.691025 0.243241 0.640957 0.174010
H6    H     H_    0.867290 0.147991 0.701795 0.199102
N1    N     N_R   0.498930 0.498800 0.142780 -0.134341
N2    N     N_R   0.498900 0.498720 0.857170 -0.123783
O1    O     O_R   0.500000 0.316780 0.614690 -0.567040
O2    O     O_R   0.499990 0.316750 0.385360 -0.653856
O3    O     O_R   0.334450 0.500030 0.614670 -0.578020
O4    O     O_R   0.334440 0.500000 0.385330 -0.627217
O5    O     O_R   0.500010 0.683250 0.614640 -0.614227
O6    O     O_R   0.500000 0.683220 0.385310 -0.534491
O7    O     O_R   0.665560 0.500000 0.614670 -0.631719
O8    O     O_R   0.665550 0.499970 0.385330 -0.540821
Zn1   Zn    Zn3+2 0.500010 0.500020 0.653130 1.022745
Zn2   Zn    Zn3+2 0.499990 0.499980 0.346870 1.055526

loop_
_geom_bond_atom_site_label_1
_geom_bond_atom_site_label_2
_ccdc_geom_bond_type
C2    C22   A    
C19   C23   A    
C23   C24   A    
C6    C7    A    
C3    C9    A    
C4    O3    A    
C20   Cl2   S    
C6    H3    S    
C14   C18   S    
O5    Zn1   S    
C25   H2    S    
C5    Cl6   S    
C12   C20   A    
C4    C15   S    
O8    Zn2   S    
C17   C18   T    
C7    C8    A    
O7    Zn1   S    
C21   C22   A    
C24   C25   A    
C13   O5    A    
C13   O6    A    
O2    Zn2   S    
C5    C6    A    
C12   C19   A    
C1    O1    A    
C11   H4    S    
C26   Cl4   S    
C12   H6    S    
C11   N2    A    
C19   H5    S    
C10   C11   A    
C3    H1    S    
O4    Zn2   S    
N2    Zn1   S    
C1    O2    A    
C9    N1    A    
N1    Zn2   S    
C7    Cl1   S    
C20   C21   A    
C1    C24   S    
C2    C26   A    
O1    Zn1   S    
C8    N2    A    
C2    C13   S    
O6    Zn2   S    
C22   C23   A    
O3    Zn1   S    
C14   O8    A    
C4    O4    A    
C25   C26   A    
C14   O7    A    
C21   Cl3   S    
C10   Cl5   S    
C10   N1    A    
C15   C16   T    
C16   C17   S    
C8    C9    A    
C3    C5    A    
