data_mof_unit_56287.cif
_audit_creation_date              2012-12-10T20:02:20-0500
_audit_creation_method            fapswitch 2.2
_symmetry_space_group_name_H-M    P1
_symmetry_Int_Tables_number       1
_space_group_crystal_system       triclinic
_cell_length_a                    18.287096
_cell_length_b                    18.35039
_cell_length_c                    18.378357
_cell_angle_alpha                 120.09414
_cell_angle_beta                  120.221129
_cell_angle_gamma                 89.742963
_cell_volume                      4349.91028984

loop_
_atom_site_label
_atom_site_type_symbol
_atom_type_description
_atom_site_fract_x
_atom_site_fract_y
_atom_site_fract_z
_atom_type_partial_charge
C1    C     C_R   0.140984 0.139752 0.779803 0.776089
C2    C     C_R   0.709620 0.793698 0.453707 0.132478
C3    C     C_3   0.655723 0.608701 0.134089 -0.343013
C4    C     C_3   0.689448 0.599728 0.069996 -0.944095
C5    C     C_3   0.732792 0.353175 0.748564 0.220788
C6    C     C_3   0.647261 0.378146 0.714307 -0.375007
C7    C     C_3   0.572109 0.315235 0.690939 -0.971132
C8    C     C_3   0.939362 0.239696 0.768304 0.034267
C9    C     C_3   0.877816 0.148740 0.718463 -0.322217
C10   C     C_3   0.928439 0.082523 0.717949 -0.871826
C11   C     C_R   0.908996 0.680687 0.668517 -0.242295
C12   C     C_R   0.859733 0.860255 0.219963 0.828479
C13   C     C_R   0.951403 0.628363 0.699713 -0.276415
C14   C     C_R   0.915551 0.533819 0.631838 0.618161
C15   C     C_R   0.836861 0.494712 0.532663 -0.182472
C16   C     C_R   0.794927 0.547163 0.501164 -0.195098
C17   C     C_R   0.830267 0.640623 0.569274 0.170003
C18   C     C_R   0.718474 0.804681 0.052158 -0.032567
C19   C     C_R   0.803141 0.800690 0.108485 -0.148055
C20   C     C_R   0.608993 0.788779 0.295384 0.400894
C21   C     C_R   0.830964 0.734696 0.056081 -0.324322
C22   C     C_R   0.779533 0.680983 0.947074 0.473089
C23   C     C_R   0.696508 0.691004 0.891614 -0.165626
C24   C     C_R   0.859794 0.139886 0.501434 0.790517
C25   C     C_R   0.667705 0.752566 0.945736 -0.167756
C26   C     C_3   0.631978 0.824986 0.938946 0.251748
C27   C     C_3   0.689346 0.883126 0.057723 0.338835
C28   C     C_R   0.185937 0.740582 0.515837 0.003272
C29   C     C_R   0.197903 0.805857 0.501044 -0.226410
C30   C     C_R   0.254332 0.807200 0.470086 0.471587
C31   C     C_R   0.552400 0.825178 0.246909 -0.351176
C32   C     C_R   0.305929 0.750179 0.468293 -0.307901
C33   C     C_R   0.297972 0.689647 0.491424 -0.162165
C34   C     C_R   0.230871 0.679653 0.504973 -0.066536
C35   C     C_3   0.232742 0.671187 0.582812 0.266526
C36   C     C_R   0.142023 0.862021 0.502031 0.867748
C37   C     C_3   0.195443 0.748581 0.605665 0.362287
C38   C     C_R   0.239024 0.161618 0.948981 -0.136768
C39   C     C_R   0.195551 0.195322 0.891070 -0.056304
C40   C     C_R   0.204865 0.286857 0.945235 -0.222297
C41   C     C_R   0.257839 0.341439 0.053443 -0.203717
C42   C     C_R   0.554331 0.912427 0.304847 0.491965
C43   C     C_R   0.300919 0.304926 0.109053 -0.039919
C44   C     C_R   0.286643 0.214118 0.053169 -0.062540
C45   C     C_3   0.320408 0.145808 0.068490 0.298132
C46   C     C_3   0.268175 0.083674 0.949337 0.889518
C47   C     C_R   0.209658 0.286994 0.549718 0.022120
C48   C     C_R   0.140071 0.139935 0.499912 0.830709
C49   C     C_R   0.190921 0.194850 0.494166 -0.071396
C50   C     C_R   0.218179 0.155820 0.427798 -0.213496
C51   C     C_R   0.272277 0.209815 0.428192 -0.207090
C52   C     C_R   0.299684 0.303485 0.494858 -0.019362
C53   C     C_R   0.659068 0.738271 0.454308 -0.229063
C54   C     C_R   0.262437 0.340317 0.549897 -0.051053
C55   C     C_3   0.302127 0.416558 0.659243 -0.602870
C56   C     C_3   0.242602 0.357127 0.659039 0.977207
C57   C     C_R   0.803046 0.251043 0.588821 -0.060430
C58   C     C_R   0.802400 0.194373 0.501452 -0.043934
C59   C     C_R   0.738301 0.183912 0.408859 -0.208191
C60   C     C_R   0.859206 0.860381 0.499985 0.814087
C61   C     C_R   0.683882 0.237695 0.407560 -0.233981
C62   C     C_R   0.694714 0.303391 0.499381 -0.041252
C63   C     C_R   0.750213 0.305278 0.587315 -0.094315
C64   C     C_R   0.697084 0.690930 0.495882 -0.076259
C65   C     C_3   0.821217 0.381618 0.696586 0.314634
C66   C     C_3   0.878673 0.320723 0.699809 0.251137
C67   C     C_R   0.358291 0.638224 0.498063 0.841896
C68   C     C_R   0.639988 0.360078 0.498961 0.778690
C69   C     C_R   0.640266 0.638822 0.779913 0.863948
C70   C     C_R   0.359312 0.360179 0.220201 0.803959
C71   C     C_R   0.360374 0.359860 0.500339 0.802148
C72   C     C_R   0.608343 0.961617 0.413111 -0.335268
C73   C     C_R   0.640437 0.638036 0.498356 0.792518
C74   C     C_R   0.659338 0.923442 0.462447 0.401710
C75   C     C_R   0.787772 0.696714 0.535250 0.016818
C76   C     C_R   0.661466 0.837570 0.403708 -0.062984
C77   C     C_3   0.546673 0.023895 0.281237 -0.302240
C78   C     C_3   0.030860 0.518462 0.756462 -0.410356
C79   C     C_3   0.894781 0.651994 0.926725 0.150539
C80   C     C_3   0.901081 0.716810 0.898724 -0.371802
C81   C     C_3   0.998604 0.765870 0.951514 -0.986606
C82   C     C_3   0.738644 0.864852 0.913519 0.081996
C83   C     C_3   0.770705 0.940526 0.912061 -0.320124
C84   C     C_3   0.858200 0.941842 0.920440 -0.985526
C85   C     C_3   0.564838 0.847202 0.059796 -0.309918
C86   C     C_R   0.839159 0.754652 0.537644 -0.270200
C87   C     C_3   0.259799 0.840348 0.365844 0.113610
C88   C     C_3   0.347828 0.881450 0.388930 -0.376860
C89   C     C_3   0.338834 0.851026 0.290002 -0.927466
C90   C     C_3   0.191688 0.515211 0.496508 0.089534
C91   C     C_3   0.139536 0.463714 0.379064 -0.344801
C92   C     C_3   0.162861 0.379604 0.333333 -0.939146
C93   C     C_3   0.119925 0.770783 0.682083 0.158913
C94   C     C_3   0.159542 0.726105 0.738391 -0.370906
C95   C     C_3   0.177315 0.780784 0.844792 -0.940968
C96   C     C_3   0.332646 0.075465 0.146389 -0.205584
C97   C     C_R   0.801591 0.803494 0.497873 -0.051601
C98   C     C_3   0.293114 0.026484 0.820825 -0.244725
C99   C     C_3   0.655257 0.953849 0.597281 0.085632
C100  C     C_3   0.625022 0.033747 0.639719 -0.367951
C101  C     C_3   0.578551 0.022729 0.684837 -0.933197
C102  C     C_3   0.120459 0.012596 0.887363 -0.319001
C103  C     C_3   0.308325 0.379875 0.821042 0.160098
C104  C     C_3   0.369909 0.476860 0.889781 -0.439292
C105  C     C_3   0.391366 0.526040 0.997754 -0.912569
C106  C     C_3   0.121434 0.414881 0.608680 -0.371116
C107  C     C_3   0.638285 0.697128 0.178839 0.096116
H1    H     H_    0.808146 0.422680 0.479072 0.147854
H2    H     H_    0.172078 0.316591 0.904460 0.156113
H3    H     H_    0.640221 0.604805 0.006379 0.266531
H4    H     H_    0.698941 0.533820 0.036016 0.267422
H5    H     H_    0.754800 0.652862 0.119555 0.268483
H6    H     H_    0.755968 0.360024 0.821043 0.158996
H7    H     H_    0.718805 0.281693 0.691843 0.137639
H8    H     H_    0.661750 0.447647 0.776259 0.245803
H9    H     H_    0.624216 0.375202 0.644171 0.217379
H10   H     H_    0.554981 0.245620 0.627293 0.265368
H11   H     H_    0.511432 0.335573 0.666974 0.269751
H12   H     H_    0.592820 0.317979 0.760637 0.267255
H13   H     H_    0.265278 0.411747 0.093043 0.168331
H14   H     H_    0.992969 0.267389 0.850119 0.166679
H15   H     H_    0.973862 0.232160 0.730731 0.159370
H16   H     H_    0.849288 0.156818 0.762014 0.230695
H17   H     H_    0.821560 0.121744 0.637809 0.241090
H18   H     H_    0.948796 0.066505 0.665467 0.252314
H19   H     H_    0.884649 0.019887 0.690120 0.277388
H20   H     H_    0.988651 0.110742 0.797060 0.229809
H21   H     H_    0.395129 0.166909 0.112850 0.067664
H22   H     H_    0.201220 0.084081 0.379014 0.173926
H23   H     H_    0.295474 0.178164 0.379621 0.176791
H24   H     H_    0.375105 0.429649 0.710612 0.204756
H25   H     H_    0.285656 0.476857 0.666032 0.172874
H26   H     H_    0.732610 0.136492 0.338595 0.165304
H27   H     H_    0.636410 0.230721 0.336292 0.145713
H28   H     H_    0.849381 0.437790 0.700254 0.121355
H29   H     H_    0.734897 0.514887 0.423533 0.126891
H30   H     H_    0.942050 0.345919 0.712349 0.083624
H31   H     H_    0.506544 0.785468 0.163680 0.157590
H32   H     H_    0.589090 0.732741 0.422298 0.158502
H33   H     H_    0.908225 0.758685 0.566820 0.170412
H34   H     H_    0.937792 0.752761 0.721917 0.142972
H35   H     H_    0.012132 0.662916 0.776601 0.156087
H36   H     H_    0.608330 0.018258 0.283431 0.197928
H37   H     H_    0.563647 0.082027 0.356321 0.180349
H38   H     H_    0.504890 0.036182 0.222002 0.178232
H39   H     H_    0.015974 0.557142 0.814140 0.162037
H40   H     H_    0.892499 0.725795 0.100662 0.163233
H41   H     H_    0.085593 0.560779 0.769667 0.185377
H42   H     H_    0.055373 0.466788 0.766924 0.216211
H43   H     H_    0.913707 0.595171 0.886591 0.172167
H44   H     H_    0.945241 0.682831 0.010043 0.117087
H45   H     H_    0.864456 0.678946 0.813694 0.249588
H46   H     H_    0.870124 0.767672 0.923606 0.210400
H47   H     H_    0.032894 0.811820 0.036247 0.270143
H48   H     H_    0.001164 0.805741 0.922649 0.270971
H49   H     H_    0.034811 0.717843 0.935742 0.254634
H50   H     H_    0.730979 0.801485 0.849025 0.152464
H51   H     H_    0.558458 0.803747 0.899519 0.125308
H52   H     H_    0.790883 0.875813 0.987958 0.116522
H53   H     H_    0.718624 0.931831 0.838931 0.225290
H54   H     H_    0.781238 0.005405 0.977586 0.223627
H55   H     H_    0.848487 0.878244 0.854192 0.266944
H56   H     H_    0.911701 0.951379 0.993506 0.272595
H57   H     H_    0.879979 0.997724 0.919720 0.268739
H58   H     H_    0.570085 0.779421 0.033434 0.144665
H59   H     H_    0.507024 0.846248 0.995715 0.163771
H60   H     H_    0.550373 0.867304 0.117468 0.213472
H61   H     H_    0.206795 0.860893 0.322590 0.167706
H62   H     H_    0.746387 0.940364 0.094592 0.088130
H63   H     H_    0.237696 0.765979 0.313789 0.115932
H64   H     H_    0.367582 0.955469 0.437631 0.240785
H65   H     H_    0.401811 0.861760 0.432244 0.211615
H66   H     H_    0.321484 0.777356 0.241263 0.261372
H67   H     H_    0.403550 0.882574 0.309810 0.289729
H68   H     H_    0.286170 0.871188 0.245845 0.263949
H69   H     H_    0.171940 0.471370 0.512918 0.145387
H70   H     H_    0.264813 0.529648 0.534167 0.178579
H71   H     H_    0.066422 0.444647 0.343927 0.236127
H72   H     H_    0.154708 0.506146 0.358479 0.221813
H73   H     H_    0.608240 0.028149 0.458912 0.161048
H74   H     H_    0.234529 0.397745 0.362629 0.256309
H75   H     H_    0.121233 0.342293 0.248031 0.264309
H76   H     H_    0.149405 0.335669 0.353258 0.264342
H77   H     H_    0.052123 0.767610 0.664582 0.147315
H78   H     H_    0.158975 0.842998 0.733036 0.162785
H79   H     H_    0.111979 0.658054 0.691653 0.239937
H80   H     H_    0.223993 0.719816 0.748902 0.213809
H81   H     H_    0.231840 0.845390 0.895723 0.297974
H82   H     H_    0.198278 0.743424 0.880154 0.255621
H83   H     H_    0.116070 0.794443 0.838944 0.261321
H84   H     H_    0.356195 0.757158 0.455262 0.169075
H85   H     H_    0.400954 0.121443 0.217119 0.156201
H86   H     H_    0.336560 0.017357 0.087178 0.170581
H87   H     H_    0.298060 0.049493 0.168002 0.184413
H88   H     H_    0.227491 0.973210 0.768903 0.209062
H89   H     H_    0.287230 0.078679 0.806155 0.151773
H90   H     H_    0.338542 0.994983 0.801896 0.173485
H91   H     H_    0.697915 0.944535 0.659271 0.167676
H92   H     H_    0.595495 0.891673 0.533951 0.113145
H93   H     H_    0.684181 0.095882 0.700875 0.227316
H94   H     H_    0.577577 0.040356 0.576846 0.214153
H95   H     H_    0.300300 0.687144 0.649859 0.044328
H96   H     H_    0.518948 0.961108 0.625039 0.265987
H97   H     H_    0.556183 0.080923 0.713350 0.270991
H98   H     H_    0.625558 0.019024 0.750393 0.261366
H99   H     H_    0.128556 0.073620 0.954611 0.199778
H100  H     H_    0.084121 0.954543 0.874608 0.181820
H101  H     H_    0.077832 0.010760 0.817032 0.194548
H102  H     H_    0.341384 0.347288 0.860318 0.153035
H103  H     H_    0.243908 0.376923 0.813456 0.181730
H104  H     H_    0.433497 0.477556 0.895707 0.228179
H105  H     H_    0.336704 0.513088 0.855735 0.234976
H106  H     H_    0.246758 0.813570 0.679396 -0.019531
H107  H     H_    0.328583 0.525569 0.993543 0.258970
H108  H     H_    0.433742 0.596434 0.044686 0.282558
H109  H     H_    0.428367 0.494087 0.036300 0.270568
H110  H     H_    0.104793 0.374944 0.529628 0.152875
H111  H     H_    0.155232 0.486721 0.649487 0.172596
H112  H     H_    0.056282 0.408412 0.598508 0.256291
H113  H     H_    0.701922 0.752668 0.227126 0.179630
H114  H     H_    0.586362 0.699101 0.113661 0.127391
H115  H     H_    0.706659 0.604765 0.198017 0.231115
H116  H     H_    0.592668 0.552458 0.084497 0.234129
O1    O     O_3   1.000000 0.000000 0.500000 -0.485464
O2    O     O_R   0.384160 0.323450 0.268320 -0.617933
O3    O     O_R   0.384130 0.444860 0.560610 -0.656546
O4    O     O_R   0.115780 0.055050 0.731580 -0.669789
O5    O     O_R   0.555060 0.615780 0.439210 -0.644337
O6    O     O_R   0.384140 0.323430 0.439180 -0.639167
O7    O     O_R   0.676490 0.615760 0.560640 -0.642788
O8    O     O_R   0.676470 0.615740 0.731500 -0.625006
O9    O     O_R   0.384180 0.444900 0.268330 -0.652331
O10   O     O_R   0.384150 0.615750 0.560620 -0.672115
O11   O     O_R   0.555030 0.323430 0.439190 -0.650075
O12   O     O_R   0.823480 0.055090 0.439280 -0.634463
O13   O     O_R   0.823490 0.884220 0.268410 -0.632008
O14   O     O_R   0.944920 0.176520 0.560720 -0.649964
O15   O     O_R   0.115810 0.884200 0.439290 -0.610363
O16   O     O_R   0.115820 0.176530 0.560730 -0.604861
O17   O     O_R   0.944890 0.884180 0.560700 -0.649355
O18   O     O_R   0.115830 0.055100 0.439300 -0.653482
O19   O     O_R   0.823460 0.884190 0.439270 -0.653882
O20   O     O_3   0.496891 0.944929 0.253297 -0.615948
O21   O     O_3   0.952845 0.475487 0.655061 -0.650731
O22   O     O_3   0.806420 0.616421 0.892974 -0.614234
O23   O     O_R   0.115790 0.884180 0.560710 -0.657451
O24   O     O_3   0.653917 0.861902 0.897116 -0.642695
O25   O     O_3   0.644334 0.912181 0.106803 -0.595414
O26   O     O_3   0.269738 0.874504 0.459832 -0.631573
O27   O     O_3   0.167448 0.591795 0.536310 -0.594113
O28   O     O_3   0.111081 0.726234 0.587529 -0.574702
O29   O     O_3   0.283460 0.121694 0.107972 -0.590841
O30   O     O_3   0.331867 0.065384 0.925836 -0.670044
O31   O     O_3   0.708395 0.970971 0.568560 -0.658572
O32   O     O_3   0.202990 0.003441 0.902862 -0.622891
O33   O     O_3   0.294387 0.329470 0.723507 -0.676395
O34   O     O_R   0.115790 0.176500 0.731590 -0.656424
O35   O     O_3   0.172670 0.384216 0.669138 -0.636372
O36   O     O_3   0.607917 0.702553 0.237996 -0.635502
O37   O     O_3   0.801599 0.414002 0.771385 -0.593044
O38   O     O_3   0.889489 0.298629 0.767405 -0.619663
O39   O     O_R   0.944940 0.884220 0.268420 -0.653352
O40   O     O_3   0.499960 0.499960 0.499910 -0.482235
O41   O     O_R   0.384170 0.615770 0.439200 -0.642167
O42   O     O_R   0.676480 0.444870 0.560630 -0.635630
O43   O     O_R   0.555020 0.615730 0.731490 -0.643774
Zn1   Zn    Zn3+2 0.869870 0.956630 0.413250 0.967796
Zn2   Zn    Zn3+2 0.043380 0.130130 0.586750 0.970440
Zn3   Zn    Zn3+2 0.043390 0.956630 0.413260 0.971272
Zn4   Zn    Zn3+2 0.043360 0.956610 0.586740 0.935953
Zn5   Zn    Zn3+2 0.630090 0.543330 0.586660 0.974724
Zn6   Zn    Zn3+2 0.456570 0.543320 0.586650 0.942713
Zn7   Zn    Zn3+2 0.456580 0.369830 0.413160 0.966044
Zn8   Zn    Zn3+2 0.456590 0.543350 0.413170 0.958291

loop_
_geom_bond_atom_site_label_1
_geom_bond_atom_site_label_2
_ccdc_geom_bond_type
C8    C9    S    
C87   C88   S    
C63   C65   S    
C93   C94   S    
C88   H65   S    
C31   C42   A    
C5    H7    S    
C36   O23   A    
C7    H10   S    
C70   O2    A    
C89   H66   S    
C57   C66   S    
C55   C56   S    
C8    H15   S    
C103  H102  S    
O10   Zn6   S    
C67   O41   A    
C90   C91   S    
C84   H55   S    
C80   H46   S    
C47   C49   A    
C9    H16   S    
C45   C46   S    
C68   O11   A    
C90   O27   S    
C29   C36   S    
O6    Zn7   S    
C26   C27   S    
C29   C30   A    
O11   Zn7   S    
C74   C76   A    
C82   O24   S    
O14   Zn2   S    
C105  H108  S    
C85   H59   S    
C21   H40   S    
C28   C29   A    
C35   C37   S    
C34   C35   S    
C99   O31   S    
C92   H74   S    
C69   O8    A    
C45   O29   S    
C38   C39   A    
C53   C64   A    
C92   H76   S    
C8    H14   S    
O7    Zn5   S    
C45   H21   S    
C104  H104  S    
C15   C16   A    
C24   O14   A    
C91   H71   S    
C90   H69   S    
C42   O20   S    
C12   O13   A    
C9    H17   S    
C106  O35   S    
C20   C76   A    
C107  O36   S    
C102  O32   S    
O17   Zn4   S    
C86   C97   A    
C23   C69   S    
C104  C105  S    
C35   O27   S    
C75   C86   A    
C95   H83   S    
O3    Zn6   S    
O1    Zn3   S    
C11   C17   A    
C83   H53   S    
C83   C84   S    
C2    C97   A    
O5    Zn8   S    
C16   C17   A    
O40   Zn7   S    
C91   H72   S    
C95   H81   S    
C85   O25   S    
C64   C73   S    
O43   Zn6   S    
C60   O17   A    
C66   O38   S    
C9    C10   S    
C27   H62   S    
C46   O30   S    
C84   H57   S    
C86   H33   S    
C74   O31   S    
C73   O5    A    
C1    O4    A    
O40   Zn5   S    
C106  H112  S    
C4    H5    S    
C90   H70   S    
C28   C34   A    
C93   O28   S    
C88   H64   S    
C53   H32   S    
C13   C14   A    
C36   O15   A    
C103  O33   S    
C41   C43   A    
C7    H11   S    
C61   C62   A    
O34   Zn2   S    
C89   H67   S    
O1    Zn1   S    
C103  H103  S    
C37   H106  S    
C73   O7    A    
C51   H23   S    
C52   C54   A    
C61   H27   S    
C57   C63   A    
C6    C7    S    
C1    O34   A    
O18   Zn3   S    
O12   Zn1   S    
C59   C61   A    
C18   C27   S    
C51   C52   A    
C85   H60   S    
C7    H12   S    
O16   Zn2   S    
C65   O37   S    
C94   H80   S    
C72   C74   A    
C60   C97   S    
C101  H96   S    
C39   C40   A    
C82   H50   S    
C1    C39   S    
C18   C19   A    
C107  H114  S    
C3    C107  S    
C25   C26   S    
C37   O28   S    
C87   H63   S    
C59   H26   S    
C5    O37   S    
C78   O21   S    
C81   H47   S    
C107  H113  S    
C32   H84   S    
O8    Zn5   S    
C15   H1    S    
O15   Zn3   S    
C43   C44   A    
C77   H36   S    
C38   C44   A    
C62   C63   A    
C50   H22   S    
O9    Zn8   S    
O13   Zn1   S    
C11   H34   S    
C100  H94   S    
O4    Zn4   S    
C99   C100  S    
O40   Zn8   S    
C106  H110  S    
C42   C72   A    
C50   C51   A    
C71   O6    A    
C98   H89   S    
C12   O39   A    
C13   H35   S    
C31   H31   S    
C102  H99   S    
C6    H9    S    
C68   O42   A    
C65   H28   S    
C84   H56   S    
C101  H98   S    
C47   C54   A    
C14   O21   S    
C100  H93   S    
C40   C41   A    
C106  H111  S    
C4    H4    S    
C49   C50   A    
C3    H115  S    
C55   H24   S    
C79   H43   S    
C87   H61   S    
O40   Zn6   S    
C71   O3    A    
C80   H45   S    
C96   O29   S    
C104  H105  S    
C78   H39   S    
C99   H92   S    
C10   H20   S    
C16   H29   S    
C77   H38   S    
C46   O32   S    
C69   O43   A    
C48   O16   A    
C2    C76   S    
C26   O24   S    
C33   C67   S    
C79   H44   S    
C102  H100  S    
C10   H19   S    
C87   O26   S    
C4    H3    S    
C54   C55   S    
C67   O10   A    
C3    H116  S    
C105  H107  S    
C98   H90   S    
C5    H6    S    
C77   O20   S    
O2    Zn7   S    
C22   C23   A    
C56   O35   S    
C44   C45   S    
C94   H79   S    
C2    C53   A    
C80   C81   S    
O23   Zn4   S    
C101  H97   S    
O1    Zn2   S    
C22   O22   S    
C35   H95   S    
C40   H2    S    
C48   O18   A    
C78   H41   S    
C43   C70   S    
C60   O19   A    
C81   H48   S    
C30   O26   S    
C62   C68   S    
C85   H58   S    
C32   C33   A    
C96   H85   S    
C72   H73   S    
C56   O33   S    
C58   C59   A    
C77   H37   S    
C52   C71   S    
C18   C25   A    
C27   O25   S    
O39   Zn3   S    
C30   C32   A    
C82   H52   S    
C11   C13   A    
O19   Zn1   S    
C57   C58   A    
C5    C6    S    
C66   H30   S    
C28   C37   S    
C48   C49   S    
C12   C19   S    
C96   H87   S    
C100  C101  S    
C93   H77   S    
C64   C75   A    
C33   C34   A    
C98   H88   S    
C26   H51   S    
C65   C66   S    
C41   H13   S    
O42   Zn5   S    
C94   C95   S    
O41   Zn8   S    
C6    H8    S    
C38   C46   S    
C99   H91   S    
C95   H82   S    
C20   O36   S    
O1    Zn4   S    
C79   C80   S    
C79   O22   S    
C96   H86   S    
C23   C25   A    
C88   C89   S    
C24   C58   S    
C55   H25   S    
C81   H49   S    
C103  C104  S    
C105  H109  S    
C83   H54   S    
C89   H68   S    
C14   C15   A    
C92   H75   S    
C10   H18   S    
C82   C83   S    
C8    O38   S    
C21   C22   A    
C102  H101  S    
C20   C31   A    
C98   O30   S    
C24   O12   A    
C91   C92   S    
C3    C4    S    
C78   H42   S    
C17   C75   S    
C47   C56   S    
C19   C21   A    
C70   O9    A    
C93   H78   S    
