data_mof_unit_67830.cif
_audit_creation_date              2012-12-10T16:55:42-0500
_audit_creation_method            fapswitch 2.2
_symmetry_space_group_name_H-M    P1
_symmetry_Int_Tables_number       1
_space_group_crystal_system       triclinic
_cell_length_a                    7.774005
_cell_length_b                    8.622646
_cell_length_c                    10.489616
_cell_angle_alpha                 92.42807
_cell_angle_beta                  85.05941
_cell_angle_gamma                 93.703623
_cell_volume                      698.590457916

loop_
_atom_site_label
_atom_site_type_symbol
_atom_type_description
_atom_site_fract_x
_atom_site_fract_y
_atom_site_fract_z
_atom_type_partial_charge
C1    C     C_R   0.545384 0.794380 0.497516 0.885588
C2    C     C_3   0.502998 0.512573 0.876643 -0.473036
C3    C     C_3   0.335228 0.477017 0.047889 0.505850
C4    C     C_3   0.664970 0.527584 0.951496 0.469989
C5    C     C_2   0.569541 0.956616 0.493246 0.296339
C6    C     C_2   0.430936 0.043649 0.511659 0.285400
C7    C     C_3   0.289671 0.862164 0.023278 0.125702
C8    C     C_3   0.164506 0.823866 0.140454 -0.363615
C9    C     C_3   0.141394 0.967057 0.229529 -0.759589
C10   C     C_3   0.790277 0.209095 0.942033 0.195310
C11   C     C_3   0.812885 0.034639 0.941616 -0.369571
C12   C     C_R   0.454691 0.205676 0.504090 0.881467
C13   C     C_3   0.927321 0.981193 0.824369 -0.781127
C14   C     C_R   0.502492 0.510265 0.742127 1.028106
C15   C     C_R   0.497648 0.490814 0.257759 1.031049
C16   C     C_3   0.406796 0.620974 0.974639 0.257548
C17   C     C_3   0.593125 0.383960 0.024801 0.256060
C18   C     C_3   0.569252 0.635435 0.049956 0.373821
C19   C     C_3   0.431481 0.369361 0.950134 0.420768
C20   C     C_3   0.497180 0.490893 0.123284 -0.464322
F1    F     F_    0.645392 0.764531 0.110418 -0.668889
F2    F     F_    0.362141 0.234022 0.894197 -0.667965
F3    F     F_    0.167176 0.447986 0.099890 -0.617873
F4    F     F_    0.832555 0.556707 0.898540 -0.622858
F5    F     F_    0.735155 0.015832 0.466234 -0.644330
F6    F     F_    0.265661 0.984506 0.540384 -0.641758
H1    H     H_    0.013580 0.381240 0.403164 0.235027
H2    H     H_    0.919332 0.272507 0.943553 0.239948
H3    H     H_    0.734471 0.232829 0.850654 0.154095
H4    H     H_    0.871149 0.005880 0.029897 0.273210
H5    H     H_    0.684277 0.971472 0.939480 0.266800
H6    H     H_    0.863718 0.998024 0.735498 0.282973
H7    H     H_    0.948824 0.855753 0.830360 0.312200
H8    H     H_    0.054620 0.047906 0.819354 0.300129
H9    H     H_    0.986441 0.618815 0.596802 0.232620
H10   H     H_    0.237969 0.958217 0.974113 0.216696
H11   H     H_    0.417106 0.908548 0.052422 0.194493
H12   H     H_    0.036893 0.780197 0.108648 0.300865
H13   H     H_    0.215798 0.732612 0.195318 0.262409
H14   H     H_    0.267515 0.009583 0.264361 0.255304
H15   H     H_    0.050171 0.936343 0.313261 0.326762
H16   H     H_    0.088823 0.061819 0.179037 0.269825
N1    N     N_2   0.950320 0.457950 0.465730 -0.141381
N2    N     N_2   0.049680 0.542050 0.534270 -0.142389
O1    O     O_R   0.389250 0.738570 0.508410 -0.585700
O2    O     O_3   0.685129 0.255168 0.052615 -0.586089
O3    O     O_R   0.610750 0.261430 0.491590 -0.583388
O4    O     O_R   0.678390 0.711620 0.486450 -0.595379
O5    O     O_R   0.321610 0.288380 0.513550 -0.592132
O6    O     O_R   0.355460 0.513510 0.697030 -0.558972
O7    O     O_R   0.644540 0.486490 0.302970 -0.560203
O8    O     O_R   0.644600 0.486560 0.675070 -0.627191
O9    O     O_R   0.355400 0.513440 0.324930 -0.634413
O10   O     O_3   0.302963 0.735247 0.933814 -0.576635
Zn1   Zn    Zn3+2 0.306940 0.517990 0.514670 1.059758
Zn2   Zn    Zn3+2 0.693060 0.482010 0.485330 1.062691

loop_
_geom_bond_atom_site_label_1
_geom_bond_atom_site_label_2
_ccdc_geom_bond_type
C10   O2    S    
C2    C4    S    
N1    N2    D    
C1    O4    A    
C13   H7    S    
C8    H13   S    
C15   O7    A    
C18   F1    S    
C2    C16   S    
C7    H10   S    
C13   H6    S    
C3    F3    S    
O6    Zn1   S    
C10   H3    S    
C4    F4    S    
C4    C18   S    
C17   C20   S    
C12   O5    A    
C7    H11   S    
C11   H5    S    
C3    C20   S    
C6    F6    S    
C3    C19   S    
H9    N2    S    
C11   C13   S    
N2    Zn1   S    
C1    O1    A    
C9    H16   S    
C14   O6    A    
C5    C6    D    
C8    H12   S    
C12   O3    A    
C1    C5    S    
C4    C17   S    
C15   O9    A    
C17   C19   S    
C18   C20   S    
O9    Zn1   S    
C6    C12   S    
C15   C20   S    
C2    C14   S    
C16   O10   S    
C7    C8    S    
C10   C11   S    
H1    N1    S    
N1    Zn2   S    
C13   H8    S    
C19   F2    S    
C17   O2    S    
O1    Zn1   S    
C16   C18   S    
O7    Zn2   S    
C10   H2    S    
O4    Zn2   S    
O3    Zn2   S    
C7    O10   S    
C2    C19   S    
O5    Zn1   S    
C9    H15   S    
C9    H14   S    
C14   O8    A    
C3    C16   S    
O8    Zn2   S    
C11   H4    S    
C8    C9    S    
C5    F5    S    
