data_mof_unit_29992.cif
_audit_creation_date              2012-12-11T17:43:57-0500
_audit_creation_method            fapswitch 2.2
_symmetry_space_group_name_H-M    P1
_symmetry_Int_Tables_number       1
_space_group_crystal_system       triclinic
_cell_length_a                    20.270988
_cell_length_b                    22.718983
_cell_length_c                    6.940898
_cell_angle_alpha                 90.000615
_cell_angle_beta                  86.576509
_cell_angle_gamma                 89.999973
_cell_volume                      3190.83056513

loop_
_atom_site_label
_atom_site_type_symbol
_atom_type_description
_atom_site_fract_x
_atom_site_fract_y
_atom_site_fract_z
_atom_type_partial_charge
O1    O     O_R   0.751270 0.447300 0.600030 -0.506640
O2    O     O_R   0.248730 0.947300 0.399970 -0.506578
O3    O     O_R   0.613530 0.440160 0.952150 -0.538874
O4    O     O_R   0.386470 0.940160 0.047850 -0.538878
O5    O     O_R   0.613050 0.552700 0.122560 -0.537192
O6    O     O_R   0.386950 0.052700 0.877440 -0.537194
C1    C     C_R   0.591570 0.425417 0.787336 0.693128
C2    C     C_R   0.408430 0.925417 0.212661 0.693104
O7    O     O_R   0.750780 0.440350 0.929820 -0.542858
O8    O     O_R   0.249220 0.940350 0.070180 -0.542884
O9    O     O_R   0.751280 0.552900 0.100070 -0.544521
O10   O     O_R   0.248720 0.052900 0.899930 -0.544539
C3    C     C_R   0.774395 0.426484 0.756708 0.725138
C4    C     C_R   0.225607 0.926481 0.243292 0.725240
O11   O     O_R   0.613040 0.447100 0.622520 -0.537165
O12   O     O_R   0.386960 0.947100 0.377480 -0.537173
O13   O     O_3   0.682160 0.536920 0.777780 -0.375022
O14   O     O_3   0.317840 0.036920 0.222220 -0.375028
V1    V     V_3+5 0.682160 0.493150 0.052630 1.439434
V2    V     V_3+5 0.317840 0.993150 0.947370 1.439442
O15   O     O_R   0.750790 0.559840 0.429870 -0.543548
O16   O     O_R   0.249210 0.059840 0.570130 -0.543514
C5    C     C_R   0.773908 0.574049 0.257086 0.686808
C6    C     C_R   0.226092 0.074050 0.742915 0.686869
O17   O     O_R   0.613540 0.559650 0.452200 -0.538178
O18   O     O_R   0.386460 0.059650 0.547800 -0.538187
C7    C     C_R   0.591631 0.574417 0.287372 0.685773
C8    C     C_R   0.408369 0.074416 0.712631 0.685750
V3    V     V_3+5 0.682160 0.506850 0.552630 1.449372
V4    V     V_3+5 0.317840 0.006850 0.447370 1.449480
O19   O     O_3   0.682150 0.463080 0.277610 -0.353563
O20   O     O_3   0.317850 0.963080 0.722390 -0.353560
C9    C     C_R   0.578774 0.859981 0.150590 -0.158619
C10   C     C_R   0.421217 0.359992 0.849192 -0.158611
H1    H     H_    0.537477 0.946446 0.129892 0.107003
H2    H     H_    0.462513 0.446457 0.869885 0.107000
H3    H     H_    0.669499 0.775951 0.137424 0.128121
H4    H     H_    0.330487 0.275966 0.862250 0.128128
H5    H     H_    0.628395 0.875561 0.112641 0.114530
H6    H     H_    0.371591 0.375576 0.887034 0.114536
C11   C     C_R   0.462632 0.882097 0.210158 -0.039790
C12   C     C_R   0.537368 0.382097 0.789823 -0.039788
C13   C     C_R   0.473033 0.595963 0.337811 -0.167413
C14   C     C_R   0.526972 0.095956 0.662336 -0.167424
C15   C     C_R   0.419231 0.633967 0.349845 -0.117889
C16   C     C_R   0.580777 0.133957 0.650366 -0.117892
C17   C     C_R   0.427757 0.694048 0.316449 -0.154892
C18   C     C_R   0.572250 0.194040 0.683707 -0.154895
C19   C     C_R   0.491114 0.717974 0.269140 0.077079
C20   C     C_R   0.508887 0.217972 0.730891 0.077079
C21   C     C_R   0.546273 0.678422 0.254991 0.068216
C22   C     C_R   0.453725 0.178424 0.744966 0.068217
C23   C     C_R   0.501542 0.779715 0.235737 0.073364
C24   C     C_R   0.498458 0.279716 0.764243 0.073368
C25   C     C_R   0.566759 0.800027 0.187055 0.138648
C26   C     C_R   0.433235 0.300035 0.812793 0.138643
C27   C     C_R   0.619728 0.760507 0.174144 -0.198732
C28   C     C_R   0.380262 0.260518 0.825631 -0.198729
C29   C     C_R   0.609806 0.700789 0.207917 -0.193468
C30   C     C_R   0.390186 0.200797 0.791914 -0.193458
C31   C     C_R   0.449804 0.822234 0.247965 -0.213205
C32   C     C_R   0.550199 0.322231 0.752088 -0.213200
C33   C     C_R   0.527127 0.900504 0.160820 -0.172368
C34   C     C_R   0.472867 0.400512 0.839023 -0.172377
C35   C     C_R   0.536617 0.617221 0.290179 -0.084716
C36   C     C_R   0.463383 0.117220 0.709839 -0.084699
H7    H     H_    0.399090 0.810391 0.283955 0.095804
H8    H     H_    0.600918 0.310383 0.716198 0.095794
H9    H     H_    0.465048 0.549520 0.366284 0.105777
H10   H     H_    0.534959 0.049509 0.633919 0.105771
H11   H     H_    0.383663 0.720531 0.329008 0.110313
H12   H     H_    0.616346 0.220520 0.671206 0.110309
H13   H     H_    0.370290 0.616713 0.386426 0.120964
H14   H     H_    0.629722 0.116697 0.613883 0.120961
H15   H     H_    0.652564 0.672154 0.196378 0.112528
H16   H     H_    0.347426 0.172165 0.803395 0.112504
C37   C     C_R   0.169275 0.883851 0.263489 -0.154699
C38   C     C_R   0.830734 0.383861 0.736517 -0.154783
C39   C     C_R   0.148603 0.853701 0.100241 -0.289258
C40   C     C_R   0.851400 0.353707 0.899764 -0.289060
C41   C     C_R   0.095592 0.814014 0.114970 -0.146632
C42   C     C_R   0.904411 0.314019 0.885037 -0.146548
C43   C     C_R   0.062026 0.802811 0.295205 0.367500
C44   C     C_R   0.937986 0.302823 0.704809 0.367407
C45   C     C_R   0.082666 0.832333 0.457875 -0.271006
C46   C     C_R   0.917357 0.332354 0.542145 -0.270915
C47   C     C_R   0.134623 0.873426 0.443946 0.434444
C48   C     C_R   0.865399 0.373443 0.556072 0.434339
C49   C     C_R   0.907424 0.683202 0.383446 -0.145141
C50   C     C_R   0.092537 0.183164 0.616565 -0.145157
C51   C     C_R   0.855011 0.642954 0.401917 -0.224522
C52   C     C_R   0.144946 0.142911 0.598090 -0.224455
C53   C     C_R   0.935488 0.698908 0.199199 0.425544
C54   C     C_R   0.064528 0.198924 0.800814 0.425540
N1    N     N_2   0.008218 0.762266 0.321658 -0.297667
N2    N     N_2   0.991791 0.262275 0.678355 -0.297658
N3    N     N_2   0.989324 0.739420 0.170639 -0.306644
N4    N     N_2   0.010697 0.239443 0.829378 -0.306627
C55   C     C_R   0.829130 0.617397 0.237747 -0.054068
C56   C     C_R   0.170875 0.117401 0.762257 -0.054058
H17   H     H_    0.834871 0.631819 0.545286 0.131880
H18   H     H_    0.165042 0.131731 0.454720 0.131869
H19   H     H_    0.925858 0.701687 0.513530 0.134215
H20   H     H_    0.074063 0.201607 0.486485 0.134210
H21   H     H_    0.057940 0.823499 0.597623 0.136376
H22   H     H_    0.942096 0.323539 0.402403 0.136482
C57   C     C_R   0.857176 0.633210 0.054579 -0.205887
C58   C     C_R   0.142881 0.133269 0.945427 -0.205907
C59   C     C_R   0.909625 0.673343 0.036157 -0.187345
C60   C     C_R   0.090438 0.173407 0.963854 -0.187328
H23   H     H_    0.838823 0.614408 0.924793 0.130910
H24   H     H_    0.161274 0.114507 0.075212 0.130935
H25   H     H_    0.081546 0.791884 0.985500 0.154329
H26   H     H_    0.918449 0.291882 0.014502 0.154337
H27   H     H_    0.930345 0.684593 0.893464 0.119632
H28   H     H_    0.069760 0.184700 0.106549 0.119624
H29   H     H_    0.173872 0.860394 0.960299 0.208321
H30   H     H_    0.826125 0.360395 0.039703 0.208290
O21   O     O_3   0.153927 0.900369 0.610051 -0.550926
C61   C     C_3   0.109695 0.946673 0.658629 -0.225349
H31   H     H_    0.059089 0.929820 0.697197 0.129053
H32   H     H_    0.108604 0.979571 0.539860 0.119722
H33   H     H_    0.126990 0.969673 0.787306 0.153567
O22   O     O_3   0.846127 0.400392 0.389946 -0.550965
C62   C     C_3   0.890205 0.446856 0.341962 -0.224946
H34   H     H_    0.940959 0.430210 0.304353 0.128865
H35   H     H_    0.890871 0.479795 0.460683 0.119762
H36   H     H_    0.873069 0.469734 0.212864 0.153466

loop_
_geom_bond_atom_site_label_1
_geom_bond_atom_site_label_2
_ccdc_geom_bond_type
C9    C25   A    
C5    C55   S    
C10   C26   A    
O11   V3    S    
C29   H15   S    
O13   V3    S    
C14   C36   A    
C11   C31   A    
C48   O22   S    
V1    O19   S    
C17   C19   A    
O9    V1    S    
C9    H5    S    
C10   H6    S    
C18   H12   S    
C60   H28   S    
O3    C1    A    
C44   N2    S    
C38   C40   A    
C4    C37   S    
C54   N4    S    
C28   C30   A    
C46   C48   A    
C15   H13   S    
C21   C35   A    
C15   C17   A    
O4    C2    A    
O7    C3    A    
C22   C30   A    
H4    C28   S    
C23   C31   A    
O7    V1    S    
O6    C8    A    
C26   C28   A    
C19   C21   A    
N2    N4    D    
C62   H36   S    
C20   C22   A    
O3    V1    S    
O14   V4    S    
C49   C51   A    
C12   C32   A    
C61   H33   S    
C52   H18   S    
C18   C20   A    
C2    O12   A    
O5    C7    A    
C49   H19   S    
C57   C59   A    
C46   H22   S    
C51   H17   S    
C45   H21   S    
O1    V3    S    
C41   C43   A    
C61   H32   S    
C50   C54   A    
C40   H30   S    
C23   C25   A    
O17   V3    S    
C24   C26   A    
C9    C33   A    
C56   C58   A    
C45   C47   A    
C2    C11   S    
C42   H26   S    
C40   C42   A    
O8    C4    A    
O8    V2    S    
C39   C41   A    
C1    O11   A    
C24   C32   A    
O15   V3    S    
C30   H16   S    
C58   H24   S    
C8    C36   S    
C1    C12   S    
C47   O21   S    
C7    C35   S    
C31   H7    S    
C50   C52   A    
C13   C35   A    
C43   N1    S    
O10   V2    S    
C10   C34   A    
C37   C39   A    
C20   C24   A    
C14   H10   S    
C13   C15   A    
C50   H20   S    
C43   C45   A    
O18   V4    S    
C42   C44   A    
O15   C5    A    
C62   H34   S    
O16   C6    A    
O1    C3    A    
C17   H11   S    
C53   N3    S    
C16   H14   S    
C22   C36   A    
C61   H31   S    
C52   C56   A    
V2    O20   S    
C38   C48   A    
C3    C38   S    
O16   V4    S    
C6    C56   S    
C57   H23   S    
C44   C46   A    
C12   C34   A    
O21   C61   S    
N1    N3    D    
O5    V1    S    
O17   C7    A    
C55   C57   A    
O10   C6    A    
O18   C8    A    
C32   H8    S    
O2    V4    S    
C25   C27   A    
V3    O19   S    
V4    O20   S    
C58   C60   A    
O6    V2    S    
C19   C23   A    
C39   H29   S    
O9    C5    A    
O13   V1    S    
C54   C60   A    
O14   V2    S    
C49   C53   A    
O2    C4    A    
C27   C29   A    
C59   H27   S    
O4    V2    S    
C16   C18   A    
C21   C29   A    
C37   C47   A    
C13   H9    S    
C41   H25   S    
C62   H35   S    
C11   C33   A    
H1    C33   S    
C51   C55   A    
H2    C34   S    
O12   V4    S    
C14   C16   A    
H3    C27   S    
C53   C59   A    
O22   C62   S    
