data_mof_unit_6523.cif
_audit_creation_date              2012-12-10T18:53:49-0500
_audit_creation_method            fapswitch 2.2
_symmetry_space_group_name_H-M    P1
_symmetry_Int_Tables_number       1
_space_group_crystal_system       triclinic
_cell_length_a                    19.477329
_cell_length_b                    18.137031
_cell_length_c                    10.860818
_cell_angle_alpha                 89.368683
_cell_angle_beta                  89.956252
_cell_angle_gamma                 90.087433
_cell_volume                      3836.46401991

loop_
_atom_site_label
_atom_site_type_symbol
_atom_type_description
_atom_site_fract_x
_atom_site_fract_y
_atom_site_fract_z
_atom_type_partial_charge
C1    C     C_R   0.367349 0.500240 0.501811 0.764603
C2    C     C_R   0.632566 0.500214 0.501727 0.796954
C3    C     C_R   0.819693 0.557826 0.533463 -0.162306
C4    C     C_R   0.180374 0.559888 0.529085 -0.166686
C5    C     C_R   0.747974 0.562300 0.537422 0.178067
C6    C     C_R   0.252131 0.564715 0.529957 0.178968
C7    C     C_R   0.708374 0.500050 0.502161 -0.055683
C8    C     C_R   0.291466 0.500074 0.508007 -0.049301
C9    C     C_R   0.964640 0.547080 0.435697 -0.181924
C10   C     C_R   0.035984 0.547017 0.438093 -0.182848
C11   C     C_R   0.071575 0.490301 0.499505 0.110855
C12   C     C_R   0.927753 0.490086 0.493598 0.109385
C13   C     C_R   0.034609 0.432261 0.554963 -0.179365
C14   C     C_R   0.963058 0.432046 0.551640 -0.177829
C15   C     C_R   0.472543 0.720037 0.597621 0.069852
C16   C     C_R   0.526627 0.722138 0.402483 0.079179
C17   C     C_R   0.472669 0.797255 0.600910 -0.303805
C18   C     C_R   0.525742 0.799504 0.400448 -0.310124
C19   C     C_R   0.499047 0.838103 0.501090 0.162589
C20   C     C_R   0.561713 0.960108 0.518962 0.062564
C21   C     C_R   0.436686 0.960654 0.487586 0.062349
C22   C     C_R   0.495942 0.500553 0.262618 0.822465
C23   C     C_R   0.496794 0.499365 0.738184 0.807903
C24   C     C_R   0.562427 0.038694 0.511504 0.125681
C25   C     C_R   0.436595 0.039150 0.495110 0.126469
C26   C     C_R   0.499666 0.078554 0.502889 0.038411
C27   C     C_R   0.499128 0.921013 0.502404 -0.041610
C28   C     C_R   0.477688 0.201562 0.398009 -0.293128
C29   C     C_R   0.522338 0.201136 0.604738 -0.296038
C30   C     C_R   0.477060 0.278915 0.399750 0.066348
C31   C     C_R   0.523288 0.278506 0.600916 0.058874
C32   C     C_R   0.499919 0.161539 0.501904 0.151393
C33   C     C_R   0.516353 0.558118 0.061505 0.037916
C34   C     C_R   0.514919 0.558471 0.935495 0.054981
C35   C     C_R   0.484739 0.502779 0.130447 -0.144705
C36   C     C_R   0.487423 0.499063 0.871842 -0.183413
C37   C     C_R   0.440437 0.452742 0.069502 0.050826
C38   C     C_R   0.447221 0.445418 0.938706 0.054650
C39   C     C_3   0.584614 0.593984 0.926982 -0.028164
C40   C     C_3   0.585823 0.593456 0.067976 -0.038552
C41   C     C_R   0.742194 0.435095 0.466931 -0.230397
C42   C     C_R   0.257190 0.432637 0.491484 -0.258130
C43   C     C_R   0.813466 0.431510 0.464882 -0.178409
C44   C     C_R   0.185936 0.429041 0.490357 -0.182393
C45   C     C_R   0.852484 0.493001 0.497076 0.060543
C46   C     C_R   0.147047 0.492840 0.506970 0.070531
Cu1   Cu    Cu3+1 0.500000 0.573360 0.500000 0.923384
Cu2   Cu    Cu3+1 0.500000 0.426640 0.500000 0.921346
H1    H     H_    0.450507 0.689398 0.673873 0.128795
H2    H     H_    0.548607 0.693036 0.325687 0.116613
H3    H     H_    0.451605 0.825067 0.680138 0.124494
H4    H     H_    0.546560 0.829151 0.321753 0.124176
H5    H     H_    0.459958 0.173042 0.316892 0.140238
H6    H     H_    0.540142 0.172283 0.686469 0.142457
H7    H     H_    0.458308 0.308659 0.320238 0.118256
H8    H     H_    0.543022 0.308007 0.679123 0.119942
H9    H     H_    0.623474 0.557802 0.882912 0.164061
H10   H     H_    0.583926 0.649013 0.110257 0.166427
H11   H     H_    0.713452 0.386792 0.439616 0.163938
H12   H     H_    0.285566 0.382418 0.474869 0.169223
H13   H     H_    0.838194 0.381055 0.436235 0.136017
H14   H     H_    0.161317 0.376648 0.472646 0.134751
H15   H     H_    0.850472 0.604775 0.560560 0.129132
H16   H     H_    0.150040 0.608794 0.545956 0.126553
H17   H     H_    0.938138 0.591731 0.388855 0.129604
H18   H     H_    0.063367 0.591451 0.392089 0.128134
H19   H     H_    0.060918 0.388211 0.603630 0.126368
H20   H     H_    0.935245 0.387861 0.597508 0.129306
N1    N     N_R   0.500000 0.683620 0.500000 -0.168239
N2    N     N_R   0.500000 0.316380 0.500000 -0.164474
O1    O     O_R   0.400190 0.561980 0.499980 -0.574145
O2    O     O_R   0.599810 0.561980 0.500020 -0.577269
O3    O     O_R   0.400190 0.438070 0.500040 -0.593649
O4    O     O_R   0.599810 0.438070 0.499960 -0.578517
O5    O     O_R   0.500000 0.561960 0.319660 -0.586538
O6    O     O_R   0.500000 0.561960 0.680340 -0.587861
O7    O     O_R   0.500000 0.438060 0.319720 -0.597416
O8    O     O_R   0.500000 0.438060 0.680280 -0.596286
C47   C     C_3   0.385103 0.411026 0.142921 -0.385154
C48   C     C_3   0.312279 0.424528 0.091579 -0.367822
C49   C     C_3   0.257795 0.428108 0.191804 -0.848125
H21   H     H_    0.258911 0.376985 0.248918 0.254338
H22   H     H_    0.266785 0.477224 0.249624 0.265724
H23   H     H_    0.206199 0.433311 0.149187 0.244777
H24   H     H_    0.310304 0.477196 0.038278 0.227985
H25   H     H_    0.297904 0.378123 0.031145 0.224311
H26   H     H_    0.396447 0.351113 0.144880 0.159246
H27   H     H_    0.384821 0.428328 0.240334 0.217203
C50   C     C_3   0.417820 0.377486 0.876033 -0.377100
C51   C     C_3   0.356312 0.394709 0.792393 -0.315294
C52   C     C_3   0.328165 0.324264 0.735367 -0.840108
H28   H     H_    0.365986 0.301193 0.669621 0.264895
H29   H     H_    0.316661 0.282477 0.808052 0.239155
H30   H     H_    0.279703 0.336374 0.685840 0.242573
H31   H     H_    0.314609 0.422250 0.843167 0.195335
H32   H     H_    0.371484 0.433638 0.719219 0.232322
H33   H     H_    0.458781 0.349442 0.823821 0.203669
H34   H     H_    0.402055 0.334933 0.944091 0.183233
C53   C     C_3   0.627127 0.917305 0.550554 -0.380599
C54   C     C_3   0.629342 0.898024 0.688423 -0.331105
C55   C     C_3   0.689582 0.847338 0.718843 -0.868661
H35   H     H_    0.684304 0.794474 0.668999 0.262116
H36   H     H_    0.738862 0.874155 0.692670 0.251800
H37   H     H_    0.690279 0.835250 0.819282 0.240247
H38   H     H_    0.634322 0.949540 0.742229 0.212896
H39   H     H_    0.581175 0.869977 0.717302 0.226429
H40   H     H_    0.630847 0.866481 0.495410 0.200427
H41   H     H_    0.674487 0.947962 0.526335 0.197267
C56   C     C_3   0.370589 0.918787 0.458091 -0.380604
C57   C     C_3   0.365862 0.903290 0.319850 -0.335309
C58   C     C_3   0.302670 0.856929 0.290243 -0.861472
H42   H     H_    0.305384 0.802761 0.338796 0.256956
H43   H     H_    0.255197 0.886091 0.318551 0.250605
H44   H     H_    0.300376 0.847146 0.189593 0.240575
H45   H     H_    0.362951 0.956336 0.267868 0.213774
H46   H     H_    0.412259 0.873305 0.288575 0.224769
H47   H     H_    0.367476 0.866408 0.511080 0.200126
H48   H     H_    0.323930 0.948866 0.486605 0.198205
C59   C     C_3   0.630827 0.079097 0.510353 -0.891459
H49   H     H_    0.626917 0.139168 0.493605 0.245125
H50   H     H_    0.657512 0.070476 0.599639 0.230743
H51   H     H_    0.663147 0.058316 0.434034 0.223786
C60   C     C_3   0.368507 0.079975 0.497221 -0.894143
H52   H     H_    0.372980 0.139916 0.512886 0.242574
H53   H     H_    0.341068 0.072193 0.408748 0.231241
H54   H     H_    0.336597 0.058847 0.574668 0.223936
C61   C     C_3   0.582509 0.671750 0.870741 -0.885009
H55   H     H_    0.631593 0.700559 0.890105 0.235907
H56   H     H_    0.576361 0.668542 0.769513 0.261245
H57   H     H_    0.539449 0.704474 0.909123 0.232741
C62   C     C_3   0.641835 0.543682 0.122606 -0.878121
H58   H     H_    0.636556 0.540907 0.224283 0.238830
H59   H     H_    0.638632 0.486950 0.085284 0.236743
H60   H     H_    0.693067 0.567164 0.100236 0.239797
C63   C     C_3   0.716202 0.632868 0.582704 -0.867463
H61   H     H_    0.755594 0.672297 0.615840 0.214735
H62   H     H_    0.687730 0.660720 0.506947 0.247603
H63   H     H_    0.681236 0.620720 0.661080 0.240636
C64   C     C_3   0.284002 0.638933 0.555671 -0.858811
H64   H     H_    0.244720 0.681105 0.577848 0.211399
H65   H     H_    0.318962 0.634616 0.636137 0.232726
H66   H     H_    0.312400 0.659295 0.473383 0.249267

loop_
_geom_bond_atom_site_label_1
_geom_bond_atom_site_label_2
_ccdc_geom_bond_type
C63   H63   S    
C26   C32   S    
C55   H35   S    
C1    C8    S    
C11   C13   A    
C2    C7    S    
C23   O6    A    
C62   H60   S    
C17   H3    S    
C47   H26   S    
C49   H21   S    
C18   H4    S    
C60   H52   S    
C4    C46   A    
C15   H1    S    
C22   C35   S    
C37   C47   S    
C38   C50   S    
C54   H38   S    
C1    O1    A    
C35   C37   A    
C37   C38   A    
C8    C42   A    
Cu1   O6    S    
C29   C32   A    
C33   C35   A    
C64   H66   S    
C60   H53   S    
C29   H6    S    
C39   H9    S    
C5    C63   S    
C18   C19   A    
Cu2   O8    S    
C6    C64   S    
C20   C24   A    
C57   C58   S    
Cu1   N1    S    
C48   H25   S    
C49   H22   S    
C31   N2    A    
C58   H42   S    
C31   H8    S    
C19   C27   S    
C9    C10   A    
C2    O4    A    
C3    C5    A    
C59   H50   S    
C21   C27   A    
C55   H36   S    
C63   H62   S    
C13   C14   A    
C41   C43   A    
C42   C44   A    
C22   O5    A    
C2    O2    A    
C47   H27   S    
C30   N2    A    
C44   C46   A    
C56   H48   S    
C10   H18   S    
C15   N1    A    
C33   C40   S    
C40   H10   S    
C56   H47   S    
C34   C39   S    
Cu2   O4    S    
C63   H61   S    
C39   C61   S    
C41   H11   S    
C4    C6    A    
C42   H12   S    
C52   H28   S    
C5    C7    A    
C12   C45   S    
C60   H54   S    
C6    C8    A    
C44   H14   S    
C25   C26   A    
C3    C45   A    
C50   H33   S    
Cu2   O7    S    
C61   H56   S    
C48   H24   S    
C53   H41   S    
C52   H29   S    
C25   C60   S    
Cu1   Cu2   S    
C28   C32   A    
C59   H49   S    
C33   C34   A    
C58   H43   S    
C28   H5    S    
C43   C45   A    
Cu1   O1    S    
C40   C62   S    
C12   C14   A    
C55   H37   S    
C62   H58   S    
C57   H46   S    
C39   C40   S    
C49   H23   S    
C43   H13   S    
C13   H19   S    
C59   H51   S    
C15   C17   A    
C21   C25   A    
C24   C59   S    
Cu2   O3    S    
C16   N1    A    
C24   C26   A    
C22   O7    A    
Cu2   N2    S    
C48   C49   S    
C62   H59   S    
C51   H31   S    
C21   C56   S    
C64   H64   S    
C51   H32   S    
C20   C27   A    
C3    H15   S    
C53   H40   S    
C30   H7    S    
C4    H16   S    
C54   H39   S    
C53   C54   S    
C50   H34   S    
C1    O3    A    
C28   C30   A    
C61   H57   S    
Cu1   O5    S    
C29   C31   A    
C56   C57   S    
C52   H30   S    
C64   H65   S    
C51   C52   S    
C20   C53   S    
C36   C38   A    
C54   C55   S    
C17   C19   A    
C58   H44   S    
C34   C36   A    
C7    C41   A    
C23   O8    A    
C16   H2    S    
C9    C12   A    
C9    H17   S    
Cu1   O2    S    
C10   C11   A    
C47   C48   S    
C16   C18   A    
C23   C36   S    
C14   H20   S    
C11   C46   S    
C50   C51   S    
C57   H45   S    
C61   H55   S    
