data_mof_unit_45961.cif
_audit_creation_date              2012-12-10T17:44:21-0500
_audit_creation_method            fapswitch 2.2
_symmetry_space_group_name_H-M    P1
_symmetry_Int_Tables_number       1
_space_group_crystal_system       triclinic
_cell_length_a                    13.687419
_cell_length_b                    15.088859
_cell_length_c                    17.344112
_cell_angle_alpha                 89.909429
_cell_angle_beta                  85.809232
_cell_angle_gamma                 90.140331
_cell_volume                      3572.44301145

loop_
_atom_site_label
_atom_site_type_symbol
_atom_type_description
_atom_site_fract_x
_atom_site_fract_y
_atom_site_fract_z
_atom_type_partial_charge
C1    C     C_R   0.500177 0.671495 0.499644 0.815641
C2    C     C_R   0.499818 0.328498 0.500521 0.816335
C3    C     C_R   0.411354 0.185392 0.516586 -0.254235
C4    C     C_R   0.588778 0.814583 0.484646 -0.254139
C5    C     C_R   0.499407 0.231705 0.501390 -0.065994
C6    C     C_R   0.500631 0.768274 0.499256 -0.065733
C7    C     C_R   0.587141 0.185705 0.486951 -0.234936
C8    C     C_R   0.412929 0.814267 0.513761 -0.235152
C9    C     C_R   0.587706 0.093519 0.486485 0.081694
C10   C     C_R   0.412470 0.906447 0.514665 0.081739
C11   C     C_R   0.499251 0.046402 0.501199 0.037676
C12   C     C_R   0.500950 0.953572 0.500167 0.037728
C13   C     C_R   0.409439 0.092318 0.516979 0.068544
C14   C     C_R   0.590770 0.907649 0.484547 0.068504
C15   C     C_R   0.676160 0.048643 0.470990 -0.221228
C16   C     C_R   0.324092 0.951292 0.530436 -0.221171
C17   C     C_R   0.679772 0.955573 0.469361 0.087915
C18   C     C_R   0.320525 0.044352 0.532546 0.088290
C19   C     C_R   0.211381 0.554623 0.450860 0.024327
C20   C     C_R   0.788608 0.445703 0.549407 0.022434
C21   C     C_R   0.202578 0.445229 0.549388 -0.009984
C22   C     C_R   0.797461 0.554455 0.450313 -0.005160
C23   C     C_R   0.487079 0.498688 0.650042 0.805918
C24   C     C_R   0.512888 0.501577 0.349965 0.805762
C25   C     C_R   0.098725 0.443960 0.551956 -0.021205
C26   C     C_R   0.901301 0.555867 0.447850 -0.031665
C27   C     C_R   0.051794 0.499922 0.500510 0.052638
C28   C     C_R   0.948194 0.500341 0.499673 0.048034
C29   C     C_R   0.108648 0.555494 0.449666 -0.028639
C30   C     C_R   0.891342 0.444887 0.550640 -0.018358
C31   C     C_R   0.040488 0.388684 0.603618 0.104477
C32   C     C_R   0.959625 0.610676 0.395827 0.159732
C33   C     C_R   0.937645 0.389802 0.601887 -0.241428
C34   C     C_R   0.062390 0.610335 0.398240 -0.248405
C35   C     C_R   0.479630 0.494121 0.734410 -0.046873
C36   C     C_R   0.520108 0.507679 0.265660 -0.045000
C37   C     C_R   0.563743 0.477955 0.773517 -0.202031
C38   C     C_R   0.435749 0.524349 0.226988 -0.201978
C39   C     C_R   0.557699 0.473716 0.853503 -0.160107
C40   C     C_R   0.441564 0.530745 0.147126 -0.160926
C41   C     C_R   0.467651 0.486837 0.895988 0.133178
C42   C     C_R   0.531649 0.519362 0.104254 0.133533
C43   C     C_R   0.382212 0.500700 0.856919 0.018484
C44   C     C_R   0.617386 0.505382 0.142954 0.019817
C45   C     C_R   0.388738 0.504369 0.776307 -0.233089
C46   C     C_R   0.611024 0.499270 0.223468 -0.242109
C47   C     C_2   0.463473 0.485929 0.980814 -0.217695
C48   C     C_2   0.535402 0.521281 0.019416 -0.218389
Cu1   Cu    Cu3+1 0.402580 0.500010 0.500000 0.937524
Cu2   Cu    Cu3+1 0.597420 0.499990 0.500000 0.937396
H1    H     H_    0.634366 0.468027 0.742349 0.153921
H2    H     H_    0.365073 0.533031 0.258406 0.153415
H3    H     H_    0.256002 0.597220 0.412205 0.122834
H4    H     H_    0.743985 0.403210 0.588153 0.122832
H5    H     H_    0.242001 0.402929 0.586538 0.139360
H6    H     H_    0.758095 0.596523 0.412946 0.131132
H7    H     H_    0.893168 0.347659 0.641189 0.133958
H8    H     H_    0.106896 0.652181 0.358700 0.137721
H9    H     H_    0.676747 0.486938 0.253034 0.149658
H10   H     H_    0.323177 0.516393 0.746424 0.154045
H11   H     H_    0.599574 0.550054 0.988298 0.161624
H12   H     H_    0.399302 0.457053 0.011843 0.160949
H13   H     H_    0.375310 0.545042 0.118979 0.144048
H14   H     H_    0.623694 0.459623 0.882067 0.144993
H15   H     H_    0.344795 0.222973 0.528282 0.146603
H16   H     H_    0.655341 0.776987 0.473065 0.146942
H17   H     H_    0.655270 0.221765 0.475172 0.152905
H18   H     H_    0.344751 0.778202 0.525264 0.152663
H19   H     H_    0.741997 0.087752 0.460085 0.135590
H20   H     H_    0.258286 0.912124 0.541232 0.135334
N1    N     N_R   0.256180 0.500070 0.500030 -0.185145
N2    N     N_R   0.743820 0.499930 0.499970 -0.184598
O1    O     O_R   0.417720 0.629750 0.499980 -0.590410
O2    O     O_R   0.582280 0.370250 0.500020 -0.589937
O3    O     O_R   0.582260 0.629730 0.499990 -0.588772
O4    O     O_R   0.417740 0.370270 0.500010 -0.588537
O5    O     O_R   0.408190 0.500030 0.613590 -0.591952
O6    O     O_R   0.591810 0.499970 0.386410 -0.592887
O7    O     O_R   0.572730 0.500000 0.613600 -0.588158
O8    O     O_R   0.427270 0.500000 0.386400 -0.588116
C49   C     C_3   0.085004 0.327617 0.660894 -0.433173
C50   C     C_3   0.119559 0.379231 0.730116 -0.333842
C51   C     C_3   0.174429 0.318869 0.782750 -0.827690
H21   H     H_    0.126840 0.262879 0.803898 0.254306
H22   H     H_    0.241483 0.292319 0.751013 0.248019
H23   H     H_    0.196388 0.357040 0.833333 0.255593
H24   H     H_    0.168613 0.434788 0.710560 0.213195
H25   H     H_    0.054949 0.407810 0.763782 0.230563
H26   H     H_    0.029988 0.277920 0.683429 0.196130
H27   H     H_    0.145955 0.289264 0.631347 0.187411
C52   C     C_3   0.915666 0.669244 0.336237 -0.423615
C53   C     C_3   0.880794 0.615698 0.268018 -0.352233
C54   C     C_3   0.966136 0.575308 0.218382 -0.757542
H28   H     H_    0.018066 0.627877 0.196641 0.242077
H29   H     H_    0.005556 0.526222 0.252312 0.254148
H30   H     H_    0.937769 0.540851 0.168094 0.252803
H31   H     H_    0.830035 0.561925 0.288802 0.210836
H32   H     H_    0.839836 0.660617 0.231158 0.211760
H33   H     H_    0.853992 0.708109 0.364043 0.152530
H34   H     H_    0.969951 0.719259 0.313046 0.194098
C55   C     C_1   0.287972 0.514455 0.898229 0.185493
N3    N     N_1   0.212463 0.525468 0.931300 -0.287209
C56   C     C_1   0.711833 0.494158 0.101299 0.193561
N4    N     N_1   0.787445 0.485139 0.067862 -0.294702
C57   C     C_3   0.776521 0.906648 0.451373 -0.409339
C58   C     C_3   0.868047 0.964930 0.434783 -0.345685
C59   C     C_3   0.959186 0.908584 0.416436 -0.860333
H35   H     H_    0.971999 0.863952 0.465677 0.254876
H36   H     H_    0.950638 0.868452 0.363806 0.248714
H37   H     H_    0.023980 0.952414 0.405463 0.242674
H38   H     H_    0.858097 0.008594 0.384277 0.222010
H39   H     H_    0.880127 0.006417 0.486105 0.220546
H40   H     H_    0.789632 0.863160 0.501386 0.199486
H41   H     H_    0.768635 0.864145 0.399857 0.192646
C60   C     C_3   0.223913 0.093130 0.551592 -0.410429
C61   C     C_3   0.132681 0.034558 0.568634 -0.344966
C62   C     C_3   0.041719 0.090427 0.588937 -0.861678
H42   H     H_    0.050604 0.128013 0.642891 0.250666
H43   H     H_    0.028827 0.137276 0.541275 0.255462
H44   H     H_    0.976850 0.046424 0.598587 0.243169
H45   H     H_    0.119632 0.993960 0.516990 0.220502
H46   H     H_    0.143692 0.990036 0.618378 0.222268
H47   H     H_    0.232503 0.135290 0.603213 0.194767
H48   H     H_    0.209990 0.136934 0.501972 0.198426

loop_
_geom_bond_atom_site_label_1
_geom_bond_atom_site_label_2
_ccdc_geom_bond_type
C25   C31   A    
C38   C40   A    
C45   H10   S    
C26   C32   A    
C54   H28   S    
C46   H9    S    
C27   C29   A    
C41   C43   A    
C19   N1    A    
Cu2   O7    S    
C47   H12   S    
C49   C50   S    
C53   H32   S    
C39   C41   A    
C58   H39   S    
C39   H14   S    
C24   C36   S    
C40   H13   S    
C61   H46   S    
C13   C18   A    
C21   N1    A    
C57   H40   S    
C35   C37   A    
C62   H43   S    
C37   H1    S    
C32   C52   S    
C38   H2    S    
C58   C59   S    
C50   H24   S    
C61   C62   S    
C7    C9    A    
Cu1   Cu2   S    
Cu2   N2    S    
C24   O8    A    
C51   H21   S    
C59   H35   S    
C31   C33   A    
C36   C46   A    
C52   H34   S    
C3    C13   A    
C49   H26   S    
C19   H3    S    
C40   C42   A    
C54   H29   S    
C59   H36   S    
C14   C17   A    
C3    H15   S    
C42   C44   A    
Cu2   O6    S    
C22   N2    A    
C44   C56   S    
C44   C46   A    
C53   H31   S    
C58   H38   S    
C15   H19   S    
C60   H47   S    
C61   H45   S    
C1    C6    S    
C1    O3    A    
C55   N3    T    
C57   H41   S    
C16   H20   S    
C4    C6    A    
C62   H44   S    
C52   C53   S    
C5    C7    A    
C22   H6    S    
C20   H4    S    
C29   C34   A    
C32   C34   A    
C43   C55   S    
C17   C57   S    
C43   C45   A    
C47   C48   D    
C41   C47   S    
Cu1   O4    S    
C16   C18   A    
C42   C48   S    
C23   O5    A    
C9    C11   A    
C10   C12   A    
C49   H27   S    
C24   O6    A    
C51   H22   S    
C12   C14   A    
C8    H18   S    
C54   H30   S    
C23   C35   S    
Cu1   N1    S    
C59   H37   S    
Cu1   O1    S    
C2    C5    S    
C36   C38   A    
C19   C29   A    
C27   C28   A    
C2    O4    A    
C21   H5    S    
C15   C17   A    
C21   C25   A    
C33   H7    S    
C60   H48   S    
C30   C33   A    
C3    C5    A    
C2    O2    A    
C18   C60   S    
C6    C8    A    
C11   C12   A    
C23   O7    A    
C25   C27   A    
C57   C58   S    
C26   C28   A    
C31   C49   S    
Cu1   O8    S    
C1    O1    A    
Cu2   O2    S    
C9    C15   A    
C37   C39   A    
C10   C16   A    
C62   H42   S    
C20   C30   A    
C4    H16   S    
C11   C13   A    
C48   H11   S    
C50   H25   S    
C28   C30   A    
C53   C54   S    
Cu1   O5    S    
C4    C14   A    
C7    H17   S    
C51   H23   S    
C8    C10   A    
C50   C51   S    
C22   C26   A    
C56   N4    T    
C34   H8    S    
C20   N2    A    
C52   H33   S    
Cu2   O3    S    
C60   C61   S    
C35   C45   A    
