data_mof_unit_60798.cif
_audit_creation_date              2012-12-10T20:16:02-0500
_audit_creation_method            fapswitch 2.2
_symmetry_space_group_name_H-M    P1
_symmetry_Int_Tables_number       1
_space_group_crystal_system       triclinic
_cell_length_a                    16.785187
_cell_length_b                    18.513085
_cell_length_c                    19.310034
_cell_angle_alpha                 90.349567
_cell_angle_beta                  90.456424
_cell_angle_gamma                 85.208105
_cell_volume                      5979.25563601

loop_
_atom_site_label
_atom_site_type_symbol
_atom_type_description
_atom_site_fract_x
_atom_site_fract_y
_atom_site_fract_z
_atom_type_partial_charge
C1    C     C_R   0.500371 0.500207 0.634351 1.005669
C2    C     C_R   0.529427 0.559123 0.819418 0.356189
C3    C     C_R   0.553736 0.442531 0.256177 0.269988
C4    C     C_R   0.533713 0.557607 0.746438 0.265413
C5    C     C_R   0.506383 0.498306 0.291018 -0.333465
C6    C     C_R   0.500460 0.501005 0.709755 -0.288359
C7    C     C_R   0.574044 0.498566 0.036081 0.725206
C8    C     C_R   0.428414 0.493047 0.964989 0.667435
C9    C     C_R   0.572497 0.500506 0.964421 -0.269668
C10   C     C_R   0.430034 0.490650 0.036739 -0.337367
C11   C     C_R   0.499813 0.498115 0.928841 -0.044891
C12   C     C_R   0.501784 0.499630 0.365928 0.941497
C13   C     C_R   0.502748 0.493215 0.072233 -0.044486
C14   C     C_R   0.463860 0.274035 0.447816 0.484655
C15   C     C_R   0.543361 0.721361 0.451118 0.533372
C16   C     C_R   0.652881 0.489990 0.503924 0.907847
C17   C     C_R   0.346686 0.510118 0.499641 0.939411
C18   C     C_R   0.469913 0.198010 0.445101 0.318833
C19   C     C_R   0.542832 0.798010 0.448331 0.196993
C20   C     C_R   0.508408 0.157533 0.499579 -0.199138
C21   C     C_R   0.500490 0.841109 0.499394 -0.135527
C22   C     C_R   0.544944 0.195415 0.553068 0.257558
C23   C     C_R   0.460100 0.551382 0.253657 0.629994
C24   C     C_R   0.457596 0.806198 0.550095 0.246510
C25   C     C_R   0.540295 0.272906 0.552104 0.410918
C26   C     C_R   0.458579 0.729106 0.549624 0.390848
C27   C     C_R   0.579787 0.028797 0.503137 0.522757
C28   C     C_R   0.430052 0.969862 0.496145 0.520717
C29   C     C_R   0.574822 0.953403 0.505211 -0.216204
C30   C     C_R   0.434751 0.045179 0.499383 -0.211258
C31   C     C_R   0.501115 0.922514 0.500517 -0.020997
C32   C     C_R   0.508521 0.076118 0.501502 -0.021015
C33   C     C_R   0.736114 0.483515 0.525370 -0.204266
C34   C     C_R   0.468157 0.444479 0.745345 0.574583
C35   C     C_R   0.259979 0.517262 0.503195 -0.212989
C36   C     C_R   0.763930 0.534862 0.571526 0.666108
C37   C     C_R   0.215798 0.459759 0.482548 0.658970
C38   C     C_R   0.842740 0.527969 0.593631 -0.239249
C39   C     C_R   0.133872 0.465353 0.491333 -0.229275
C40   C     C_R   0.894562 0.470816 0.568981 -0.081930
C41   C     C_R   0.095495 0.527656 0.521466 -0.067606
C42   C     C_R   0.866401 0.416264 0.526745 0.487646
C43   C     C_R   0.138176 0.586814 0.539847 0.474828
C44   C     C_R   0.786145 0.422746 0.505529 -0.352640
C45   C     C_R   0.459236 0.548794 0.182191 -0.314924
C46   C     C_R   0.221018 0.581214 0.530345 -0.347541
C47   C     C_2   0.980430 0.478242 0.572461 0.426122
C48   C     C_2   0.009456 0.529760 0.533141 0.446860
C49   C     C_R   0.469009 0.443898 0.816841 -0.233525
C50   C     C_R   0.503557 0.492931 0.147358 -0.041763
C51   C     C_R   0.499361 0.500642 0.853704 -0.001065
C52   C     C_R   0.549745 0.438587 0.183534 0.537590
F1    F     F_    0.715174 0.591801 0.595153 -0.615324
F2    F     F_    0.251472 0.398236 0.454030 -0.625687
F3    F     F_    0.644479 0.503419 0.070186 -0.604248
F4    F     F_    0.357440 0.491888 0.930938 -0.619304
F5    F     F_    0.414088 0.604792 0.286361 -0.616764
F6    F     F_    0.435338 0.389771 0.711131 -0.607282
H1    H     H_    0.627787 0.504143 0.936543 0.218255
H2    H     H_    0.445557 0.399128 0.843743 0.222811
H3    H     H_    0.401462 0.357770 0.413216 0.396562
H4    H     H_    0.617532 0.705901 0.373717 0.386162
H5    H     H_    0.461478 0.115660 0.382765 0.339952
H6    H     H_    0.560901 0.879111 0.387806 0.358224
H7    H     H_    0.630053 0.182330 0.621632 0.354459
H8    H     H_    0.367820 0.823827 0.612450 0.354248
H9    H     H_    0.572935 0.285966 0.647427 0.355308
H10   H     H_    0.419451 0.719650 0.643013 0.350231
H11   H     H_    0.651422 0.104050 0.485433 0.348269
H12   H     H_    0.374830 0.487031 0.064741 0.217345
H13   H     H_    0.360431 0.894625 0.470970 0.347105
H14   H     H_    0.989871 0.610012 0.469182 0.371377
H15   H     H_    0.998288 0.394790 0.632116 0.370804
H16   H     H_    0.889867 0.327376 0.473861 0.352563
H17   H     H_    0.137328 0.684058 0.578701 0.352081
H18   H     H_    0.618159 0.347708 0.178122 0.396499
H19   H     H_    0.545942 0.661338 0.829741 0.361245
H20   H     H_    0.623793 0.415158 0.334064 0.346597
H21   H     H_    0.614164 0.627020 0.740106 0.365344
H22   H     H_    0.629692 0.918223 0.507912 0.223639
H23   H     H_    0.379788 0.080290 0.497347 0.224371
H24   H     H_    0.255183 0.625711 0.546214 0.207076
H25   H     H_    0.763516 0.382077 0.471735 0.184480
H26   H     H_    0.100094 0.420555 0.475534 0.223303
H27   H     H_    0.865032 0.569946 0.626052 0.207489
H28   H     H_    0.423809 0.590473 0.153702 0.216337
N1    N     N_R   0.499990 0.310560 0.500020 -0.211591
N2    N     N_R   0.500010 0.689440 0.499980 -0.152659
O1    O     O_R   0.500000 0.439160 0.601820 -0.530497
O2    O     O_3   0.586501 0.676782 0.404826 -0.687490
O3    O     O_3   0.436908 0.165827 0.388082 -0.653601
O4    O     O_3   0.582554 0.828305 0.394674 -0.732995
O5    O     O_3   0.585027 0.155577 0.604738 -0.687793
O6    O     O_3   0.415202 0.848586 0.598606 -0.692158
O7    O     O_3   0.575989 0.311812 0.602911 -0.696600
O8    O     O_3   0.419422 0.692158 0.598882 -0.713442
O9    O     O_3   0.655312 0.053039 0.500886 -0.699666
O10   O     O_3   0.355056 0.945628 0.486992 -0.697709
O11   O     O_3   0.957836 0.580082 0.498881 -0.746480
O12   O     O_R   0.500000 0.560840 0.398180 -0.524597
O13   O     O_3   0.031420 0.428281 0.607562 -0.731083
O14   O     O_3   0.919228 0.360275 0.503535 -0.729751
O15   O     O_3   0.098333 0.647892 0.568710 -0.719160
O16   O     O_3   0.590604 0.383371 0.146203 -0.696618
O17   O     O_3   0.552020 0.616993 0.858369 -0.733255
O18   O     O_3   0.604883 0.392560 0.291021 -0.725679
O19   O     O_3   0.572103 0.608542 0.710182 -0.681316
O20   O     O_R   0.500030 0.560790 0.601820 -0.516420
O21   O     O_R   0.499970 0.439210 0.398180 -0.631815
O22   O     O_R   0.615780 0.432000 0.500010 -0.613184
O23   O     O_R   0.384220 0.568000 0.499990 -0.597621
O24   O     O_R   0.615820 0.553620 0.500010 -0.530094
O25   O     O_R   0.384180 0.446380 0.499990 -0.598040
O26   O     O_3   0.421804 0.310043 0.395314 -0.631542
Zn1   Zn    Zn3+2 0.499980 0.418790 0.500000 1.057729
Zn2   Zn    Zn3+2 0.500020 0.581210 0.500000 1.126229

loop_
_geom_bond_atom_site_label_1
_geom_bond_atom_site_label_2
_ccdc_geom_bond_type
H18   O16   S    
C40   C47   S    
H17   O15   S    
O1    Zn1   S    
C47   O13   S    
C27   C29   A    
C14   C18   A    
O12   Zn2   S    
C7    F3    S    
C44   H25   S    
C8    F4    S    
C17   O25   A    
C39   C41   A    
C15   C19   A    
C21   C31   S    
H10   O8    S    
C49   H2    S    
C23   C45   A    
C18   O3    S    
C19   C21   A    
C24   C26   A    
C14   N1    A    
C17   O23   A    
C25   N1    A    
C33   C36   A    
C7    C9    A    
C19   O4    S    
C46   H24   S    
C27   O9    S    
C49   C51   A    
C22   C25   A    
C50   C52   A    
O23   Zn2   S    
C36   F1    S    
C30   C32   A    
N1    Zn1   S    
H8    O6    S    
C40   C42   A    
H9    O7    S    
C41   C43   A    
C42   C44   A    
C42   O14   S    
C12   O21   A    
H13   O10   S    
C3    O18   S    
C26   O8    S    
C37   C39   A    
C4    O19   S    
C38   H27   S    
C16   O22   A    
C1    C6    S    
C5    C12   S    
C4    C6    A    
C14   O26   S    
C6    C34   A    
C9    H1    S    
N2    Zn2   S    
C2    C4    A    
C24   O6    S    
C16   C33   S    
C47   C48   D    
C5    C23   A    
H21   O19   S    
C9    C11   A    
C37   F2    S    
C10   H12   S    
C8    C10   A    
C20   C22   A    
C25   O7    S    
C22   O5    S    
H6    O4    S    
O24   Zn2   S    
C16   O24   A    
C20   C32   S    
C28   O10   S    
C23   F5    S    
C48   O11   S    
C52   O16   S    
C34   C49   A    
C1    O1    A    
C35   C37   A    
C27   C32   A    
C33   C44   A    
C28   C31   A    
C3    C5    A    
C10   C13   A    
C39   H26   S    
C3    C52   A    
C2    O17   S    
H19   O17   S    
H16   O14   S    
H20   O18   S    
O20   Zn2   S    
C30   H23   S    
C36   C38   A    
C45   H28   S    
C28   C30   A    
C29   C31   A    
C15   O2    S    
C38   C40   A    
C29   H22   S    
C45   C50   A    
C8    C11   A    
H4    O2    S    
H15   O13   S    
H7    O5    S    
C41   C48   S    
C18   C20   A    
C43   C46   A    
C43   O15   S    
C12   O12   A    
C11   C51   S    
C2    C51   A    
O21   Zn1   S    
C1    O20   A    
C13   C50   S    
C7    C13   A    
C26   N2    A    
C21   C24   A    
H5    O3    S    
H3    O26   S    
C34   F6    S    
C17   C35   S    
C35   C46   A    
O22   Zn1   S    
C15   N2    A    
O25   Zn1   S    
H14   O11   S    
H11   O9    S    
