data_mof_unit_28606.cif
_audit_creation_date              2012-12-10T20:27:58-0500
_audit_creation_method            fapswitch 2.2
_symmetry_space_group_name_H-M    P1
_symmetry_Int_Tables_number       1
_space_group_crystal_system       triclinic
_cell_length_a                    12.811624
_cell_length_b                    10.673408
_cell_length_c                    9.873999
_cell_angle_alpha                 90.011448
_cell_angle_beta                  97.401342
_cell_angle_gamma                 90.016604
_cell_volume                      1338.95723587

loop_
_atom_site_label
_atom_site_type_symbol
_atom_type_description
_atom_site_fract_x
_atom_site_fract_y
_atom_site_fract_z
_atom_type_partial_charge
C1    C     C_R   0.503250 0.259997 0.500602 0.888921
C2    C     C_R   0.542302 0.935225 0.387109 -0.198276
C3    C     C_R   0.519857 0.871417 0.504126 -0.106190
C4    C     C_R   0.298280 0.502670 0.472620 0.929792
C5    C     C_R   0.517499 0.936130 0.626068 0.125963
C6    C     C_3   0.440360 0.928976 0.727283 -0.454902
C7    C     C_3   0.440517 0.070998 0.727437 -0.492009
C8    C     C_R   0.407628 0.495706 0.056034 0.274705
C9    C     C_R   0.590893 0.514945 0.086843 -0.139708
C10   C     C_R   0.590891 0.514814 0.943127 -0.100158
C11   C     C_R   0.407524 0.496092 0.913597 0.225410
C12   C     C_R   0.027614 0.456487 0.545561 0.120639
C13   C     C_3   0.326410 0.395147 0.894993 -0.520701
C14   C     C_3   0.327212 0.394373 0.048863 -0.476949
C15   C     C_R   0.503207 0.740010 0.500545 0.899928
C16   C     C_R   0.701726 0.496913 0.527225 0.927935
C17   C     C_R   0.813941 0.488584 0.544311 -0.135681
C18   C     C_R   0.186034 0.509733 0.454475 -0.137428
C19   C     C_R   0.023533 0.605559 0.357125 -0.217078
C20   C     C_R   0.131205 0.591612 0.358586 0.366616
C21   C     C_R   0.134042 0.440381 0.544443 -0.309591
C22   C     C_R   0.972076 0.539893 0.451366 0.119897
C23   C     C_R   0.865641 0.555922 0.452291 -0.303346
C24   C     C_R   0.868762 0.406529 0.640021 0.374130
C25   C     C_R   0.976227 0.391232 0.640196 -0.220965
C26   C     C_R   0.517607 0.063897 0.626144 0.188484
C27   C     C_R   0.519974 0.128618 0.504216 -0.097975
C28   C     C_R   0.542347 0.064807 0.387147 -0.205932
Cl1   Cl    Cl    0.805462 0.314436 0.753368 -0.623537
Cl2   Cl    Cl    0.194548 0.684759 0.246199 -0.626326
H1    H     H_    0.822206 0.619111 0.379383 0.161518
H2    H     H_    0.177231 0.375551 0.615450 0.155863
H3    H     H_    0.552554 0.113883 0.293718 0.178160
H4    H     H_    0.363618 0.887719 0.683529 0.215744
H5    H     H_    0.363839 0.112464 0.683854 0.198520
H6    H     H_    0.664675 0.525345 0.152387 0.167457
H7    H     H_    0.664463 0.524921 0.901523 0.187949
H8    H     H_    0.552525 0.886146 0.293673 0.177331
H9    H     H_    0.475748 0.887808 0.826050 0.213356
H10   H     H_    0.476087 0.111883 0.826295 0.217706
H11   H     H_    0.250757 0.429512 0.840125 0.215414
H12   H     H_    0.356508 0.307099 0.854151 0.210498
H13   H     H_    0.252054 0.427464 0.081483 0.238927
H14   H     H_    0.358756 0.306138 0.098174 0.209251
H15   H     H_    0.980683 0.669519 0.284874 0.175507
H16   H     H_    0.019082 0.327176 0.712346 0.174883
N1    N     N_R   0.499290 0.499140 0.142710 -0.118210
N2    N     N_R   0.499290 0.499180 0.857070 -0.116389
O1    O     O_R   0.500010 0.316790 0.614690 -0.601280
O2    O     O_R   0.500000 0.316760 0.385350 -0.629634
O3    O     O_R   0.346360 0.499990 0.595720 -0.629252
O4    O     O_R   0.346350 0.499960 0.366370 -0.578580
O5    O     O_R   0.500000 0.683240 0.614650 -0.624228
O6    O     O_R   0.499990 0.683210 0.385310 -0.604824
O7    O     O_R   0.653650 0.500040 0.633630 -0.586725
O8    O     O_R   0.653640 0.500010 0.404280 -0.639820
Zn1   Zn    Zn3+2 0.500010 0.500020 0.653130 0.977775
Zn2   Zn    Zn3+2 0.499990 0.499980 0.346870 0.977418

loop_
_geom_bond_atom_site_label_1
_geom_bond_atom_site_label_2
_ccdc_geom_bond_type
C9    H6    S    
C2    C28   A    
C7    H10   S    
C16   O8    A    
C6    C7    S    
O3    Zn1   S    
C1    O2    A    
C18   C21   A    
C9    C10   A    
C2    H8    S    
C19   C20   A    
C12   C25   A    
C4    C18   S    
C19   H15   S    
C2    C3    A    
C26   C27   A    
C16   O7    A    
O1    Zn1   S    
N2    Zn1   S    
O7    Zn1   S    
C20   Cl2   S    
C13   C14   S    
N1    Zn2   S    
C11   C13   S    
C11   N2    A    
C17   C23   A    
C7    C26   S    
O4    Zn2   S    
C4    O4    A    
C8    C11   A    
C12   C21   A    
C15   O5    A    
C13   H11   S    
C13   H12   S    
O8    Zn2   S    
C28   H3    S    
C9    N1    A    
C18   C20   A    
C10   H7    S    
C10   N2    A    
C5    C6    S    
C21   H2    S    
C8    N1    A    
C17   C24   A    
C4    O3    A    
C5    C26   A    
O2    Zn2   S    
C15   O6    A    
C12   C22   A    
C19   C22   A    
C3    C15   S    
C24   C25   A    
C14   H14   S    
C1    O1    A    
O6    Zn2   S    
C27   C28   A    
C1    C27   S    
O5    Zn1   S    
C6    H9    S    
C16   C17   S    
C8    C14   S    
C24   Cl1   S    
C7    H5    S    
C25   H16   S    
C22   C23   A    
C6    H4    S    
C14   H13   S    
C3    C5    A    
C23   H1    S    
