data_mof_unit_46421.cif
_audit_creation_date              2013-03-05T16:06:41-0500
_audit_creation_method            fapswitch 2.2
_symmetry_space_group_name_H-M    P1
_symmetry_Int_Tables_number       1
_space_group_crystal_system       triclinic
_cell_length_a                    10.827902
_cell_length_b                    9.619992
_cell_length_c                    15.211489
_cell_angle_alpha                 89.994467
_cell_angle_beta                  93.706804
_cell_angle_gamma                 89.997883
_cell_volume                      1581.1797153

loop_
_atom_site_label
_atom_site_type_symbol
_atom_site_description
_atom_site_fract_x
_atom_site_fract_y
_atom_site_fract_z
_atom_type_partial_charge
O1    O     O_R   0.319640 0.618740 0.499990 -0.598125
O2    O     O_R   0.680360 0.381260 0.500010 -0.621470
O3    O     O_R   0.680360 0.618740 0.500010 -0.598229
O4    O     O_R   0.319640 0.381260 0.499990 -0.621465
N1    N     N_R   0.500000 0.852070 0.500000 -0.261345
N2    N     N_R   0.500000 0.147930 0.500000 -0.265016
C1    C     C_R   0.262362 0.500075 0.499950 0.798905
C2    C     C_R   0.737638 0.500072 0.500050 0.798786
O5    O     O_R   0.499990 0.618780 0.371460 -0.568271
O6    O     O_R   0.500010 0.381220 0.628540 -0.570962
O7    O     O_R   0.500010 0.618780 0.628540 -0.568293
O8    O     O_R   0.499990 0.381220 0.371460 -0.570848
C3    C     C_R   0.503932 0.499914 0.330099 0.844930
C4    C     C_R   0.496109 0.499916 0.669898 0.845267
Cu1   Cu    Cu3+1 0.500000 0.640660 0.500000 1.004799
Cu2   Cu    Cu3+1 0.500000 0.359340 0.500000 0.993059
C5    C     C_R   0.415261 0.073805 0.447199 0.097439
C6    C     C_R   0.576233 0.925721 0.558929 0.080275
C7    C     C_R   0.584757 0.073771 0.552779 0.096871
C8    C     C_R   0.423767 0.925747 0.441065 0.080355
C9    C     C_R   0.063877 0.374254 0.500471 -0.123517
C10   C     C_R   0.936074 0.626758 0.500028 -0.115958
C11   C     C_R   0.936134 0.374252 0.499556 -0.123375
C12   C     C_R   0.063915 0.626760 0.499952 -0.115665
C13   C     C_R   0.547295 0.626502 0.097853 -0.174961
C14   C     C_R   0.543416 0.397482 0.909844 -0.165735
C15   C     C_R   0.451624 0.626198 0.902037 -0.175083
C16   C     C_R   0.456816 0.397124 0.090197 -0.166100
H1    H     H_    0.584200 0.715706 0.064817 0.196743
H2    H     H_    0.580504 0.310531 0.948474 0.195506
H3    H     H_    0.414185 0.715153 0.935004 0.196677
H4    H     H_    0.420254 0.309889 0.051604 0.195652
C17   C     C_R   0.556214 0.619915 0.189972 0.314148
C18   C     C_R   0.535791 0.387319 0.818626 0.295066
C19   C     C_R   0.443019 0.619616 0.809914 0.314452
C20   C     C_R   0.464806 0.386901 0.181422 0.294306
C21   C     C_R   0.510647 0.500814 0.233181 -0.268580
C22   C     C_R   0.489329 0.500843 0.766798 -0.268696
H5    H     H_    0.111730 0.275516 0.501477 0.197780
H6    H     H_    0.888047 0.725541 0.500127 0.178005
H7    H     H_    0.888291 0.275513 0.498569 0.197713
H8    H     H_    0.111933 0.725543 0.499834 0.178004
C23   C     C_R   0.498871 0.515088 0.048109 0.002784
C24   C     C_R   0.500527 0.515082 0.951856 0.002648
C25   C     C_R   0.871622 0.500387 0.499825 -0.041885
C26   C     C_R   0.128379 0.500390 0.500177 -0.041813
C27   C     C_2   0.310168 0.145560 0.398969 0.518055
H9    H     H_    0.320492 0.246264 0.369874 0.135362
O9    O     O_2   0.207684 0.092075 0.392178 -0.558396
C28   C     C_2   0.645879 0.853269 0.632622 0.530149
H10   H     H_    0.695516 0.758270 0.622954 0.070235
O10   O     O_2   0.647742 0.900554 0.707199 -0.452804
C29   C     C_2   0.689907 0.145478 0.600948 0.518646
H11   H     H_    0.679654 0.246258 0.629932 0.135982
O11   O     O_2   0.792348 0.091885 0.607798 -0.558132
C30   C     C_2   0.354092 0.853313 0.367386 0.529989
H12   H     H_    0.304536 0.758264 0.377053 0.070142
O12   O     O_2   0.352112 0.900667 0.292818 -0.452611
N3    N     N_R   0.619760 0.730287 0.237847 0.152211
O13   O     O_R   0.707974 0.701159 0.297189 -0.336895
O14   O     O_R   0.606369 0.858195 0.211045 -0.262150
N4    N     N_R   0.571848 0.258363 0.781031 0.110371
O15   O     O_R   0.486378 0.176388 0.746364 -0.282711
O16   O     O_R   0.679669 0.206027 0.804949 -0.311803
N5    N     N_R   0.379164 0.729668 0.761924 0.152181
O17   O     O_R   0.291252 0.700121 0.702452 -0.337258
O18   O     O_R   0.392053 0.857653 0.788655 -0.262861
N6    N     N_R   0.430051 0.257418 0.219067 0.110921
O19   O     O_R   0.516315 0.176885 0.254251 -0.282490
O20   O     O_R   0.323058 0.203248 0.194777 -0.310909

loop_
_geom_bond_atom_site_label_1
_geom_bond_atom_site_label_2
_geom_bond_distance
_ccdc_geom_bond_type
O4    Cu2   1.964254 S    
C10   C25   1.401690 A    
C28   O10   1.221220 D    
C23   C24   1.465409 S    
C20   N6    1.431379 S    
N4    O15   1.301336 A    
O1    Cu1   1.964270 S    
C4    C22   1.480590 S    
N2    Cu2   2.033763 S    
O2    Cu2   1.964269 S    
C16   C23   1.393779 A    
C3    C21   1.480769 S    
C27   H9    1.073872 S    
C9    H5    1.081610 S    
C18   N4    1.430876 S    
C8    C30   1.483811 S    
C16   C20   1.388260 A    
C10   H6    1.083307 S    
C7    C29   1.483682 S    
C29   O11   1.221494 D    
C28   H10   1.075129 S    
O5    Cu1   1.966595 S    
C12   C26   1.401680 A    
N3    O13   1.301606 A    
C27   O9    1.221492 D    
N1    C8    1.375344 A    
O6    Cu2   1.966595 S    
C29   H11   1.073801 S    
C30   H12   1.075098 S    
N2    C7    1.378532 A    
C13   C23   1.394681 A    
O4    C1    1.300382 A    
C11   C25   1.400231 A    
C15   C24   1.394713 A    
C20   C21   1.420141 A    
C30   O12   1.221212 D    
C17   C21   1.424788 A    
C14   H2    1.084264 S    
C9    C11   1.382363 A    
C15   H3    1.083721 S    
C13   H1    1.083757 S    
O7    C4    1.307059 A    
C10   C12   1.384328 A    
O3    C2    1.299137 A    
N1    Cu1   2.033763 S    
C19   N5    1.437477 S    
C14   C24   1.393711 A    
Cu1   Cu2   2.706296 S    
C9    C26   1.400241 A    
C1    C26   1.450991 S    
O8    Cu2   1.966554 S    
C16   H4    1.084290 S    
C19   C22   1.424690 A    
C12   H8    1.083307 S    
O8    C3    1.305684 A    
C6    C28   1.483779 S    
N6    O20   1.301908 A    
N5    O17   1.301548 A    
O6    C4    1.305742 A    
N3    O14   1.301367 A    
N2    C5    1.378531 A    
O5    C3    1.307227 A    
C2    C25   1.450992 S    
C6    C7    1.430670 A    
O3    Cu1   1.964253 S    
N4    O16   1.301487 A    
N1    C6    1.375277 A    
C11   H7    1.081606 S    
C15   C19   1.399832 A    
C17   N3    1.437550 S    
O1    C1    1.299154 A    
O7    Cu1   1.966554 S    
C5    C8    1.430729 A    
C14   C18   1.388133 A    
O2    C2    1.300398 A    
C5    C27   1.483759 S    
C13   C17   1.399786 A    
N6    O19   1.301663 A    
N5    O18   1.301332 A    
C18   C22   1.419802 A    
