data_mof_unit_60398.cif
_audit_creation_date              2012-12-10T19:52:03-0500
_audit_creation_method            fapswitch 2.2
_symmetry_space_group_name_H-M    P1
_symmetry_Int_Tables_number       1
_space_group_crystal_system       triclinic
_cell_length_a                    26.041251
_cell_length_b                    25.989161
_cell_length_c                    22.1923
_cell_angle_alpha                 90.020481
_cell_angle_beta                  125.860608
_cell_angle_gamma                 89.984834
_cell_volume                      12172.4981564

loop_
_atom_site_label
_atom_site_type_symbol
_atom_type_description
_atom_site_fract_x
_atom_site_fract_y
_atom_site_fract_z
_atom_type_partial_charge
C1    C     C_R   0.650319 0.749974 0.300609 0.512940
C2    C     C_3   0.482181 0.788001 0.024987 -0.108307
C3    C     C_R   0.255820 0.526421 0.450489 -0.031481
C4    C     C_R   0.738439 0.945895 0.489862 -0.036363
C5    C     C_R   0.737643 0.054234 0.488953 -0.035880
C6    C     C_R   0.238500 0.445898 0.489930 -0.036346
C7    C     C_R   0.237683 0.554234 0.488994 -0.035832
C8    C     C_R   0.707255 0.972881 0.515624 0.266396
C9    C     C_R   0.706163 0.027272 0.514287 0.268870
C10   C     C_R   0.207416 0.472886 0.515817 0.266481
C11   C     C_R   0.206281 0.527272 0.514427 0.268834
C12   C     C_3   0.813354 0.029651 0.450986 0.018247
C13   C     C_3   0.984437 0.710309 0.024952 -0.108380
C14   C     C_3   0.813531 0.970573 0.451153 0.017690
C15   C     C_3   0.313317 0.529648 0.450920 0.018221
C16   C     C_3   0.313487 0.470570 0.451076 0.017837
C17   C     C_R   0.610029 0.750025 0.500086 0.514104
C18   C     C_R   0.610010 0.249953 0.500039 0.513333
C19   C     C_R   0.110030 0.250023 0.500087 0.513783
C20   C     C_R   0.110010 0.749953 0.500039 0.513604
C21   C     C_R   0.748596 0.890244 0.498839 0.515552
C22   C     C_R   0.748277 0.109792 0.498511 0.512712
C23   C     C_R   0.248609 0.390243 0.498852 0.515795
C24   C     C_3   0.978349 0.284587 0.025000 -0.108297
C25   C     C_R   0.248284 0.609793 0.498518 0.512829
C26   C     C_R   0.750043 0.610018 0.499887 0.530223
C27   C     C_R   0.750042 0.389982 0.499889 0.530197
C28   C     C_R   0.250043 0.110017 0.499886 0.530004
C29   C     C_R   0.250043 0.889982 0.499889 0.530372
C30   C     C_R   0.698607 0.525957 0.445614 0.014492
C31   C     C_R   0.698606 0.474033 0.445620 0.014515
C32   C     C_R   0.198603 0.025956 0.445617 0.014497
C33   C     C_R   0.198602 0.974033 0.445623 0.014546
C34   C     C_R   0.750784 0.554459 0.499925 0.039615
C35   C     C_3   0.939733 0.754687 0.975648 0.115769
C36   C     C_R   0.750783 0.445539 0.499930 0.039588
C37   C     C_R   0.250784 0.054459 0.499920 0.039541
C38   C     C_R   0.250784 0.945539 0.499926 0.039632
C39   C     C_R   0.805305 0.527018 0.555450 -0.146217
C40   C     C_R   0.805305 0.472986 0.555452 -0.146297
C41   C     C_R   0.305312 0.027018 0.555434 -0.146326
C42   C     C_R   0.305312 0.972986 0.555436 -0.146245
C43   C     C_3   0.623862 0.927395 0.495778 -0.063123
C44   C     C_3   0.620215 0.072946 0.486515 -0.072521
C45   C     C_3   0.124139 0.427426 0.496376 -0.063047
C46   C     C_3   0.941100 0.237548 0.975623 0.116550
C47   C     C_3   0.120271 0.572828 0.486636 -0.072739
C48   C     C_3   0.441096 0.262441 0.975642 0.116563
C49   C     C_3   0.440064 0.742544 0.975621 0.116074
C50   C     C_1   0.889455 0.750110 0.778872 0.038049
C51   C     C_1   0.889468 0.249917 0.778869 0.037612
C52   C     C_1   0.389455 0.250100 0.778873 0.037646
C53   C     C_R   0.650322 0.250020 0.300604 0.512437
C54   C     C_1   0.389469 0.749911 0.778868 0.037969
C55   C     C_1   0.610641 0.250057 0.221176 0.048051
C56   C     C_1   0.610627 0.749929 0.221179 0.048357
C57   C     C_1   0.110639 0.750051 0.221175 0.048375
C58   C     C_1   0.110628 0.249926 0.221179 0.048078
C59   C     C_3   0.007946 0.705817 0.975063 -0.104964
C60   C     C_3   0.000503 0.296919 0.975137 -0.105445
C61   C     C_3   0.500519 0.203088 0.975090 -0.105439
C62   C     C_3   0.505374 0.795298 0.975127 -0.105169
C63   C     C_3   0.963488 0.750222 0.926873 0.021959
C64   C     C_R   0.150319 0.249974 0.300609 0.512629
C65   C     C_3   0.963506 0.249800 0.926875 0.022133
C66   C     C_3   0.463501 0.250209 0.926876 0.022147
C67   C     C_3   0.463503 0.749795 0.926874 0.021955
C68   C     C_3   0.559127 0.237935 0.024459 0.117439
C69   C     C_3   0.560152 0.757070 0.024477 0.117835
C70   C     C_3   0.060478 0.745705 0.024449 0.118009
C71   C     C_3   0.059121 0.262079 0.024478 0.117417
C72   C     C_3   0.536711 0.250164 0.073209 0.022947
C73   C     C_3   0.536703 0.749822 0.073208 0.022902
C74   C     C_3   0.036713 0.750167 0.073207 0.022963
C75   C     C_R   0.150321 0.750019 0.300603 0.512914
C76   C     C_3   0.036705 0.249828 0.073210 0.022959
C77   C     C_3   0.015772 0.790085 0.975134 -0.104210
C78   C     C_3   0.021871 0.215037 0.975092 -0.105340
C79   C     C_3   0.521855 0.284980 0.975123 -0.105291
C80   C     C_3   0.518034 0.711611 0.975101 -0.104564
C81   C     C_R   0.849674 0.750006 0.699416 0.512995
C82   C     C_R   0.849677 0.250001 0.699411 0.512384
C83   C     C_R   0.349674 0.250004 0.699416 0.512494
C84   C     C_R   0.349677 0.750000 0.699411 0.512735
C85   C     C_3   0.499705 0.297289 0.025013 -0.100074
C86   C     C_3   0.632051 0.470113 0.377833 0.003142
C87   C     C_3   0.494843 0.704315 0.024972 -0.099896
C88   C     C_3   0.992266 0.794576 0.025034 -0.099698
C89   C     C_3   0.999720 0.202707 0.024965 -0.100143
C90   C     C_1   0.922920 0.750180 0.845698 -0.006080
C91   C     C_1   0.922938 0.249856 0.845697 -0.006554
C92   C     C_1   0.422925 0.250161 0.845700 -0.006527
C93   C     C_1   0.422936 0.749846 0.845696 -0.006190
C94   C     C_1   0.577234 0.250121 0.154364 0.000665
C95   C     C_1   0.577220 0.749866 0.154365 0.001013
C96   C     C_1   0.077234 0.750112 0.154362 0.001071
C97   C     C_3   0.632054 0.529862 0.377821 0.003080
C98   C     C_1   0.077221 0.249863 0.154366 0.000695
C99   C     C_R   0.506132 0.715058 0.460425 0.032847
C100  C     C_R   0.506252 0.285064 0.460693 0.032507
C101  C     C_R   0.006126 0.215063 0.460413 0.032598
C102  C     C_R   0.006256 0.785066 0.460700 0.032730
C103  C     C_R   0.554464 0.750872 0.500043 0.036715
C104  C     C_R   0.554390 0.249042 0.499883 0.036412
C105  C     C_R   0.054465 0.250870 0.500046 0.036477
C106  C     C_R   0.054389 0.749039 0.499879 0.036631
C107  C     C_R   0.547306 0.788425 0.540668 -0.152866
C108  C     C_3   0.132038 0.970111 0.377855 0.002951
C109  C     C_R   0.546992 0.211222 0.539975 -0.152815
C110  C     C_R   0.047315 0.288414 0.540687 -0.153231
C111  C     C_R   0.046983 0.711212 0.539958 -0.152533
C112  C     C_R   0.493247 0.788493 0.540574 -0.143434
C113  C     C_R   0.492957 0.211181 0.539942 -0.144165
C114  C     C_R   0.993255 0.288484 0.540590 -0.143731
C115  C     C_R   0.992949 0.711171 0.539924 -0.143921
C116  C     C_R   0.445386 0.751093 0.499692 0.036618
C117  C     C_R   0.445345 0.248848 0.499604 0.036464
C118  C     C_R   0.945386 0.251092 0.499692 0.036354
C119  C     C_3   0.132039 0.029860 0.377842 0.003133
C120  C     C_R   0.945343 0.748845 0.499600 0.036676
C121  C     C_R   0.454054 0.715416 0.459892 -0.009859
C122  C     C_R   0.454193 0.284725 0.460200 -0.010169
C123  C     C_R   0.954047 0.215422 0.459878 -0.010226
C124  C     C_R   0.954197 0.784728 0.460207 -0.009883
C125  C     C_3   0.426498 0.668613 0.412560 -0.215093
C126  C     C_3   0.426936 0.331820 0.413504 -0.215007
C127  C     C_3   0.926487 0.168623 0.412538 -0.214988
C128  C     C_3   0.926956 0.831837 0.413541 -0.215053
C129  C     C_R   0.889957 0.749879 0.499947 0.514845
C130  C     C_3   0.478367 0.215397 0.024970 -0.108346
C131  C     C_R   0.889961 0.250109 0.499953 0.514755
C132  C     C_R   0.389957 0.249879 0.499947 0.514609
C133  C     C_R   0.389962 0.750109 0.499952 0.515094
C134  C     C_3   0.485970 0.668092 0.413089 -0.019563
C135  C     C_3   0.486374 0.332303 0.413966 -0.019454
C136  C     C_3   0.985960 0.168101 0.413069 -0.019436
C137  C     C_3   0.986394 0.832318 0.414002 -0.019582
C138  C     C_R   0.755965 0.973561 0.450659 -0.031485
C139  C     C_R   0.755827 0.026422 0.450495 -0.031436
C140  C     C_R   0.255955 0.473558 0.450651 -0.031527
H1    H     H_    0.847603 0.547037 0.599152 0.151123
H2    H     H_    0.488717 0.181852 0.571441 0.153058
H3    H     H_    0.989206 0.317614 0.572498 0.153016
H4    H     H_    0.988703 0.681837 0.571414 0.152942
H5    H     H_    0.423667 0.635974 0.442817 0.189976
H6    H     H_    0.424356 0.364286 0.444221 0.189564
H7    H     H_    0.923654 0.135983 0.442792 0.189935
H8    H     H_    0.924390 0.864293 0.444281 0.189615
H9    H     H_    0.382042 0.677161 0.357090 0.162666
H10   H     H_    0.382401 0.323621 0.357941 0.163143
H11   H     H_    0.882032 0.177174 0.357069 0.162792
H12   H     H_    0.847604 0.452972 0.599155 0.151108
H13   H     H_    0.882418 0.823656 0.357974 0.163123
H14   H     H_    0.475884 0.676141 0.357913 0.153271
H15   H     H_    0.476188 0.324559 0.358665 0.153389
H16   H     H_    0.975876 0.176152 0.357895 0.153316
H17   H     H_    0.976205 0.824591 0.358696 0.153325
H18   H     H_    0.854443 0.046211 0.503908 0.110153
H19   H     H_    0.854743 0.954210 0.504147 0.110125
H20   H     H_    0.354428 0.546201 0.503830 0.110422
H21   H     H_    0.354720 0.454202 0.504050 0.110013
H22   H     H_    0.600390 0.453662 0.391084 0.161687
H23   H     H_    0.347614 0.047036 0.599128 0.151138
H24   H     H_    0.600388 0.546348 0.391051 0.161763
H25   H     H_    0.100392 0.953659 0.391125 0.161500
H26   H     H_    0.100387 0.046343 0.391095 0.161889
H27   H     H_    0.460758 0.186968 0.046229 0.141111
H28   H     H_    0.467695 0.819250 0.046258 0.141615
H29   H     H_    0.971801 0.677673 0.046199 0.141643
H30   H     H_    0.960729 0.312998 0.046285 0.141190
H31   H     H_    0.499586 0.335916 0.046323 0.156383
H32   H     H_    0.490745 0.667022 0.046244 0.156372
H33   H     H_    0.986048 0.830928 0.046367 0.156322
H34   H     H_    0.347615 0.952973 0.599131 0.151101
H35   H     H_    0.999606 0.164082 0.046239 0.156325
H36   H     H_    0.028414 0.822723 0.953896 0.145957
H37   H     H_    0.039498 0.186625 0.953815 0.145108
H38   H     H_    0.539470 0.313410 0.953872 0.145152
H39   H     H_    0.532526 0.680361 0.953838 0.145788
H40   H     H_    0.014190 0.669461 0.953765 0.144998
H41   H     H_    0.000640 0.335550 0.953900 0.143863
H42   H     H_    0.500662 0.164454 0.953817 0.143868
H43   H     H_    0.509498 0.832596 0.953889 0.144568
H44   H     H_    0.622652 0.904628 0.452452 0.092224
H45   H     H_    0.583206 0.817553 0.572548 0.149330
H46   H     H_    0.588123 0.958599 0.469298 0.107827
H47   H     H_    0.609969 0.901151 0.523351 0.147024
H48   H     H_    0.589079 0.043231 0.444602 0.083940
H49   H     H_    0.625372 0.105610 0.458195 0.113398
H50   H     H_    0.595918 0.087786 0.510597 0.144546
H51   H     H_    0.122351 0.405463 0.452081 0.090761
H52   H     H_    0.088261 0.458564 0.471126 0.108926
H53   H     H_    0.110930 0.400429 0.523906 0.147449
H54   H     H_    0.089146 0.542995 0.444947 0.084070
H55   H     H_    0.125304 0.605380 0.458052 0.113314
H56   H     H_    0.582678 0.181856 0.571368 0.153446
H57   H     H_    0.096045 0.587793 0.510741 0.144517
H58   H     H_    0.083222 0.317533 0.572585 0.149306
H59   H     H_    0.082665 0.681841 0.571341 0.153282
H60   H     H_    0.489192 0.817630 0.572469 0.152933
I1    I     I_    0.547208 0.603993 0.472425 -0.319953
I2    I     I_    0.626894 0.569711 0.289405 -0.251760
I3    I     I_    0.126829 0.930190 0.289421 -0.251030
I4    I     I_    0.126832 0.069709 0.289397 -0.252601
I5    I     I_    0.843180 0.761885 0.936681 -0.297556
I6    I     I_    0.846718 0.217933 0.936607 -0.293567
I7    I     I_    0.346694 0.282023 0.936637 -0.293938
I8    I     I_    0.344011 0.730947 0.936578 -0.294852
I9    I     I_    0.653586 0.218319 0.063698 -0.294183
I10   I     I_    0.656260 0.768700 0.063732 -0.294384
I11   I     I_    0.157086 0.738478 0.063618 -0.295839
I12   I     I_    0.548050 0.396044 0.474035 -0.320767
I13   I     I_    0.153561 0.281727 0.063726 -0.294316
I14   I     I_    0.047189 0.103997 0.472398 -0.320714
I15   I     I_    0.048091 0.896041 0.474111 -0.320506
I16   I     I_    0.792677 0.069175 0.353780 -0.237689
I17   I     I_    0.793113 0.930854 0.354171 -0.240287
I18   I     I_    0.292595 0.569177 0.353700 -0.241079
I19   I     I_    0.292995 0.430854 0.354055 -0.238323
I20   I     I_    0.626874 0.430191 0.289421 -0.252759
O1    O     O_3   0.749980 0.749980 0.500000 -0.459813
O2    O     O_R   0.612630 0.280380 0.456900 -0.525503
O3    O     O_R   0.112630 0.219620 0.456900 -0.524837
O4    O     O_R   0.112630 0.780380 0.456900 -0.525549
O5    O     O_R   0.698160 0.780350 0.335610 -0.522038
O6    O     O_R   0.698160 0.219650 0.335610 -0.521936
O7    O     O_R   0.198160 0.280350 0.335610 -0.521701
O8    O     O_R   0.198160 0.719650 0.335610 -0.522437
O9    O     O_R   0.801810 0.780340 0.664390 -0.519564
O10   O     O_R   0.801810 0.219660 0.664390 -0.518602
O11   O     O_R   0.301810 0.280340 0.664390 -0.518938
O12   O     O_3   0.749980 0.250020 0.500000 -0.459999
O13   O     O_R   0.301810 0.719660 0.664390 -0.518970
O14   O     O_R   0.637440 0.719620 0.335610 -0.524818
O15   O     O_R   0.637440 0.280380 0.335610 -0.524955
O16   O     O_R   0.137440 0.219620 0.335610 -0.524881
O17   O     O_R   0.137440 0.780380 0.335610 -0.524847
O18   O     O_R   0.862520 0.719620 0.664390 -0.537873
O19   O     O_R   0.862520 0.280380 0.664390 -0.538189
O20   O     O_R   0.362520 0.219620 0.664390 -0.538085
O21   O     O_R   0.362520 0.780380 0.664390 -0.538069
O22   O     O_R   0.844240 0.780350 0.456900 -0.531732
O23   O     O_3   0.249980 0.249980 0.500000 -0.459824
O24   O     O_R   0.844240 0.219650 0.456900 -0.531716
O25   O     O_R   0.344240 0.280350 0.456900 -0.531860
O26   O     O_R   0.344240 0.719650 0.456900 -0.531562
O27   O     O_R   0.655730 0.780340 0.543100 -0.551086
O28   O     O_R   0.655730 0.219660 0.543100 -0.549027
O29   O     O_R   0.155730 0.280340 0.543100 -0.551375
O30   O     O_R   0.155730 0.719660 0.543100 -0.548933
O31   O     O_R   0.758800 0.865790 0.456890 -0.527071
O32   O     O_R   0.758800 0.134210 0.456890 -0.527325
O33   O     O_R   0.258800 0.365790 0.456890 -0.527084
O34   O     O_3   0.249980 0.750020 0.500000 -0.459998
O35   O     O_R   0.258800 0.634210 0.456890 -0.527373
O36   O     O_R   0.698070 0.634180 0.456910 -0.510938
O37   O     O_R   0.698070 0.365820 0.456910 -0.510821
O38   O     O_R   0.198070 0.134180 0.456910 -0.510927
O39   O     O_R   0.198070 0.865820 0.456910 -0.510863
O40   O     O_R   0.741170 0.865780 0.543090 -0.500363
O41   O     O_R   0.741170 0.134220 0.543090 -0.501759
O42   O     O_R   0.241170 0.365780 0.543090 -0.500019
O43   O     O_R   0.241170 0.634220 0.543090 -0.501794
O44   O     O_R   0.801880 0.634180 0.543110 -0.551015
O45   O     O_R   0.887330 0.719620 0.543100 -0.547498
O46   O     O_R   0.801880 0.365820 0.543110 -0.551022
O47   O     O_R   0.301880 0.134180 0.543110 -0.551082
O48   O     O_R   0.301880 0.865820 0.543110 -0.550965
O49   O     O_3   0.684594 0.947349 0.550350 -0.494801
O50   O     O_3   0.679724 0.052861 0.544704 -0.495848
O51   O     O_3   0.184943 0.447354 0.550747 -0.494498
O52   O     O_3   0.179850 0.552865 0.544846 -0.496042
O53   O     O_R   0.887330 0.280380 0.543100 -0.547520
O54   O     O_R   0.387330 0.219620 0.543100 -0.547465
O55   O     O_R   0.387330 0.780380 0.543100 -0.547492
O56   O     O_R   0.612630 0.719620 0.456900 -0.524883
Zn1   Zn    Zn3+2 0.824140 0.706600 0.561580 0.953505
Zn2   Zn    Zn3+2 0.737390 0.206640 0.561570 0.972941
Zn3   Zn    Zn3+2 0.237390 0.293360 0.561570 0.972005
Zn4   Zn    Zn3+2 0.237390 0.706640 0.561570 0.972935
Zn5   Zn    Zn3+2 0.675820 0.706600 0.438430 0.980806
Zn6   Zn    Zn3+2 0.675820 0.293400 0.438430 0.979650
Zn7   Zn    Zn3+2 0.175820 0.206600 0.438430 0.980467
Zn8   Zn    Zn3+2 0.175820 0.793400 0.438430 0.980004
Zn9   Zn    Zn3+2 0.824140 0.293400 0.561580 0.953087
Zn10  Zn    Zn3+2 0.324140 0.206600 0.561580 0.953064
Zn11  Zn    Zn3+2 0.324140 0.793400 0.561580 0.953532
Zn12  Zn    Zn3+2 0.762580 0.793360 0.438420 0.969335
Zn13  Zn    Zn3+2 0.762580 0.206640 0.438420 0.968472
Zn14  Zn    Zn3+2 0.262580 0.293360 0.438420 0.969387
Zn15  Zn    Zn3+2 0.262580 0.706640 0.438420 0.968446
Zn16  Zn    Zn3+2 0.737390 0.793360 0.561570 0.971849

loop_
_geom_bond_atom_site_label_1
_geom_bond_atom_site_label_2
_ccdc_geom_bond_type
C99   C103  A    
C9    O50   S    
O7    Zn14  S    
O53   Zn9   S    
C11   O52   S    
C49   C87   S    
C97   I2    S    
C23   O33   A    
O18   Zn1   S    
O55   Zn11  S    
C66   C79   S    
C30   C97   S    
O20   Zn10  S    
C47   H55   S    
C1    C56   S    
C131  O53   A    
C132  O25   A    
C76   C98   S    
C100  C104  A    
C113  H2    S    
C16   I19   S    
O32   Zn13  S    
C107  C112  A    
O12   Zn2   S    
C117  C132  S    
C118  C131  S    
C44   H50   S    
C62   H43   S    
C47   O52   S    
C45   H51   S    
O41   Zn2   S    
C39   H1    S    
C77   C88   S    
O27   Zn16  S    
C70   C74   S    
O38   Zn7   S    
O12   Zn9   S    
C100  C135  S    
C133  O26   A    
C99   C121  A    
C72   C94   S    
C135  I12   S    
C81   O9    A    
C137  I15   S    
O16   Zn7   S    
C20   C106  S    
C78   C89   S    
C27   O37   A    
C116  C121  A    
C127  C136  S    
C46   C65   S    
O23   Zn3   S    
C24   C76   S    
C116  C133  S    
O1    Zn16  S    
C34   C39   A    
C22   O32   A    
C20   O30   A    
C43   H47   S    
C68   C72   S    
O14   Zn5   S    
C20   O4    A    
C12   C139  S    
C86   I20   S    
C15   I18   S    
C125  H9    S    
C60   C65   S    
C10   O51   S    
C16   H21   S    
C12   I16   S    
C44   H49   S    
C79   C85   S    
C65   C91   S    
C119  I4    S    
C59   C63   S    
C33   C38   A    
C23   O42   A    
O11   Zn3   S    
C24   C46   S    
C114  H3    S    
C15   H20   S    
O46   Zn9   S    
C30   C31   A    
O42   Zn3   S    
C43   O49   S    
O23   Zn10  S    
O24   Zn13  S    
C29   O48   A    
C31   C36   A    
C35   C63   S    
C112  H60   S    
C50   C81   S    
O34   Zn8   S    
C56   C95   T    
O40   Zn16  S    
C78   H37   S    
C58   C98   T    
C72   C85   S    
C46   C89   S    
O4    Zn8   S    
C81   O18   A    
C5    C9    A    
C61   H42   S    
C29   O39   A    
O36   Zn5   S    
C109  H56   S    
C59   H40   S    
C13   C35   S    
C27   O46   A    
C129  O22   A    
O43   Zn4   S    
C40   H12   S    
C86   C97   S    
O35   Zn15  S    
C127  H11   S    
C29   C38   S    
O54   Zn10  S    
C24   H30   S    
C110  C114  A    
O28   Zn2   S    
C76   C89   S    
C68   C79   S    
C13   H29   S    
O19   Zn9   S    
C70   C77   S    
C16   C140  S    
C33   C108  S    
C130  H27   S    
C50   C90   T    
C5    C139  A    
C106  C111  A    
C58   C64   S    
C30   C34   A    
C120  C129  S    
C80   H39   S    
C74   C96   S    
O47   Zn10  S    
C42   H34   S    
C39   C40   A    
C66   C92   S    
O29   Zn3   S    
C99   C134  S    
C102  C137  S    
O30   Zn4   S    
C117  C122  A    
C121  C125  S    
C123  C127  S    
C51   C82   S    
C49   I8    S    
C82   O19   A    
O44   Zn1   S    
C32   C37   A    
O21   Zn11  S    
O22   Zn12  S    
C2    C73   S    
C113  C117  A    
C77   H36   S    
C28   O38   A    
C32   C119  S    
C2    H28   S    
C112  C116  A    
C134  I1    S    
C60   H41   S    
C46   I6    S    
C115  H4    S    
C103  C107  A    
C13   C59   S    
C137  H17   S    
C14   H19   S    
C74   C88   S    
C57   C75   S    
O1    Zn5   S    
C125  H5    S    
C126  H10   S    
C83   O11   A    
C28   C37   S    
O8    Zn15  S    
C37   C41   A    
C10   C11   A    
C67   C93   S    
C47   H57   S    
C69   I10   S    
C12   H18   S    
C64   O7    A    
C125  C134  S    
C133  O55   A    
C110  H58   S    
C41   C42   A    
O33   Zn14  S    
O2    Zn6   S    
C54   C84   S    
C25   O35   A    
O34   Zn11  S    
C28   O47   A    
O39   Zn8   S    
C105  C110  A    
C64   O16   A    
C108  I3    S    
C3    C7    A    
C131  O24   A    
C71   C76   S    
C17   O27   A    
O6    Zn13  S    
O17   Zn8   S    
C73   C87   S    
C54   C93   T    
C51   C91   T    
C83   O20   A    
O34   Zn4   S    
C14   C138  S    
C57   C96   T    
C69   C73   S    
C84   O21   A    
C124  C128  S    
C82   O10   A    
C108  C119  S    
C48   C130  S    
C55   C94   T    
C102  C124  A    
O3    Zn7   S    
C45   H53   S    
O5    Zn12  S    
C19   O3    A    
O12   Zn13  S    
C128  H8    S    
C60   C71   S    
C71   I13   S    
C62   C69   S    
C52   C83   S    
C53   O6    A    
C45   H52   S    
C1    O14   A    
C85   H31   S    
C128  H13   S    
C19   C105  S    
O10   Zn2   S    
C126  C135  S    
C41   H23   S    
O48   Zn11  S    
C75   O17   A    
O31   Zn12  S    
C89   H35   S    
O34   Zn15  S    
C129  O45   A    
C1    O5    A    
O13   Zn4   S    
C65   C78   S    
C19   O29   A    
C67   C80   S    
C6    C10   A    
O25   Zn14  S    
C7    C25   S    
C32   C33   A    
C26   O36   A    
O45   Zn1   S    
C134  H14   S    
C25   O43   A    
C87   H32   S    
C48   I7    S    
C118  C123  A    
C6    C140  A    
C18   O2    A    
C138  C139  A    
C59   C70   S    
C4    C138  A    
C18   O28   A    
C13   C74   S    
O12   Zn6   S    
C108  H25   S    
C47   H54   S    
O1    Zn1   S    
C4    C8    A    
C126  H6    S    
C7    C11   A    
C101  C123  A    
C62   C67   S    
C75   O8    A    
C38   C42   A    
C80   C87   S    
C104  C109  A    
C136  H16   S    
C26   O44   A    
O56   Zn5   S    
C22   O41   A    
C15   C16   S    
C43   H44   S    
C135  H15   S    
O23   Zn7   S    
C61   C66   S    
C26   C34   S    
C5    C22   S    
C8    C9    A    
C14   I17   S    
C86   H22   S    
C53   O15   A    
C109  C113  A    
C111  H59   S    
C97   H24   S    
O23   Zn14  S    
C31   C86   S    
C70   I11   S    
C68   I9    S    
C35   I5    S    
C136  I14   S    
C53   C55   S    
C101  C105  A    
O26   Zn15  S    
O15   Zn6   S    
C36   C40   A    
C18   C104  S    
C43   H46   S    
C88   H33   S    
C122  C126  S    
O1    Zn12  S    
C128  C137  S    
C8    O49   S    
C2    C49   S    
C35   C88   S    
C24   C60   S    
C132  O54   A    
C79   H38   S    
C119  H26   S    
C114  C118  A    
C61   C130  S    
C44   H48   S    
C12   C14   S    
O37   Zn6   S    
C17   O56   A    
C3    C15   S    
C44   O50   S    
C63   C77   S    
C101  C136  S    
C45   O51   S    
C49   C67   S    
O9    Zn16  S    
C21   O31   A    
C21   O40   A    
C72   C130  S    
C107  H45   S    
C27   C36   S    
C48   C66   S    
C84   O13   A    
C17   C103  S    
C4    C21   S    
C61   C68   S    
C6    C23   S    
C63   C90   S    
C102  C106  A    
C100  C122  A    
C52   C92   T    
C2    C62   S    
C115  C120  A    
C73   C95   S    
C48   C85   S    
C69   C80   S    
C111  C115  A    
C3    C140  A    
C71   C78   S    
C120  C124  A    
C127  H7    S    
