data_mof_unit_37511.cif
_audit_creation_date              2012-12-11T14:17:50-0500
_audit_creation_method            fapswitch 2.2
_symmetry_space_group_name_H-M    P1
_symmetry_Int_Tables_number       1
_space_group_crystal_system       triclinic
_cell_length_a                    11.398418
_cell_length_b                    11.579728
_cell_length_c                    18.946781
_cell_angle_alpha                 91.368777
_cell_angle_beta                  88.781844
_cell_angle_gamma                 121.087757
_cell_volume                      2140.89835645

loop_
_atom_site_label
_atom_site_type_symbol
_atom_type_description
_atom_site_fract_x
_atom_site_fract_y
_atom_site_fract_z
_atom_type_partial_charge
C1    C     C_R   0.517149 0.453567 0.147746 0.560368
C2    C     C_R   0.077095 0.458903 0.526647 -0.118931
C3    C     C_R   0.367225 0.880749 0.520527 -0.121504
C4    C     C_R   0.556171 0.596369 0.531085 -0.126824
C5    C     C_R   0.725854 0.970687 0.561063 -0.073657
C6    C     C_R   0.872118 0.606491 0.593017 -0.101454
C7    C     C_R   0.393844 0.250295 0.604040 -0.110190
C8    C     C_R   0.928975 0.692851 0.454622 -0.070608
C9    C     C_R   0.775046 0.146951 0.455585 -0.126332
C10   C     C_R   0.353018 0.196877 0.460348 -0.115669
C11   C     C_R   0.859176 0.057676 0.539584 0.521322
C12   C     C_R   0.548068 0.064538 0.147725 0.546654
C13   C     C_R   0.851756 0.708110 0.571799 0.449155
C14   C     C_R   0.298021 0.121461 0.580540 0.467949
C15   C     C_R   0.881181 0.751793 0.502374 0.474213
C16   C     C_R   0.883273 0.141006 0.484212 0.418121
C17   C     C_R   0.271416 0.097541 0.508981 0.450085
C18   C     C_R   0.543033 0.422639 0.360911 0.531869
C19   C     C_R   0.550093 0.074035 0.356396 0.529392
C20   C     C_R   0.934250 0.483426 0.354197 0.534843
C21   C     C_R   0.457655 0.518452 0.647683 0.530752
C22   C     C_R   0.067143 0.544564 0.645987 0.507895
C23   C     C_R   0.889303 0.461489 0.139768 0.543612
C24   C     C_R   0.456101 0.875344 0.638998 0.523016
C25   C     C_R   0.503961 0.968856 0.931160 -0.035506
C26   C     C_R   0.972950 0.518357 0.915943 -0.006737
C27   C     C_R   0.482115 0.495637 0.927793 -0.022828
C28   C     C_R   0.921770 0.485229 0.061832 -0.036108
C29   C     C_R   0.524282 0.996518 0.078165 -0.013104
C30   C     C_R   0.481509 0.482087 0.077469 -0.006596
C31   C     C_R   0.403601 0.971056 0.973804 -0.031508
C32   C     C_R   0.903431 0.391554 0.944751 -0.035625
C33   C     C_R   0.588419 0.597782 0.968760 -0.029813
C34   C     C_R   0.454076 0.520889 0.854010 0.543454
C35   C     C_R   0.930129 0.392363 0.017095 -0.030076
C36   C     C_R   0.399153 0.944657 0.046055 -0.027626
C37   C     C_R   0.569554 0.600836 0.043044 -0.021349
C38   C     C_R   0.638223 0.014723 0.036446 -0.049649
C39   C     C_R   0.944068 0.604635 0.029194 -0.049291
C40   C     C_R   0.377140 0.375434 0.037833 -0.050083
C41   C     C_R   0.980823 0.626058 0.957917 -0.051399
C42   C     C_R   0.621817 0.985401 0.964961 -0.046887
C43   C     C_R   0.377859 0.381655 0.964129 -0.054431
C44   C     C_R   0.326888 0.024780 0.950971 0.021991
C45   C     C_R   0.060507 0.547240 0.850979 0.533032
C46   C     C_R   0.886029 0.285753 0.902093 -0.013538
C47   C     C_R   0.715801 0.694592 0.940402 0.013164
C48   C     C_R   0.018595 0.347727 0.032444 0.023431
C49   C     C_R   0.284041 0.915759 0.086179 0.002148
C50   C     C_R   0.647086 0.721254 0.080859 0.010489
C51   C     C_R   0.230178 0.025182 0.998307 -0.127324
C52   C     C_R   0.968299 0.235899 0.917348 -0.091363
C53   C     C_R   0.806016 0.801732 0.984104 -0.128790
C54   C     C_R   0.028184 0.260201 0.983540 -0.119251
C55   C     C_R   0.212193 0.973586 0.065292 -0.117179
C56   C     C_R   0.477334 0.924875 0.855930 0.550325
C57   C     C_R   0.766355 0.818839 0.050696 -0.129195
C58   C     C_R   0.478073 0.908166 0.563127 -0.009823
C59   C     C_R   0.012796 0.505143 0.574136 0.004411
C60   C     C_R   0.502189 0.492098 0.579751 0.025590
C61   C     C_R   0.989072 0.516532 0.427056 -0.009603
C62   C     C_R   0.523406 0.022412 0.428919 0.004555
C63   C     C_R   0.522689 0.441798 0.435969 0.011268
C64   C     C_R   0.612712 0.974213 0.532807 -0.059182
C65   C     C_R   0.938288 0.559630 0.547353 -0.062114
C66   C     C_R   0.452887 0.358603 0.556315 -0.060277
C67   C     C_R   0.390217 0.930196 0.451831 -0.130633
C68   C     C_R   0.949014 0.587575 0.474867 -0.066791
C69   C     C_R   0.636709 0.050731 0.472530 -0.039596
C70   C     C_R   0.446325 0.331303 0.482907 -0.057810
C71   C     C_1   0.772122 0.067880 0.066703 0.217600
C72   C     C_1   0.948654 0.710265 0.071631 0.231793
C73   C     C_1   0.260298 0.270200 0.075155 0.216702
C74   C     C_1   0.026282 0.755882 0.927324 0.222836
C75   C     C_1   0.726184 0.975783 0.925746 0.229533
C76   C     C_1   0.271523 0.271341 0.924553 0.200265
C77   C     C_1   0.366223 0.097898 0.885298 0.267580
C78   C     C_R   0.061808 0.461383 0.453674 -0.116064
C79   C     C_1   0.818448 0.256922 0.834603 0.227652
C80   C     C_1   0.761035 0.678196 0.870869 0.261568
C81   C     C_1   0.111740 0.407604 0.091190 0.255707
C82   C     C_1   0.252109 0.845967 0.152693 0.248162
C83   C     C_1   0.606472 0.747650 0.149446 0.240895
C84   C     C_R   0.573770 0.573037 0.461086 -0.140451
Cr1   Cr    Cr6+3 0.768550 0.541320 0.250660 1.074788
Cr2   Cr    Cr6+3 0.458680 0.227230 0.250660 1.062885
Cr3   Cr    Cr6+3 0.772770 0.231450 0.250660 1.101069
Cr4   Cr    Cr6+3 0.541320 0.768550 0.749340 1.115474
Cr5   Cr    Cr6+3 0.227230 0.458680 0.749340 1.086307
Cr6   Cr    Cr6+3 0.231450 0.772770 0.749340 1.153553
F1    F     F_    0.964294 0.053835 0.569463 -0.493226
F2    F     F_    0.809871 0.767296 0.620088 -0.595446
F3    F     F_    0.225296 0.021951 0.627515 -0.543350
F4    F     F_    0.859191 0.847805 0.478913 -0.593596
F5    F     F_    0.008770 0.203233 0.453457 -0.608050
F6    F     F_    0.167435 0.976645 0.486195 -0.596484
H1    H     H_    0.159191 0.054433 0.984556 0.144054
H2    H     H_    0.142882 0.424794 0.545779 0.187310
H3    H     H_    0.263111 0.820624 0.540300 0.189971
H4    H     H_    0.581372 0.696402 0.546727 0.156379
H5    H     H_    0.714756 0.896366 0.597337 0.239470
H6    H     H_    0.848777 0.574460 0.647393 0.170835
H7    H     H_    0.411494 0.266966 0.660288 0.176130
H8    H     H_    0.961495 0.741840 0.404364 0.212818
H9    H     H_    0.800158 0.224713 0.419122 0.174680
H10   H     H_    0.331650 0.165825 0.406146 0.200959
H11   H     H_    0.984201 0.178902 0.877063 0.196290
H12   H     H_    0.904861 0.880705 0.966753 0.158346
H13   H     H_    0.068252 0.199697 0.997948 0.142570
H14   H     H_    0.145632 0.982675 0.102215 0.186739
H15   H     H_    0.839887 0.899116 0.083033 0.179123
H16   H     H_    0.304181 0.900932 0.417538 0.183907
H17   H     H_    0.109633 0.424071 0.417407 0.213281
H18   H     H_    0.620406 0.657812 0.425697 0.191584
N1    N     N_1   0.872825 0.108312 0.097576 -0.273203
N2    N     N_1   0.185141 0.458582 0.138321 -0.240318
N3    N     N_1   0.226705 0.790165 0.205805 -0.231676
N4    N     N_1   0.573960 0.768979 0.204176 -0.234270
N5    N     N_1   0.949663 0.784286 0.113825 -0.308015
N6    N     N_1   0.168498 0.192902 0.109023 -0.285325
N7    N     N_1   0.059819 0.852890 0.895919 -0.257208
N8    N     N_1   0.800621 0.963921 0.887997 -0.286706
N9    N     N_1   0.189718 0.188057 0.888127 -0.282216
N10   N     N_1   0.401198 0.155493 0.832503 -0.227601
N11   N     N_1   0.764409 0.233922 0.780657 -0.248142
N12   N     N_1   0.796315 0.664408 0.815149 -0.215725
O1    O     O_R   0.910960 0.572410 0.171010 -0.473205
O2    O     O_R   0.528530 0.639750 0.824400 -0.493777
O3    O     O_R   0.111220 0.471470 0.824400 -0.500246
O4    O     O_R   0.360250 0.888780 0.824400 -0.476725
O5    O     O_R   0.909330 0.572400 0.331540 -0.530723
O6    O     O_R   0.427600 0.336930 0.331540 -0.500278
O7    O     O_R   0.663070 0.090670 0.331540 -0.494045
O8    O     O_R   0.572400 0.909330 0.668460 -0.518544
O9    O     O_R   0.336930 0.427600 0.668460 -0.506252
O10   O     O_R   0.090670 0.663070 0.668460 -0.484954
O11   O     O_R   0.638240 0.528520 0.324410 -0.490588
O12   O     O_R   0.427590 0.338550 0.171010 -0.485042
O13   O     O_R   0.471480 0.109720 0.324410 -0.532444
O14   O     O_R   0.890280 0.361760 0.324410 -0.498017
O15   O     O_R   0.528520 0.638240 0.675590 -0.481020
O16   O     O_R   0.109720 0.471480 0.675590 -0.499154
O17   O     O_R   0.361760 0.890280 0.675590 -0.421742
O18   O     O_3   0.666667 0.333333 0.250630 -0.343493
O19   O     O_3   0.333333 0.666667 0.749370 -0.344431
O20   O     O_R   0.661450 0.089040 0.171010 -0.491135
O21   O     O_R   0.572410 0.910960 0.828990 -0.484954
O22   O     O_R   0.338550 0.427590 0.828990 -0.482216
O23   O     O_R   0.089040 0.661450 0.828990 -0.490483
O24   O     O_R   0.639750 0.528530 0.175600 -0.498527
O25   O     O_R   0.471470 0.111220 0.175600 -0.501908
O26   O     O_R   0.888780 0.360250 0.175600 -0.464690

loop_
_geom_bond_atom_site_label_1
_geom_bond_atom_site_label_2
_ccdc_geom_bond_type
C25   C31   A    
Cr5   O22   S    
C23   O26   A    
C11   F1    S    
C51   H1    S    
Cr5   O9    S    
Cr3   O20   S    
C12   C29   S    
C75   N8    T    
Cr3   O7    S    
C18   O6    A    
C14   C17   A    
C25   C56   S    
Cr3   O14   S    
C15   F4    S    
Cr2   O18   S    
C39   C41   A    
C57   H15   S    
C27   C33   A    
Cr5   O19   S    
C29   C36   A    
C42   C75   S    
C62   C67   A    
C83   N4    T    
C44   C77   S    
C9    C16   A    
C9    C69   A    
C38   C42   A    
Cr6   O19   S    
C46   C79   S    
C18   C63   S    
C19   C62   S    
C9    H9    S    
Cr5   O16   S    
C46   C52   A    
Cr4   O2    S    
Cr5   O3    S    
C48   C81   S    
C81   N2    T    
C12   O20   A    
C20   C61   S    
Cr1   O24   S    
C26   C45   S    
C41   C74   S    
C34   O22   A    
C7    C14   A    
C30   C37   A    
C28   C35   A    
C29   C38   A    
Cr4   O19   S    
Cr3   O18   S    
C14   F3    S    
C51   C55   A    
Cr6   O17   S    
C47   C53   A    
C79   N11   T    
C60   C66   A    
C73   N6    T    
C7    H7    S    
C76   N9    T    
C12   O25   A    
C22   O16   A    
C47   C80   S    
Cr6   O23   S    
C35   C48   A    
Cr1   O18   S    
C52   C54   A    
C50   C83   S    
C59   C65   A    
C6    C65   A    
C27   C34   S    
C58   C64   A    
C5    H5    S    
C31   C44   A    
C71   N1    T    
C1    O12   A    
C32   C35   A    
C52   H11   S    
C21   C60   S    
C22   C59   S    
C53   C57   A    
C26   C32   A    
C28   C39   A    
C49   C55   A    
C33   C37   A    
C54   H13   S    
C22   O10   A    
C49   C82   S    
C18   O11   A    
C48   C54   A    
C2    C78   A    
C27   C43   A    
Cr6   O10   S    
C11   C16   A    
C4    C84   A    
C63   C70   A    
C61   C78   A    
C39   C72   S    
C65   C68   A    
C4    C60   A    
C30   C40   A    
C1    O24   A    
C17   F6    S    
C23   C28   S    
C8    H8    S    
C2    H2    S    
Cr2   O13   S    
C10   C70   A    
C44   C51   A    
C34   O2    A    
C8    C68   A    
C8    C15   A    
Cr3   O26   S    
C4    H4    S    
C55   H14   S    
C33   C47   A    
Cr1   O1    S    
C78   H17   S    
C20   O5    A    
C10   C17   A    
Cr1   O11   S    
Cr4   O15   S    
C23   O1    A    
C24   O8    A    
C43   C76   S    
C38   C71   S    
C16   F5    S    
C84   H18   S    
C2    C59   A    
C50   C57   A    
C32   C46   A    
C3    C67   A    
C25   C42   A    
C5    C11   A    
C19   O7    A    
C64   C69   A    
C63   C84   A    
C5    C64   A    
C40   C43   A    
C20   O14   A    
C56   O21   A    
C13   C15   A    
Cr4   O8    S    
C13   F2    S    
C77   N10   T    
Cr2   O25   S    
Cr1   O5    S    
C7    C66   A    
C37   C50   A    
C61   C68   A    
Cr2   O6    S    
C66   C70   A    
C80   N12   T    
C53   H12   S    
C45   O3    A    
C72   N5    T    
C1    C30   S    
Cr4   O21   S    
C45   O23   A    
C6    H6    S    
C10   H10   S    
Cr2   O12   S    
C21   O15   A    
Cr6   O4    S    
C3    C58   A    
C3    H3    S    
C67   H16   S    
C74   N7    T    
C62   C69   A    
C24   C58   S    
C31   C36   A    
C24   O17   A    
C82   N3    T    
C40   C73   S    
C21   O9    A    
C19   O13   A    
C56   O4    A    
C36   C49   A    
C26   C41   A    
C6    C13   A    
