data_mof_unit_67245.cif
_audit_creation_date              2013-03-05T16:01:27-0500
_audit_creation_method            fapswitch 2.2
_symmetry_space_group_name_H-M    P1
_symmetry_Int_Tables_number       1
_space_group_crystal_system       triclinic
_cell_length_a                    20.200454
_cell_length_b                    20.175119
_cell_length_c                    8.407795
_cell_angle_alpha                 90.059956
_cell_angle_beta                  92.327449
_cell_angle_gamma                 90.038505
_cell_volume                      3423.73847472

loop_
_atom_site_label
_atom_site_type_symbol
_atom_site_description
_atom_site_fract_x
_atom_site_fract_y
_atom_site_fract_z
_atom_type_partial_charge
P1    P     P_3+3 0.136530 0.426510 0.931350 0.447401
P2    P     P_3+3 0.136530 0.573490 0.431350 0.455581
P3    P     P_3+3 0.636530 0.926510 0.931350 0.447410
P4    P     P_3+3 0.636530 0.073490 0.431350 0.455587
O1    O     O_2   0.130070 0.404060 0.104920 -0.352640
O2    O     O_2   0.130070 0.595940 0.604920 -0.391704
O3    O     O_2   0.630070 0.904060 0.104920 -0.352659
O4    O     O_2   0.630070 0.095940 0.604920 -0.391729
O5    O     O_3   0.075780 0.466370 0.861070 -0.405319
O6    O     O_3   0.075780 0.533630 0.361070 -0.386981
O7    O     O_3   0.575780 0.966370 0.861070 -0.405315
O8    O     O_3   0.575780 0.033630 0.361070 -0.386967
O9    O     O_3   0.022320 0.344950 0.359800 -0.333168
O10   O     O_3   0.022320 0.655050 0.859800 -0.329620
O11   O     O_3   0.522320 0.844950 0.359800 -0.333180
O12   O     O_3   0.522320 0.155050 0.859800 -0.329531
O13   O     O_2   0.129540 0.290142 0.245886 -0.392190
O14   O     O_2   0.133261 0.702867 0.747144 -0.391610
O15   O     O_2   0.629534 0.790137 0.245874 -0.392192
O16   O     O_2   0.633257 0.202887 0.747046 -0.391589
O17   O     O_3   0.207686 0.475261 0.950457 -0.588335
O18   O     O_3   0.205386 0.520919 0.436431 -0.572424
O19   O     O_3   0.707693 0.975252 0.950450 -0.588315
O20   O     O_3   0.705384 0.020915 0.436435 -0.572436
O21   O     O_3   0.040088 0.206837 0.340637 -0.556011
O22   O     O_3   0.046426 0.791466 0.816799 -0.550214
O23   O     O_3   0.540078 0.706841 0.340649 -0.556007
O24   O     O_3   0.546529 0.291527 0.817114 -0.550941
C1    C     C_3   0.966415 0.130359 0.462511 -1.229029
C2    C     C_3   0.979632 0.882606 0.899742 -1.049213
C3    C     C_3   0.466376 0.630391 0.462506 -1.229341
C4    C     C_3   0.479850 0.382621 0.900927 -1.052069
H1    H     H_    0.959144 0.102876 0.349059 0.283729
H2    H     H_    0.950071 0.884753 0.785640 0.270521
H3    H     H_    0.459124 0.602900 0.349058 0.283802
H4    H     H_    0.450656 0.385399 0.786383 0.270278
H5    H     H_    0.007627 0.107075 0.533246 0.276351
H6    H     H_    0.023137 0.915931 0.893199 0.245617
H7    H     H_    0.507574 0.607110 0.533298 0.276386
H8    H     H_    0.523557 0.415768 0.896032 0.246284
P5    P     P_3+3 0.863410 0.426100 0.379280 0.495175
P6    P     P_3+3 0.863410 0.573900 0.879280 0.484389
P7    P     P_3+3 0.363410 0.926100 0.379280 0.495169
P8    P     P_3+3 0.363410 0.073900 0.879280 0.484523
P9    P     P_3+3 0.915922 0.284487 0.933899 0.486245
P10   P     P_3+3 0.916044 0.715826 0.436030 0.485283
P11   P     P_3+3 0.415920 0.784488 0.933886 0.486295
P12   P     P_3+3 0.416034 0.215818 0.436037 0.484818
O25   O     O_2   0.869860 0.403670 0.205810 -0.351641
O26   O     O_2   0.869860 0.596330 0.705810 -0.312883
O27   O     O_2   0.369860 0.903670 0.205810 -0.351565
O28   O     O_2   0.369860 0.096330 0.705810 -0.312679
O29   O     O_3   0.977590 0.344880 0.951200 -0.338608
O30   O     O_3   0.977590 0.655120 0.451200 -0.342125
O31   O     O_3   0.477590 0.844880 0.951200 -0.338597
O32   O     O_3   0.477590 0.155120 0.451200 -0.342119
O33   O     O_2   0.866997 0.296924 0.066636 -0.362974
O34   O     O_2   0.868748 0.705216 0.573265 -0.380423
O35   O     O_2   0.366991 0.796927 0.066616 -0.362898
O36   O     O_2   0.368667 0.205138 0.573090 -0.380315
O37   O     O_3   0.801997 0.485244 0.345409 -0.586982
O38   O     O_3   0.801047 0.515297 0.838420 -0.598978
O39   O     O_3   0.301999 0.985246 0.345408 -0.587050
O40   O     O_3   0.301040 0.015301 0.838450 -0.599089
O41   O     O_3   0.954571 0.210484 0.991581 -0.519431
O42   O     O_3   0.955500 0.790643 0.485311 -0.526764
O43   O     O_3   0.454567 0.710484 0.991564 -0.519438
O44   O     O_3   0.455465 0.290617 0.485601 -0.527140
C5    C     C_3   0.994877 0.189356 0.869574 0.221719
C6    C     C_3   0.991691 0.811279 0.355019 0.254649
C7    C     C_3   0.494878 0.689359 0.869561 0.221665
C8    C     C_3   0.491822 0.311182 0.355542 0.253735
H9    H     H_    0.018547 0.231447 0.807818 0.007523
H10   H     H_    0.012644 0.768662 0.289287 0.012288
H11   H     H_    0.518546 0.731451 0.807806 0.007536
H12   H     H_    0.512975 0.268518 0.290363 0.011815
H13   H     H_    0.963694 0.160388 0.783192 0.083804
H14   H     H_    0.958316 0.840024 0.272553 0.065748
H15   H     H_    0.463699 0.660389 0.783174 0.083812
H16   H     H_    0.458509 0.339777 0.272620 0.065224
C9    C     C_3   0.051700 0.145604 0.936531 0.398961
C10   C     C_3   0.050791 0.854296 0.411490 0.378654
C11   C     C_3   0.551703 0.645610 0.936524 0.398962
C12   C     C_3   0.550776 0.354360 0.412164 0.378801
H17   H     H_    0.092312 0.178853 0.982580 0.073643
H18   H     H_    0.090116 0.820333 0.461239 0.061045
H19   H     H_    0.592305 0.678861 0.982613 0.073682
H20   H     H_    0.590120 0.320546 0.462427 0.061867
C13   C     C_3   0.765831 0.499973 0.973537 0.604605
C14   C     C_3   0.759665 0.491650 0.472271 0.664726
C15   C     C_3   0.265816 0.000007 0.973578 0.604623
C16   C     C_3   0.259677 0.991668 0.472281 0.665739
H21   H     H_    0.796797 0.508267 0.081964 0.106829
H22   H     H_    0.779730 0.467328 0.581975 0.060358
H23   H     H_    0.296800 0.008271 0.081988 0.106842
H24   H     H_    0.279731 0.967333 0.581981 0.060257
C17   C     C_3   0.704125 0.543759 0.980345 -1.003462
C18   C     C_3   0.692972 0.459849 0.426540 -1.080701
C19   C     C_3   0.204151 0.043848 0.980423 -1.003586
C20   C     C_3   0.192968 0.959901 0.426547 -1.082774
H25   H     H_    0.679778 0.547063 0.860502 0.296735
H26   H     H_    0.695526 0.405681 0.446651 0.238059
H27   H     H_    0.179826 0.047207 0.860567 0.296751
H28   H     H_    0.179454 0.969380 0.299792 0.301450
H29   H     H_    0.668544 0.522947 0.063643 0.254788
H30   H     H_    0.679434 0.469351 0.299808 0.301504
H31   H     H_    0.168541 0.023045 0.063662 0.254875
H32   H     H_    0.153253 0.980272 0.499623 0.249659
H33   H     H_    0.717339 0.594428 0.020297 0.216082
H34   H     H_    0.653252 0.480165 0.499690 0.249435
H35   H     H_    0.217406 0.094492 0.020473 0.215916
H36   H     H_    0.195483 0.905737 0.446754 0.237892
Ba1   Ba    Ba6+2 0.999980 0.452130 0.155200 1.577419
Ba2   Ba    Ba6+2 0.999980 0.547870 0.655200 1.578526
Ba3   Ba    Ba6+2 0.499980 0.952130 0.155200 1.577398
Ba4   Ba    Ba6+2 0.499980 0.047870 0.655200 1.578463
C21   C     C_3   0.192013 0.541688 0.975055 0.328617
C22   C     C_3   0.191424 0.461673 0.515193 0.400956
C23   C     C_3   0.692029 0.041682 0.975035 0.328624
C24   C     C_3   0.691418 0.961667 0.515178 0.400929
H37   H     H_    0.169323 0.547117 0.091959 0.066925
H38   H     H_    0.193614 0.471277 0.644644 0.060103
H39   H     H_    0.669350 0.047116 0.091949 0.066975
H40   H     H_    0.693622 0.971260 0.644634 0.060096
H41   H     H_    0.157530 0.560552 0.879884 0.125543
H42   H     H_    0.141888 0.441644 0.478593 0.077370
H43   H     H_    0.657541 0.060545 0.879874 0.125515
H44   H     H_    0.641877 0.941647 0.478594 0.077383
C25   C     C_3   0.256151 0.582346 0.974457 -0.457674
C26   C     C_3   0.243162 0.408817 0.477115 -0.452986
C27   C     C_3   0.756170 0.082336 0.974401 -0.457650
C28   C     C_3   0.743142 0.908808 0.477044 -0.452897
H45   H     H_    0.285832 0.574700 0.087059 0.190291
H46   H     H_    0.245900 0.372147 0.575614 0.125244
H47   H     H_    0.785854 0.074699 0.087001 0.190272
H48   H     H_    0.745851 0.872102 0.575467 0.125213
H49   H     H_    0.243026 0.635772 0.969691 0.148827
H50   H     H_    0.227099 0.381256 0.367616 0.198921
H51   H     H_    0.743049 0.135762 0.969609 0.148822
H52   H     H_    0.727087 0.881293 0.367473 0.198955
O45   O     O_3   0.924190 0.533610 0.949240 -0.368438
O46   O     O_3   0.924190 0.466390 0.449240 -0.354504
O47   O     O_3   0.424190 0.033610 0.949240 -0.368493
O48   O     O_3   0.424190 0.966390 0.449240 -0.354521
P13   P     P_3+3 0.083152 0.716356 0.876866 0.469264
P14   P     P_3+3 0.080871 0.282047 0.381886 0.468075
P15   P     P_3+3 0.583180 0.216336 0.876862 0.469031
P16   P     P_3+3 0.580869 0.782048 0.381884 0.468061
C29   C     C_3   0.982848 0.203112 0.431111 1.134319
C30   C     C_3   0.002891 0.811984 0.933619 1.012219
C31   C     C_3   0.482827 0.703137 0.431091 1.134453
C32   C     C_3   0.502642 0.311745 0.933471 1.015621
H53   H     H_    0.990340 0.227125 0.548948 -0.086641
H54   H     H_    0.029320 0.812852 0.050833 -0.020684
H55   H     H_    0.490312 0.727156 0.548923 -0.086646
H56   H     H_    0.528617 0.311998 0.051253 -0.023708
H57   H     H_    0.920150 0.126600 0.528981 0.256504
H58   H     H_    0.948236 0.900051 0.996800 0.237260
H59   H     H_    0.420098 0.626646 0.528930 0.256516
H60   H     H_    0.448221 0.399809 0.997798 0.237494
C33   C     C_R   0.240884 0.305402 0.007064 -0.159556
C34   C     C_R   0.240607 0.695473 0.504369 -0.152929
C35   C     C_R   0.740863 0.805384 0.007094 -0.159390
C36   C     C_R   0.740622 0.195462 0.504376 -0.152934
C37   C     C_R   0.149976 0.347473 0.822802 0.251964
C38   C     C_R   0.150540 0.652372 0.319758 0.256163
C39   C     C_R   0.649971 0.847469 0.822806 0.251967
C40   C     C_R   0.650562 0.152357 0.319745 0.256502
C41   C     C_R   0.112001 0.338243 0.681383 -0.496172
C42   C     C_R   0.112609 0.661833 0.178297 -0.473804
C43   C     C_R   0.611999 0.838242 0.681382 -0.496198
C44   C     C_R   0.612648 0.161806 0.178260 -0.474499
C45   C     C_R   0.124268 0.285561 0.579354 0.203251
C46   C     C_R   0.126222 0.713678 0.074477 0.193853
C47   C     C_R   0.624267 0.785562 0.579349 0.203288
C48   C     C_R   0.626292 0.213624 0.074402 0.193517
C49   C     C_R   0.170410 0.237388 0.625798 -0.361975
C50   C     C_R   0.175031 0.759972 0.116760 -0.374316
C51   C     C_R   0.670410 0.737390 0.625789 -0.362091
C52   C     C_R   0.675111 0.259909 0.116665 -0.373816
C53   C     C_R   0.208679 0.243719 0.768470 0.094289
C54   C     C_R   0.211087 0.755153 0.262380 0.094727
C55   C     C_R   0.708672 0.743713 0.768471 0.094262
C56   C     C_R   0.711138 0.255113 0.262326 0.094687
C57   C     C_R   0.199877 0.299752 0.867601 -0.013502
C58   C     C_R   0.200724 0.700155 0.363576 -0.013633
C59   C     C_R   0.699866 0.799744 0.867611 -0.013495
C60   C     C_R   0.700753 0.200132 0.363558 -0.013816
H61   H     H_    0.074758 0.374432 0.646011 0.166490
H62   H     H_    0.074867 0.625970 0.143510 0.169730
H63   H     H_    0.574756 0.874433 0.646010 0.166490
H64   H     H_    0.574891 0.125954 0.143492 0.169751
C61   C     C_R   0.796555 0.699940 0.950538 0.003915
C62   C     C_R   0.796885 0.300425 0.448153 0.028140
C63   C     C_R   0.296582 0.199961 0.950503 0.004935
C64   C     C_R   0.296866 0.800440 0.448163 0.028406
C65   C     C_R   0.787258 0.755623 0.051147 0.131800
C66   C     C_R   0.787510 0.244725 0.548229 0.114727
C67   C     C_R   0.287294 0.255651 0.051096 0.132150
C68   C     C_R   0.287497 0.744735 0.548226 0.114650
C69   C     C_R   0.845310 0.651003 0.995546 0.170596
C70   C     C_R   0.845326 0.349362 0.494767 0.209304
C71   C     C_R   0.345342 0.151027 0.995501 0.172011
C72   C     C_R   0.345319 0.849367 0.494766 0.209325
C73   C     C_R   0.881671 0.658959 0.139832 -0.344912
C74   C     C_R   0.881829 0.341250 0.638570 -0.391439
C75   C     C_R   0.381732 0.159004 0.139740 -0.345644
C76   C     C_R   0.381829 0.841248 0.638555 -0.391494
C77   C     C_R   0.870384 0.712288 0.241379 0.238987
C78   C     C_R   0.871216 0.287344 0.738267 0.201745
C79   C     C_R   0.370446 0.212334 0.241286 0.238142
C80   C     C_R   0.371214 0.787344 0.738252 0.201765
C81   C     C_R   0.823767 0.760588 0.196810 -0.315101
C82   C     C_R   0.824447 0.239186 0.693207 -0.327669
C83   C     C_R   0.323820 0.260628 0.196733 -0.315443
C84   C     C_R   0.324441 0.739189 0.693193 -0.327672
C85   C     C_R   0.756477 0.695159 0.810252 -0.183283
C86   C     C_R   0.757922 0.304555 0.305710 -0.181475
C87   C     C_R   0.256489 0.195169 0.810246 -0.183624
C88   C     C_R   0.257883 0.804586 0.305752 -0.182045
H65   H     H_    0.175363 0.194643 0.550980 0.155763
H66   H     H_    0.184677 0.799914 0.036203 0.170800
H67   H     H_    0.675364 0.694647 0.550966 0.155802
H68   H     H_    0.684772 0.299839 0.036087 0.170974
H69   H     H_    0.815471 0.801413 0.277099 0.142749
H70   H     H_    0.816539 0.197888 0.772195 0.152744
H71   H     H_    0.315516 0.301446 0.277036 0.142892
H72   H     H_    0.316534 0.697889 0.772177 0.152756
H73   H     H_    0.917923 0.621926 0.176230 0.158336
H74   H     H_    0.917853 0.378462 0.675798 0.161901
H75   H     H_    0.417982 0.121969 0.176141 0.158327
H76   H     H_    0.417859 0.878456 0.675777 0.161901
H77   H     H_    0.237015 0.348037 0.083741 0.168625
H78   H     H_    0.234980 0.654120 0.582552 0.155014
H79   H     H_    0.736994 0.848018 0.083772 0.168612
H80   H     H_    0.734983 0.154117 0.582581 0.155024
H81   H     H_    0.762118 0.653625 0.732436 0.172589
H82   H     H_    0.762604 0.346720 0.228229 0.169944
H83   H     H_    0.262125 0.153632 0.732445 0.172573
H84   H     H_    0.262562 0.846759 0.228287 0.169893
O49   O     O_3   0.929556 0.234925 0.350869 -0.715973
H85   H     H_    0.912711 0.205152 0.264571 0.357924
O50   O     O_3   0.947861 0.769654 0.938914 -0.785880
H86   H     H_    0.928443 0.766332 0.828863 0.366684
O51   O     O_3   0.429550 0.734957 0.350806 -0.715920
H87   H     H_    0.412693 0.705173 0.264541 0.357917
O52   O     O_3   0.447381 0.269626 0.936475 -0.784436
H88   H     H_    0.428280 0.266988 0.826025 0.367038
N1    N     N_2   0.295357 0.566495 0.837962 -0.081191
H89   H     H_    0.270774 0.572272 0.729474 0.201887
C89   C     C_3   0.336367 0.507551 0.845605 -0.755073
H90   H     H_    0.379730 0.515031 0.770801 0.219885
H91   H     H_    0.308478 0.464026 0.797802 0.251260
H92   H     H_    0.354146 0.496675 0.969352 0.246200
N2    N     N_2   0.308117 0.438186 0.459463 -0.062729
H93   H     H_    0.346184 0.414607 0.522217 0.199675
C90   C     C_3   0.324416 0.456693 0.299196 -0.802591
H94   H     H_    0.348053 0.414459 0.238746 0.207304
H95   H     H_    0.359140 0.499339 0.304134 0.229381
H96   H     H_    0.279606 0.471706 0.227712 0.287789
N3    N     N_2   0.795371 0.066470 0.837905 -0.081178
H97   H     H_    0.770785 0.072235 0.729416 0.201915
C91   C     C_3   0.836385 0.007529 0.845581 -0.755195
H98   H     H_    0.879745 0.015000 0.770762 0.220039
H99   H     H_    0.808495 0.963997 0.797820 0.251260
H100  H     H_    0.854166 0.996669 0.969335 0.246149
N4    N     N_2   0.808112 0.938163 0.459523 -0.062746
H101  H     H_    0.846153 0.914568 0.522335 0.199504
C92   C     C_3   0.824468 0.956674 0.299297 -0.802694
H102  H     H_    0.848059 0.914418 0.238828 0.207401
H103  H     H_    0.859254 0.999270 0.304314 0.229353
H104  H     H_    0.779691 0.971762 0.227787 0.287758
O53   O     O_3   0.075287 0.105505 0.814793 -0.803334
H105  H     H_    0.099150 0.134959 0.742227 0.295706
O54   O     O_3   0.074456 0.890055 0.282124 -0.785377
H106  H     H_    0.108231 0.862206 0.232355 0.305558
O55   O     O_3   0.575309 0.605526 0.814781 -0.803290
H107  H     H_    0.599171 0.634989 0.742237 0.295740
O56   O     O_3   0.574566 0.389981 0.282741 -0.784807
H108  H     H_    0.607714 0.361669 0.231987 0.305235
N5    N     N_2   0.031929 0.104261 0.068003 -0.055044
H109  H     H_    0.071561 0.084161 0.132258 0.189347
C93   C     C_3   0.979240 0.057086 0.034582 -0.833249
H110  H     H_    0.975468 0.022187 0.135869 0.232235
H111  H     H_    0.988842 0.028117 0.925782 0.277148
H112  H     H_    0.931436 0.083686 0.019234 0.261932
N6    N     N_2   0.033021 0.899609 0.537295 -0.068430
H113  H     H_    0.071277 0.909037 0.619137 0.186950
C94   C     C_3   0.997093 0.958798 0.489800 -0.789749
H114  H     H_    0.977444 0.983148 0.596466 0.234379
H115  H     H_    0.955157 0.946139 0.406887 0.241881
H116  H     H_    0.030516 0.993934 0.430649 0.270024
N7    N     N_2   0.531926 0.604250 0.067960 -0.055075
H117  H     H_    0.571557 0.584139 0.132200 0.189324
C95   C     C_3   0.479238 0.557080 0.034487 -0.833356
H118  H     H_    0.475450 0.522179 0.135761 0.232218
H119  H     H_    0.488850 0.528114 0.925682 0.277359
H120  H     H_    0.431437 0.583685 0.019121 0.261973
N8    N     N_2   0.532749 0.399804 0.537464 -0.068750
H121  H     H_    0.570842 0.409331 0.619691 0.187101
C96   C     C_3   0.496890 0.458932 0.489197 -0.789861
H122  H     H_    0.476898 0.483315 0.595425 0.234238
H123  H     H_    0.455204 0.446191 0.405611 0.241967
H124  H     H_    0.530464 0.494064 0.430516 0.270025
N9    N     N_2   0.748254 0.429961 0.967518 -0.108815
H125  H     H_    0.789207 0.399581 0.966360 0.195657
C97   C     C_3   0.696394 0.409313 0.853478 -0.952868
H126  H     H_    0.694042 0.442008 0.748463 0.260924
H127  H     H_    0.647888 0.410551 0.910723 0.270741
H128  H     H_    0.705805 0.358169 0.810817 0.248606
N10   N     N_2   0.750703 0.561628 0.505921 -0.076677
H129  H     H_    0.718522 0.570343 0.595542 0.138407
C98   C     C_3   0.740834 0.606242 0.371718 -0.826344
H130  H     H_    0.688463 0.604485 0.326197 0.233375
H131  H     H_    0.774160 0.594507 0.274635 0.243448
H132  H     H_    0.754094 0.657289 0.408994 0.239072
N11   N     N_2   0.248172 0.930012 0.967559 -0.108817
H133  H     H_    0.289095 0.899588 0.966404 0.195609
C99   C     C_3   0.196283 0.909417 0.853537 -0.953287
H134  H     H_    0.193975 0.942103 0.748502 0.261075
H135  H     H_    0.147777 0.910723 0.910783 0.270746
H136  H     H_    0.205628 0.858256 0.810904 0.248611
N12   N     N_2   0.250748 0.061650 0.505945 -0.076659
H137  H     H_    0.218559 0.070372 0.595544 0.138334
C100  C     C_3   0.240902 0.106269 0.371746 -0.826084
H138  H     H_    0.188542 0.104498 0.326145 0.233336
H139  H     H_    0.274263 0.094550 0.274724 0.243381
H140  H     H_    0.254130 0.157320 0.409057 0.239158

loop_
_geom_bond_atom_site_label_1
_geom_bond_atom_site_label_2
_geom_bond_distance
_ccdc_geom_bond_type
O25   Ba1   2.852036 S    
N2    C90   1.449296 S    
C19   H27   1.105232 S    
P5    O37   1.737229 S    
P7    O39   1.737218 S    
C96   H122  1.109697 S    
P8    O40   1.750694 S    
P9    O33   1.540959 D    
C40   C60   1.435387 A    
O5    Ba2   2.799700 S    
C63   C71   1.435188 A    
C12   O56   1.405395 S    
C34   C68   1.410847 A    
C20   H28   1.106228 S    
C61   C69   1.435175 A    
Ba1   O46   2.974079 S    
C2    H6    1.109313 S    
O18   C22   1.401121 S    
C87   H83   1.071516 S    
C29   H53   1.107205 S    
O17   C21   1.394415 S    
C32   H56   1.101719 S    
C6    H10   1.114606 S    
P8    C71   1.880395 S    
N6    C94   1.445961 S    
C31   H55   1.107219 S    
P4    O8    1.562246 S    
C7    C11   1.537392 S    
O8    Ba3   2.796364 S    
C17   H29   1.106563 S    
C56   C86   1.411080 A    
O51   H87   0.990871 S    
P7    O48   1.566262 S    
C26   H46   1.110794 S    
P1    Ba1   3.440869 S    
P5    O25   1.537242 D    
O29   Ba1   2.785015 S    
C37   C41   1.400778 A    
C25   N1    1.455998 S    
O20   C24   1.401112 S    
N12   H137  1.030022 S    
C91   H98   1.109236 S    
C9    N5    1.454118 S    
P15   C48   1.844643 S    
C39   C43   1.400778 A    
C36   C60   1.407887 A    
O10   Ba2   2.786854 S    
C77   C81   1.396456 A    
P4    C40   1.875290 S    
O26   Ba2   2.852945 S    
C76   C80   1.395523 A    
C17   H25   1.105245 S    
O32   Ba4   2.788275 S    
C64   C68   1.421717 A    
C10   N6    1.453513 S    
C50   C54   1.402445 A    
O6    Ba1   2.796364 S    
C76   H76   1.082332 S    
C25   H45   1.110812 S    
C30   O50   1.403508 S    
C92   H103  1.109413 S    
O11   Ba3   2.790116 S    
C86   H82   1.078458 S    
C26   H50   1.111969 S    
C34   C58   1.407888 A    
C42   C46   1.397373 A    
C96   H124  1.110427 S    
C91   H99   1.109151 S    
O24   P15   1.753461 S    
O1    Ba1   2.849174 S    
C38   C58   1.435398 A    
C12   H20   1.117904 S    
P5    Ba1   3.443609 S    
C11   O55   1.402701 S    
C23   H39   1.106612 S    
O15   P16   1.546667 D    
C18   H30   1.106224 S    
O13   P14   1.546671 D    
P2    Ba2   3.440900 S    
O42   C6    1.404785 S    
C71   C75   1.401434 A    
O30   Ba2   2.788275 S    
C52   H68   1.075973 S    
C6    C10   1.534805 S    
P3    O7    1.563734 S    
O4    Ba4   2.848273 S    
C1    C29   1.530226 S    
C25   H49   1.110554 S    
P8    Ba4   3.443573 S    
C13   C17   1.531188 S    
C88   H84   1.078466 S    
P3    Ba3   3.440869 S    
O40   C15   1.399412 S    
C97   H127  1.109355 S    
P5    C70   1.872000 S    
C52   C56   1.402422 A    
C99   H135  1.109396 S    
C1    H1    1.107388 S    
O22   P13   1.753402 S    
C15   N11   1.456538 S    
C5    H13   1.107836 S    
C41   H61   1.081923 S    
C63   C87   1.406419 A    
P3    C39   1.862032 S    
C95   H119  1.108853 S    
C44   H64   1.082147 S    
C61   C85   1.406430 A    
N1    H89   1.027469 S    
C84   H72   1.081845 S    
C67   C83   1.407172 A    
C4    H4    1.110155 S    
O19   C23   1.394403 S    
N3    H97   1.027474 S    
C98   H131  1.104516 S    
Ba3   Ba4   4.624575 S    
C16   H24   1.107569 S    
C3    C31   1.530193 S    
O21   C29   1.411634 S    
O49   H85   0.990868 S    
C22   H38   1.104420 S    
C100  H139  1.104529 S    
O2    Ba2   2.848273 S    
C32   O52   1.403543 S    
Ba4   O48   2.796470 S    
P6    Ba2   3.443573 S    
N9    C97   1.451674 S    
C23   C27   1.533196 S    
C73   C77   1.397412 A    
C21   C25   1.533184 S    
P6    O38   1.750679 S    
C9    O53   1.402701 S    
C16   N12   1.452485 S    
P8    O28   1.538089 D    
P9    O29   1.743683 S    
C55   C85   1.410676 A    
O55   H107  0.990940 S    
P10   O34   1.542642 D    
C93   H112  1.108105 S    
C75   C79   1.397413 A    
C13   N9    1.456534 S    
C63   C67   1.422696 A    
C20   H32   1.109050 S    
C2    H2    1.110131 S    
Ba2   O45   2.974380 S    
C72   C76   1.400174 A    
C89   H92   1.108999 S    
P11   O35   1.540972 D    
N12   C100  1.451604 S    
P2    O18   1.748915 S    
N7    H117  1.031035 S    
C17   H33   1.104859 S    
C74   C78   1.395541 A    
C4    C32   1.524140 S    
C28   H48   1.110789 S    
C19   H35   1.104836 S    
P6    O45   1.567757 S    
C94   H114  1.109700 S    
C33   H77   1.079173 S    
P6    O26   1.538089 D    
C38   C42   1.401720 A    
N10   C98   1.451618 S    
P9    O41   1.745324 S    
C64   C72   1.432703 A    
C85   H81   1.071550 S    
O37   C14   1.399842 S    
C46   C50   1.392992 A    
Ba3   O48   2.974079 S    
N4    H101  1.031539 S    
N5    C93   1.446178 S    
C90   H96   1.108552 S    
C10   O54   1.405508 S    
P5    O46   1.566262 S    
C8    H16   1.111304 S    
C35   H79   1.079164 S    
C28   N4    1.452492 S    
C62   C66   1.421727 A    
P8    O47   1.567757 S    
C49   C53   1.406078 A    
C68   C84   1.407693 A    
Ba1   O45   2.799806 S    
C83   H71   1.081847 S    
C13   H21   1.097086 S    
C27   H51   1.110545 S    
C15   H23   1.097066 S    
C48   C52   1.392980 A    
P13   C46   1.844779 S    
C35   C65   1.413256 A    
C93   H110  1.110498 S    
C69   C73   1.401431 A    
C15   C19   1.531175 S    
C21   H41   1.107267 S    
C9    H17   1.116155 S    
C44   C48   1.397317 A    
C27   N3    1.456000 S    
C23   H43   1.107268 S    
C11   H19   1.116152 S    
C18   H34   1.109075 S    
C36   H80   1.071548 S    
O54   H106  0.989700 S    
O14   P13   1.541967 D    
C89   H90   1.109219 S    
P1    O17   1.743064 S    
O10   P13   1.744614 S    
O12   P15   1.744726 S    
P1    O1    1.539032 D    
P10   O42   1.748028 S    
P3    O3    1.539032 D    
P4    O20   1.748922 S    
C2    C30   1.524088 S    
C6    H14   1.111297 S    
O50   H86   0.992398 S    
C62   C70   1.432705 A    
O38   C13   1.399396 S    
C94   H116  1.110420 S    
C2    H58   1.110760 S    
C54   C58   1.419536 A    
N11   C99   1.451687 S    
C33   C57   1.412384 A    
C73   H73   1.082204 S    
O23   P16   1.753683 S    
C53   C87   1.410666 A    
O56   H108  0.989926 S    
C5    H9    1.113499 S    
O21   P14   1.753701 S    
P2    C38   1.875413 S    
C8    H12   1.114594 S    
C12   N8    1.453492 S    
C26   N2    1.452493 S    
C96   H123  1.104672 S    
C92   H102  1.109804 S    
O12   Ba4   2.786854 S    
C7    H15   1.107834 S    
C36   C66   1.410847 A    
C14   H22   1.107554 S    
O28   Ba4   2.852945 S    
C97   H126  1.102172 S    
O22   C30   1.406865 S    
P1    O5    1.563734 S    
C95   H118  1.110482 S    
C1    H57   1.110821 S    
C10   H18   1.117960 S    
O27   Ba3   2.852036 S    
N8    H121  1.031174 S    
C22   C26   1.536200 S    
C55   C59   1.419376 A    
N6    H113  1.031119 S    
P12   C79   1.846984 S    
P10   O30   1.746844 S    
C43   H63   1.081923 S    
P12   O44   1.748021 S    
O7    Ba4   2.799700 S    
C20   H36   1.106955 S    
C3    H3    1.107410 S    
C65   C81   1.407176 A    
C14   N10   1.452482 S    
Ba1   Ba2   4.624575 S    
O23   C31   1.411634 S    
P1    C37   1.862011 S    
P4    Ba4   3.440900 S    
C31   O51   1.403164 S    
C24   H44   1.110610 S    
C28   H52   1.111962 S    
P10   C77   1.846979 S    
C19   H31   1.106571 S    
C97   H128  1.111086 S    
C18   H26   1.106941 S    
N4    C92   1.449299 S    
P7    O27   1.537242 D    
C98   H130  1.110845 S    
O11   P16   1.740265 S    
O31   Ba3   2.785015 S    
O41   C5    1.401538 S    
O43   C7    1.401553 S    
C100  H138  1.110845 S    
C5    C9    1.537381 S    
C99   H134  1.102199 S    
C34   H78   1.071537 S    
C40   C44   1.401679 A    
N9    H125  1.030286 S    
C92   H104  1.108555 S    
C1    H5    1.108297 S    
C91   H100  1.108999 S    
C79   C83   1.396453 A    
N10   H129  1.030028 S    
C54   C88   1.411107 A    
C74   H74   1.082332 S    
P3    O19   1.743080 S    
P4    O4    1.538184 D    
C62   C86   1.408710 A    
Ba2   O46   2.796470 S    
C90   H94   1.109814 S    
C27   H47   1.110813 S    
C89   H91   1.109150 S    
P14   C45   1.847009 S    
C35   C59   1.412376 A    
O3    Ba3   2.849174 S    
C21   H37   1.106619 S    
P7    Ba3   3.443609 S    
C80   C84   1.396083 A    
O39   C16   1.399834 S    
O44   C8    1.404640 S    
C99   H136  1.111078 S    
P11   C80   1.845001 S    
P2    O2    1.538184 D    
O9    P14   1.740292 S    
P11   O43   1.745335 S    
C64   C88   1.408722 A    
P12   O36   1.542587 D    
C95   H120  1.108102 S    
C51   C55   1.406070 A    
Ba3   O47   2.799806 S    
N1    C89   1.449759 S    
P16   C47   1.846999 S    
C33   C67   1.413264 A    
C81   H69   1.081846 S    
N3    C91   1.449758 S    
C53   C57   1.419371 A    
C98   H132  1.105786 S    
C47   C51   1.392232 A    
N5    H109  1.031031 S    
C78   C82   1.396072 A    
C43   C47   1.393801 A    
C37   C57   1.433919 A    
C56   C60   1.419521 A    
C51   H67   1.074009 S    
C90   H95   1.109414 S    
C100  H140  1.105787 S    
Ba4   O47   2.974380 S    
C45   C49   1.392239 A    
C39   C59   1.433925 A    
O53   H105  0.990951 S    
O16   P15   1.541965 D    
C8    C12   1.534745 S    
N8    C96   1.445937 S    
O24   C32   1.406947 S    
C70   C74   1.400181 A    
N2    H93   1.031543 S    
P2    O6    1.562246 S    
P7    C72   1.871948 S    
C16   C20   1.526672 S    
P11   O31   1.743703 S    
P12   O32   1.746869 S    
C41   C45   1.393798 A    
C24   C28   1.536169 S    
O52   H88   0.992397 S    
C42   H62   1.082148 S    
P9    C78   1.844991 S    
C49   H65   1.074023 S    
N7    C95   1.446181 S    
C7    H11   1.113500 S    
C11   N7    1.454112 S    
C75   H75   1.082205 S    
C61   C65   1.422696 A    
C94   H115  1.104633 S    
C3    H7    1.108298 S    
C4    H8    1.109343 S    
N11   H133  1.030298 S    
C82   H70   1.081847 S    
O9    Ba1   2.790116 S    
C29   O49   1.403162 S    
C30   H54   1.101723 S    
C50   H66   1.075988 S    
P6    C69   1.880343 S    
C22   H42   1.110614 S    
C14   C18   1.526683 S    
C3    H59   1.110822 S    
C24   H40   1.104419 S    
C93   H111  1.108805 S    
C4    H60   1.110765 S    
C66   C82   1.407677 A    
