data_mof_unit_38864.cif
_audit_creation_date              2012-12-10T17:51:28-0500
_audit_creation_method            fapswitch 2.2
_symmetry_space_group_name_H-M    P1
_symmetry_Int_Tables_number       1
_space_group_crystal_system       triclinic
_cell_length_a                    14.710768
_cell_length_b                    14.603778
_cell_length_c                    17.187674
_cell_angle_alpha                 105.998188
_cell_angle_beta                  73.294504
_cell_angle_gamma                 114.626071
_cell_volume                      3163.05764282

loop_
_atom_site_label
_atom_site_type_symbol
_atom_type_description
_atom_site_fract_x
_atom_site_fract_y
_atom_site_fract_z
_atom_type_partial_charge
C1    C     C_R   0.118197 0.688960 0.515735 0.822313
C2    C     C_R   0.710324 0.175925 0.490439 -0.287666
C3    C     C_R   0.359099 0.924614 0.509236 0.078553
C4    C     C_R   0.641433 0.074131 0.477009 0.074486
C5    C     C_R   0.320636 0.003549 0.522619 0.035210
C6    C     C_R   0.680772 0.994288 0.451722 0.037105
C7    C     C_R   0.466486 0.947438 0.489695 0.086652
C8    C     C_R   0.534373 0.050496 0.490843 0.089472
C9    C     C_R   0.493671 0.127027 0.503913 -0.275534
C10   C     C_R   0.507906 0.869667 0.464577 -0.281545
C11   C     C_R   0.389092 0.105814 0.522345 -0.006707
C12   C     C_R   0.881705 0.311023 0.484133 0.784442
C13   C     C_R   0.612681 0.891269 0.443481 0.003398
C14   C     C_R   0.299818 0.335147 0.355760 -0.216497
C15   C     C_R   0.704226 0.670863 0.639469 -0.226864
C16   C     C_R   0.986781 0.498550 0.652146 0.783789
C17   C     C_R   0.009967 0.495829 0.347096 0.785010
C18   C     C_R   0.214480 0.362414 0.380360 0.100217
C19   C     C_R   0.787104 0.640016 0.617771 0.069376
C20   C     C_R   0.285435 0.489758 0.488837 0.066876
C21   C     C_R   0.715508 0.511435 0.510118 0.048837
C22   C     C_R   0.375822 0.466765 0.466341 -0.066310
C23   C     C_R   0.183861 0.798849 0.524483 -0.167033
C24   C     C_R   0.628269 0.539042 0.528914 -0.068083
C25   C     C_R   0.381113 0.386597 0.398294 0.099830
C26   C     C_R   0.624232 0.621147 0.595467 0.108830
C27   C     C_R   0.459787 0.519507 0.508899 0.031637
C28   C     C_R   0.545949 0.488627 0.484468 0.029088
C29   C     C_R   0.547408 0.408749 0.416124 -0.320241
C30   C     C_R   0.460695 0.602847 0.574496 -0.308716
C31   C     C_R   0.466861 0.358330 0.373160 0.402407
C32   C     C_R   0.541285 0.653434 0.617375 0.411046
C33   C     C_R   0.971936 0.484353 0.736265 -0.159433
C34   C     C_R   0.815900 0.201136 0.471012 -0.161431
C35   C     C_R   0.017759 0.497351 0.260819 -0.169983
C36   C     C_R   0.944148 0.555315 0.801733 -0.209373
C37   C     C_R   0.999423 0.575705 0.243807 -0.192543
C38   C     C_R   0.934610 0.547494 0.882423 -0.082891
C39   C     C_R   0.012169 0.584905 0.163039 -0.074224
C40   C     C_R   0.953634 0.469195 0.898660 -0.044874
C41   C     C_R   0.043298 0.515832 0.097894 -0.053850
C42   C     C_R   0.977666 0.393873 0.833835 -0.010917
C43   C     C_R   0.065127 0.437365 0.113000 -0.009683
C44   C     C_R   0.984579 0.400251 0.751863 0.428794
C45   C     C_R   0.214753 0.977531 0.533201 -0.117277
C46   C     C_R   0.049317 0.426246 0.195432 0.439052
C47   C     C_2   0.953642 0.470972 0.984323 -0.078985
C48   C     C_2   0.041928 0.520837 0.014227 -0.081439
C49   C     C_2   0.142107 0.581198 0.966950 0.367257
C50   C     C_2   0.852957 0.411737 0.031840 0.363113
C51   C     C_2   0.993281 0.308257 0.852635 0.438801
C52   C     C_2   0.101488 0.366432 0.042336 0.431763
C53   C     C_2   0.356767 0.195038 0.543355 0.379038
C54   C     C_2   0.645440 0.801933 0.412409 0.364451
C55   C     C_R   0.787122 0.019895 0.436787 -0.124014
C56   C     C_R   0.146490 0.877431 0.535956 0.382598
C57   C     C_R   0.854513 0.121332 0.441447 0.393980
C58   C     C_R   0.288600 0.824501 0.515235 -0.281609
Cu1   Cu    Cu3+1 0.916740 0.524770 0.521640 0.958574
Cu2   Cu    Cu3+1 0.083260 0.475230 0.478360 0.978083
H1    H     H_    0.932522 0.618606 0.790233 0.158805
H2    H     H_    0.703408 0.733785 0.690505 0.202037
H3    H     H_    0.610765 0.383462 0.394106 0.134791
H4    H     H_    0.399869 0.631733 0.593531 0.129846
H5    H     H_    0.995347 0.644664 0.151001 0.159077
H6    H     H_    0.915879 0.604750 0.932474 0.153955
H7    H     H_    0.683144 0.237615 0.518906 0.176568
H8    H     H_    0.313177 0.764194 0.513786 0.164667
H9    H     H_    0.182775 0.033876 0.538316 0.221643
H10   H     H_    0.820303 0.962005 0.419910 0.216628
H11   H     H_    0.534586 0.268472 0.297022 0.337172
H12   H     H_    0.976063 0.630775 0.293355 0.180775
H13   H     H_    0.477460 0.748887 0.689010 0.336058
H14   H     H_    0.018005 0.325069 0.262429 0.306289
H15   H     H_    0.969075 0.315972 0.643292 0.325549
H16   H     H_    0.208383 0.615413 0.995677 0.080357
H17   H     H_    0.787119 0.376550 0.002529 0.083102
H18   H     H_    0.969243 0.292575 0.914959 0.037826
H19   H     H_    0.123612 0.382191 0.980155 0.044596
H20   H     H_    0.403612 0.261472 0.514520 0.077822
H21   H     H_    0.600704 0.732085 0.437490 0.079980
H22   H     H_    0.985783 0.186860 0.378157 0.325155
H23   H     H_    0.541958 0.205288 0.498779 0.127031
H24   H     H_    0.010294 0.822590 0.596176 0.329710
H25   H     H_    0.460435 0.789674 0.455156 0.133270
H26   H     H_    0.725510 0.450554 0.460705 0.128054
H27   H     H_    0.273603 0.547702 0.540514 0.129185
H28   H     H_    0.848622 0.678981 0.651512 0.121855
H29   H     H_    0.152776 0.323216 0.346884 0.142340
H30   H     H_    0.301754 0.273982 0.303360 0.207664
N1    N     N_R   0.208390 0.438070 0.445820 -0.184606
N2    N     N_R   0.791610 0.561930 0.554180 -0.179181
O1    O     O_R   0.020090 0.662480 0.528530 -0.568407
O2    O     O_3   0.540364 0.735196 0.681328 -0.726072
O3    O     O_3   0.063669 0.345245 0.210121 -0.672528
O4    O     O_3   0.000751 0.322464 0.689122 -0.640718
O5    O     O_2   0.152765 0.594206 0.897234 -0.511329
O6    O     O_2   0.841395 0.400316 0.102208 -0.517095
O7    O     O_2   0.033933 0.254637 0.799305 -0.427128
O8    O     O_2   0.107616 0.289650 0.052085 -0.448354
O9    O     O_2   0.282589 0.198883 0.597081 -0.491917
O10   O     O_2   0.717495 0.802420 0.355169 -0.528957
O11   O     O_3   0.957091 0.138851 0.417620 -0.689233
O12   O     O_R   0.979910 0.337520 0.471470 -0.572865
O13   O     O_3   0.044289 0.859762 0.549158 -0.691093
O14   O     O_R   0.160710 0.620650 0.491980 -0.589812
O15   O     O_R   0.839290 0.379350 0.508020 -0.590904
O16   O     O_R   0.921540 0.523360 0.633990 -0.587072
O17   O     O_R   0.078460 0.476640 0.366010 -0.575331
O18   O     O_R   0.062170 0.481520 0.597440 -0.558823
O19   O     O_R   0.937830 0.518480 0.402560 -0.570884
O20   O     O_3   0.470077 0.279918 0.306552 -0.725855

loop_
_geom_bond_atom_site_label_1
_geom_bond_atom_site_label_2
_ccdc_geom_bond_type
C25   C31   A    
C40   C47   S    
C32   O2    S    
C29   H3    S    
C10   H25   S    
C26   C32   A    
C30   H4    S    
C23   C58   A    
C41   C43   A    
C14   C18   A    
C6    C55   A    
C4    C8    A    
C16   O18   A    
C7    C8    A    
C39   C41   A    
C15   C19   A    
C18   N1    A    
C28   C29   A    
C35   C37   A    
C24   C26   A    
C12   O12   A    
C3    C7    A    
C43   C52   S    
C20   H27   S    
C33   C36   A    
C7    C10   A    
C14   H30   S    
Cu2   O17   S    
C15   H2    S    
C46   O3    S    
C38   H6    S    
C45   C56   A    
C53   O9    D    
C8    C9    A    
C33   C44   A    
C22   C25   A    
C34   C57   A    
Cu1   O19   S    
H22   O11   S    
C19   N2    A    
C52   H19   S    
C11   C53   S    
C1    O14   A    
C2    C34   A    
C40   C42   A    
Cu1   Cu2   S    
C38   C40   A    
C27   C30   A    
C39   H5    S    
C42   C44   A    
H13   O2    S    
C17   O19   A    
H15   O4    S    
C47   C50   S    
C51   O7    D    
C57   O11   S    
C20   N1    A    
C50   O6    D    
C45   H9    S    
C23   C56   A    
C53   H20   S    
C4    C6    A    
C19   H28   S    
C15   C26   A    
C5    C45   A    
C52   O8    D    
C1    O1    A    
Cu1   O15   S    
C2    H7    S    
C2    C4    A    
C44   O4    S    
C16   C33   S    
C47   C48   D    
C31   O20   S    
H11   O20   S    
H24   O13   S    
C49   H16   S    
C9    C11   A    
C9    H23   S    
C58   H8    S    
C48   C49   S    
C20   C22   A    
C1    C23   S    
C22   C27   A    
C55   C57   A    
C37   H12   S    
C12   C34   S    
C36   H1    S    
C50   H17   S    
Cu2   O14   S    
C13   C54   S    
Cu2   N1    S    
C21   H26   S    
C18   H29   S    
H14   O3    S    
C54   O10   D    
C24   C28   A    
C3    C5    A    
C10   C13   A    
C17   O17   A    
C12   O15   A    
C5    C11   A    
Cu1   O1    S    
C42   C51   S    
Cu1   O16   S    
C36   C38   A    
C51   H18   S    
C29   C31   A    
C6    C13   A    
C30   C32   A    
C41   C48   S    
Cu1   N2    S    
C14   C25   A    
C43   C46   A    
C56   O13   S    
C55   H10   S    
Cu2   O18   S    
C16   O16   A    
C49   O5    D    
C3    C58   A    
C37   C39   A    
C21   C24   A    
C27   C28   A    
C17   C35   S    
Cu2   O12   S    
C35   C46   A    
C54   H21   S    
C21   N2    A    
