data_mof_unit_9733.cif
_audit_creation_date              2012-12-10T20:53:09-0500
_audit_creation_method            fapswitch 2.2
_symmetry_space_group_name_H-M    P1
_symmetry_Int_Tables_number       1
_space_group_crystal_system       triclinic
_cell_length_a                    18.325707
_cell_length_b                    18.294523
_cell_length_c                    18.332441
_cell_angle_alpha                 59.891821
_cell_angle_beta                  59.967647
_cell_angle_gamma                 59.888146
_cell_volume                      4337.67477626

loop_
_atom_site_label
_atom_site_type_symbol
_atom_type_description
_atom_site_fract_x
_atom_site_fract_y
_atom_site_fract_z
_atom_type_partial_charge
C1    C     C_R   0.389889 0.108693 0.111541 0.500996
C2    C     C_R   0.323278 0.837777 0.904039 -0.125714
C3    C     C_R   0.037611 0.532586 0.905637 0.002067
C4    C     C_R   0.455874 0.092828 0.963800 -0.000288
C5    C     C_R   0.543882 0.907141 0.036150 -0.001277
C6    C     C_R   0.948038 0.943819 0.555039 0.014693
C7    C     C_R   0.051825 0.056274 0.445291 0.014168
C8    C     C_R   0.943724 0.552492 0.948124 0.015669
C9    C     C_R   0.056220 0.447254 0.051820 0.014782
C10   C     C_R   0.554200 0.948164 0.943690 0.013423
C11   C     C_R   0.445677 0.051852 0.056237 0.013893
C12   C     C_3   0.218522 0.538801 0.412995 -0.001399
C13   C     C_R   0.159246 0.112660 0.658785 -0.098435
C14   C     C_3   0.233675 0.460623 0.497734 -0.241057
C15   C     C_3   0.219427 0.492768 0.567709 -0.500097
C16   C     C_3   0.764259 0.410434 0.709496 0.018193
C17   C     C_3   0.721592 0.404363 0.660264 -0.253879
C18   C     C_3   0.625544 0.468652 0.672332 -0.499025
C19   C     C_3   0.723689 0.272267 0.100870 -0.004330
C20   C     C_3   0.725132 0.301017 0.165164 -0.248927
C21   C     C_3   0.817426 0.303005 0.139532 -0.467433
C22   C     C_3   0.414520 0.753606 0.767268 0.009302
C23   C     C_3   0.446158 0.693887 0.714464 -0.257832
C24   C     C_R   0.837952 0.923649 0.319013 -0.119501
C25   C     C_3   0.502773 0.730270 0.617716 -0.493963
C26   C     C_3   0.305698 0.136719 0.681977 0.000606
C27   C     C_3   0.227775 0.182203 0.749901 -0.278478
C28   C     C_3   0.258165 0.170137 0.820189 -0.464906
C29   C     C_3   0.763035 0.777667 0.407309 0.016433
C30   C     C_3   0.725377 0.718167 0.409918 -0.265150
C31   C     C_3   0.765801 0.619812 0.461062 -0.486848
C32   C     C_R   0.180978 0.572361 0.295583 0.306431
C33   C     C_R   0.892464 0.357317 0.737776 0.281245
C34   C     C_R   0.635388 0.249515 0.066025 0.301452
C35   C     C_R   0.369206 0.746745 0.911201 0.299186
C36   C     C_R   0.251314 0.098717 0.621960 0.315522
C37   C     C_R   0.749399 0.923143 0.365934 0.299204
C38   C     C_R   0.090200 0.586938 0.317486 0.050895
C39   C     C_R   0.610100 0.891364 0.888379 0.505535
C40   C     C_R   0.952412 0.405400 0.691848 0.049237
C41   C     C_R   0.586163 0.314672 0.007661 0.047548
C42   C     C_R   0.411006 0.688376 0.976755 0.048944
C43   C     C_R   0.310963 0.026288 0.589297 0.035360
C44   C     C_R   0.686794 0.984488 0.412351 0.058117
C45   C     C_R   0.045162 0.653833 0.256397 -0.132203
C46   C     C_R   0.996430 0.402489 0.738300 -0.098934
C47   C     C_R   0.584726 0.291855 0.945940 -0.138836
C48   C     C_R   0.408215 0.721556 0.032813 -0.129458
C49   C     C_R   0.277798 0.967052 0.597549 -0.135496
C50   C     C_R   0.108995 0.111244 0.389829 0.501543
C51   C     C_R   0.713974 0.043057 0.413708 -0.115887
C52   C     C_R   0.090298 0.704854 0.173645 0.038883
C53   C     C_R   0.979343 0.354257 0.829754 0.042669
C54   C     C_R   0.630641 0.204511 0.943127 0.040378
C55   C     C_R   0.363072 0.812220 0.024599 0.042250
C56   C     C_R   0.186098 0.980425 0.636332 0.046088
C57   C     C_R   0.802480 0.041791 0.368181 0.037390
C58   C     C_R   0.180309 0.689956 0.151903 -0.143671
C59   C     C_R   0.920048 0.306624 0.875053 -0.153055
C60   C     C_R   0.675932 0.138788 0.003787 -0.128714
C61   C     C_R   0.890815 0.888938 0.610217 0.507071
C62   C     C_R   0.320760 0.870190 0.960221 -0.135524
C63   C     C_R   0.126905 0.053378 0.666604 -0.126639
C64   C     C_R   0.864319 0.982158 0.320862 -0.133125
C65   C     C_R   0.981914 0.591681 0.464461 -0.185346
C66   C     C_R   0.023591 0.405945 0.537661 -0.123725
C67   C     C_R   0.591612 0.464231 0.956020 -0.151617
C68   C     C_R   0.407804 0.536543 0.036436 -0.127113
C69   C     C_R   0.463455 0.962966 0.592434 -0.167099
C70   C     C_R   0.536262 0.039870 0.407925 -0.120853
C71   C     C_R   0.948338 0.550874 0.556610 0.005356
C72   C     C_R   0.111903 0.390150 0.108301 0.501795
C73   C     C_R   0.057302 0.447089 0.445323 0.037867
C74   C     C_R   0.552205 0.555352 0.945973 0.019654
C75   C     C_R   0.447522 0.444930 0.049137 0.026668
C76   C     C_R   0.555228 0.948815 0.552370 0.016411
C77   C     C_R   0.444561 0.053370 0.447945 0.028981
C78   C     C_R   0.972693 0.455980 0.594428 -0.007894
C79   C     C_R   0.039768 0.540709 0.408830 -0.018054
C80   C     C_R   0.458769 0.592258 0.986095 0.003695
C81   C     C_R   0.540442 0.408516 0.006538 0.006482
C82   C     C_R   0.592036 0.989005 0.458970 0.003547
C83   C     C_R   0.888037 0.609824 0.891719 0.506858
C84   C     C_R   0.407380 0.015024 0.541719 -0.003497
C85   C     C_R   0.111293 0.390438 0.389767 0.539794
C86   C     C_R   0.890525 0.609143 0.610591 0.491616
C87   C     C_R   0.390435 0.389770 0.107967 0.520201
C88   C     C_R   0.609534 0.610235 0.890587 0.501212
C89   C     C_R   0.389691 0.109369 0.390509 0.519910
C90   C     C_R   0.610291 0.891218 0.609552 0.495507
C91   C     C_R   0.182288 0.929845 0.402131 -0.092393
C92   C     C_R   0.817971 0.069822 0.599519 -0.090061
C93   C     C_R   0.925089 0.435508 0.188848 -0.094024
C94   C     C_R   0.225610 0.623695 0.212461 -0.115445
C95   C     C_R   0.074847 0.563483 0.811017 -0.089083
C96   C     C_R   0.412067 0.186003 0.928054 -0.088339
C97   C     C_R   0.587502 0.813904 0.071936 -0.089301
C98   C     C_R   0.222229 0.840620 0.407819 -0.134587
C99   C     C_R   0.778157 0.158902 0.594291 -0.132932
C100  C     C_R   0.833787 0.453152 0.231803 -0.143439
C101  C     C_R   0.166157 0.545588 0.768019 -0.136490
C102  C     C_R   0.422611 0.228024 0.837856 -0.141846
C103  C     C_R   0.577615 0.772049 0.162003 -0.134577
C104  C     C_R   0.173597 0.782820 0.464039 -0.113952
C105  C     C_R   0.877379 0.307410 0.829260 -0.129116
C106  C     C_R   0.826604 0.216833 0.537679 -0.104360
C107  C     C_R   0.776929 0.501343 0.182288 -0.124467
C108  C     C_R   0.223074 0.497267 0.817474 -0.110255
C109  C     C_R   0.477169 0.179066 0.780338 -0.124254
C110  C     C_R   0.523449 0.821098 0.219441 -0.109761
C111  C     C_R   0.083973 0.813298 0.514988 0.040761
C112  C     C_R   0.915990 0.186605 0.486034 0.045760
C113  C     C_R   0.810128 0.533610 0.088990 0.027938
C114  C     C_R   0.189921 0.465104 0.910792 0.038138
C115  C     C_R   0.521624 0.087109 0.811943 0.034340
C116  C     C_R   0.677616 0.160825 0.065569 -0.116704
C117  C     C_R   0.478413 0.912932 0.187938 0.039601
C118  C     C_R   0.039700 0.906596 0.507711 0.014669
C119  C     C_R   0.960256 0.093384 0.493007 0.013490
C120  C     C_R   0.904565 0.518548 0.042609 0.009078
C121  C     C_R   0.095420 0.480732 0.957265 0.013395
C122  C     C_R   0.511232 0.041426 0.905718 0.013166
C123  C     C_R   0.488625 0.958575 0.094205 0.012673
C124  C     C_R   0.090997 0.964756 0.451247 -0.002753
C125  C     C_R   0.909037 0.035148 0.549667 -0.001769
C126  C     C_R   0.962338 0.466859 0.094259 -0.003417
Cl1   Cl    Cl    0.037575 0.726521 0.588609 -0.100981
Cl2   Cl    Cl    0.357983 0.852907 0.096235 -0.095583
Cl3   Cl    Cl    0.145085 0.907162 0.644564 -0.078876
Cl4   Cl    Cl    0.835415 0.116514 0.368625 -0.104371
Cl5   Cl    Cl    0.962024 0.273621 0.412014 -0.089702
Cl6   Cl    Cl    0.726605 0.587862 0.039330 -0.096738
Cl7   Cl    Cl    0.273624 0.410017 0.960388 -0.090191
Cl8   Cl    Cl    0.589476 0.038882 0.726330 -0.097162
Cl9   Cl    Cl    0.410044 0.961070 0.273616 -0.091324
Cl10  Cl    Cl    0.033544 0.788663 0.097764 -0.089832
Cl11  Cl    Cl    0.032524 0.353156 0.887691 -0.105607
Cl12  Cl    Cl    0.633120 0.177870 0.862230 -0.097017
H1    H     H_    0.793539 0.286764 0.532848 0.105545
H2    H     H_    0.336368 0.565293 0.066246 0.151661
H3    H     H_    0.434781 0.933276 0.663953 0.111304
H4    H     H_    0.564837 0.070803 0.336473 0.160033
H5    H     H_    0.224574 0.970872 0.358539 0.133771
H6    H     H_    0.775741 0.028746 0.643336 0.135500
H7    H     H_    0.966048 0.397313 0.231193 0.125292
H8    H     H_    0.033877 0.601437 0.768701 0.123715
H9    H     H_    0.369505 0.228153 0.969226 0.129884
H10   H     H_    0.629711 0.771614 0.030861 0.130972
H11   H     H_    0.291933 0.815837 0.369308 0.118504
H12   H     H_    0.206655 0.712824 0.469075 0.101288
H13   H     H_    0.708653 0.183511 0.633374 0.121282
H14   H     H_    0.807030 0.428426 0.304114 0.115046
H15   H     H_    0.192891 0.570172 0.695724 0.114927
H16   H     H_    0.388554 0.299296 0.812285 0.112301
H17   H     H_    0.611732 0.700783 0.187553 0.114096
H18   H     H_    0.215144 0.729666 0.088072 0.135737
H19   H     H_    0.907738 0.268197 0.945556 0.106572
H20   H     H_    0.710371 0.070746 0.002724 0.135398
H21   H     H_    0.285150 0.940227 0.954234 0.118486
H22   H     H_    0.055711 0.064837 0.695223 0.135114
H23   H     H_    0.294154 0.485205 0.782538 0.106073
H24   H     H_    0.932658 0.981711 0.284709 0.127429
H25   H     H_    0.295373 0.612315 0.195125 0.116029
H26   H     H_    0.832855 0.268829 0.864699 0.115259
H27   H     H_    0.712453 0.109161 0.112598 0.121248
H28   H     H_    0.288855 0.883269 0.855596 0.103886
H29   H     H_    0.112583 0.170208 0.680386 0.116188
H30   H     H_    0.886210 0.879419 0.280240 0.113942
H31   H     H_    0.974954 0.666817 0.273599 0.108661
H32   H     H_    0.043343 0.438370 0.703440 0.108041
H33   H     H_    0.548950 0.342265 0.899369 0.105249
H34   H     H_    0.705908 0.512934 0.217151 0.107967
H35   H     H_    0.440671 0.676845 0.082995 0.108559
H36   H     H_    0.322867 0.911887 0.571962 0.106192
H37   H     H_    0.666120 0.090082 0.449542 0.110746
H38   H     H_    0.151100 0.588875 0.432792 0.130082
H39   H     H_    0.269734 0.571373 0.380747 0.131773
H40   H     H_    0.186310 0.424409 0.526786 0.185194
H41   H     H_    0.302944 0.412988 0.480475 0.182144
H42   H     H_    0.265809 0.529452 0.540479 0.139675
H43   H     H_    0.232406 0.434173 0.627509 0.148504
H44   H     H_    0.149350 0.537486 0.588553 0.150382
H45   H     H_    0.515881 0.786840 0.289835 0.109134
H46   H     H_    0.760610 0.481186 0.685394 0.136994
H47   H     H_    0.725779 0.389872 0.782385 0.124531
H48   H     H_    0.761251 0.420988 0.587789 0.170330
H49   H     H_    0.722029 0.334675 0.686315 0.179703
H50   H     H_    0.584328 0.452962 0.744273 0.146780
H51   H     H_    0.596205 0.462316 0.636331 0.144197
H52   H     H_    0.624317 0.538721 0.644536 0.145384
H53   H     H_    0.742042 0.320668 0.032059 0.129829
H54   H     H_    0.774328 0.204207 0.103008 0.122009
H55   H     H_    0.675008 0.368931 0.164078 0.178489
H56   H     H_    0.485010 0.213397 0.709896 0.106598
H57   H     H_    0.707102 0.253208 0.234187 0.179723
H58   H     H_    0.868904 0.236027 0.139054 0.154044
H59   H     H_    0.817166 0.321086 0.189110 0.169704
H60   H     H_    0.835064 0.353546 0.072359 0.169577
H61   H     H_    0.474259 0.763268 0.758507 0.165958
H62   H     H_    0.367278 0.819444 0.739764 0.126713
H63   H     H_    0.486764 0.625236 0.746484 0.171923
H64   H     H_    0.387158 0.689771 0.715452 0.178115
H65   H     H_    0.464870 0.799920 0.584806 0.154095
H66   H     H_    0.521246 0.687826 0.580126 0.139809
H67   H     H_    0.968012 0.663625 0.435758 0.131959
H68   H     H_    0.565014 0.729437 0.615255 0.145592
H69   H     H_    0.362595 0.159923 0.655631 0.161854
H70   H     H_    0.329893 0.062694 0.716055 0.112697
H71   H     H_    0.199849 0.255060 0.714855 0.177817
H72   H     H_    0.174113 0.152492 0.783998 0.152344
H73   H     H_    0.291297 0.098004 0.852588 0.153065
H74   H     H_    0.199583 0.197403 0.872385 0.167791
H75   H     H_    0.305490 0.206861 0.788556 0.158200
H76   H     H_    0.749244 0.768347 0.477357 0.169512
H77   H     H_    0.836568 0.755862 0.372509 0.120953
H78   H     H_    0.039849 0.333702 0.566612 0.160578
H79   H     H_    0.651621 0.740207 0.442728 0.171468
H80   H     H_    0.740114 0.725185 0.340499 0.179598
H81   H     H_    0.839160 0.595338 0.427098 0.161966
H82   H     H_    0.735472 0.578825 0.463521 0.143437
H83   H     H_    0.752392 0.611222 0.530594 0.143866
H84   H     H_    0.662548 0.436265 0.922638 0.120021
O1    O     O_3   0.250000 0.250000 0.250000 -0.451745
O2    O     O_R   0.865800 0.694910 0.573470 -0.561996
O3    O     O_R   0.305090 0.426530 0.134200 -0.539865
O4    O     O_R   0.694910 0.573470 0.865800 -0.550874
O5    O     O_R   0.426530 0.134200 0.305090 -0.541062
O6    O     O_R   0.573470 0.865800 0.694910 -0.563431
O7    O     O_R   0.134190 0.426530 0.134200 -0.535025
O8    O     O_R   0.865810 0.573470 0.865800 -0.533748
O9    O     O_R   0.426530 0.134200 0.134190 -0.531073
O10   O     O_R   0.573470 0.865800 0.865810 -0.530012
O11   O     O_R   0.134200 0.134190 0.426530 -0.532381
O12   O     O_3   0.750000 0.750000 0.750000 -0.436309
O13   O     O_R   0.865800 0.865810 0.573470 -0.528456
O14   O     O_R   0.426530 0.305080 0.134210 -0.522058
O15   O     O_R   0.573470 0.694920 0.865790 -0.548278
O16   O     O_R   0.305080 0.134210 0.426530 -0.522657
O17   O     O_R   0.694920 0.865790 0.573470 -0.552391
O18   O     O_R   0.134210 0.426530 0.305080 -0.528536
O19   O     O_R   0.865790 0.573470 0.694920 -0.546915
O20   O     O_3   0.227328 0.504877 0.353585 -0.568900
O21   O     O_3   0.854236 0.353454 0.691764 -0.576192
O22   O     O_3   0.637145 0.271673 0.126940 -0.558647
O23   O     O_R   0.305080 0.134200 0.134200 -0.544098
O24   O     O_3   0.370378 0.712492 0.858043 -0.568109
O25   O     O_3   0.281321 0.161873 0.608425 -0.567028
O26   O     O_3   0.721684 0.867989 0.361563 -0.575010
O27   O     O_R   0.694920 0.865800 0.865800 -0.539217
O28   O     O_R   0.134200 0.134200 0.305080 -0.543005
O29   O     O_R   0.865800 0.865800 0.694920 -0.538188
O30   O     O_R   0.134200 0.305080 0.134200 -0.538833
O31   O     O_R   0.865800 0.694920 0.865800 -0.532175
O32   O     O_R   0.134200 0.305090 0.426530 -0.541800
Zn1   Zn    Zn3+2 0.206620 0.206630 0.380140 0.966692
Zn2   Zn    Zn3+2 0.793380 0.793370 0.619860 0.920760
Zn3   Zn    Zn3+2 0.206630 0.380140 0.206620 0.966394
Zn4   Zn    Zn3+2 0.793370 0.619860 0.793380 0.926438
Zn5   Zn    Zn3+2 0.380140 0.206620 0.206630 0.968172
Zn6   Zn    Zn3+2 0.619860 0.793380 0.793370 0.922689
Zn7   Zn    Zn3+2 0.206620 0.206620 0.206620 0.936825
Zn8   Zn    Zn3+2 0.793380 0.793380 0.793380 0.952302

loop_
_geom_bond_atom_site_label_1
_geom_bond_atom_site_label_2
_ccdc_geom_bond_type
O31   Zn8   S    
C68   C80   A    
C48   C55   A    
C32   C94   A    
C55   C62   A    
C18   H51   S    
C42   C80   S    
C65   C79   A    
C113  Cl6   S    
C96   C102  A    
C67   H84   S    
C8    C83   S    
O12   Zn8   S    
C26   H69   S    
C1    C11   S    
C9    C72   S    
C7    C124  A    
C25   H66   S    
O23   Zn7   S    
C92   C125  A    
O4    Zn4   S    
C53   C59   A    
C33   O21   S    
C106  C112  A    
C100  H14   S    
C68   C75   A    
C40   C46   A    
C95   H8    S    
C77   C89   S    
C85   O32   A    
C59   C105  A    
C37   O26   S    
C90   O17   A    
C83   O31   A    
C103  C110  A    
C53   Cl11  S    
C6    C61   S    
C90   O6    A    
C52   Cl10  S    
C24   H30   S    
C60   H20   S    
O13   Zn2   S    
C31   H82   S    
C44   C82   S    
C16   H47   S    
C30   C31   S    
C120  C126  A    
C13   H29   S    
C65   H67   S    
C38   C79   S    
C108  C114  A    
C71   C86   S    
C15   H44   S    
C27   H71   S    
C69   C76   A    
C104  H12   S    
C96   H9    S    
C35   C42   A    
C1    O9    A    
C93   C126  A    
C107  C113  A    
C38   C45   A    
C61   O13   A    
C31   H83   S    
C114  C121  A    
C88   O4    A    
O8    Zn4   S    
C16   C17   S    
C87   O3    A    
C13   C63   A    
C5    C123  A    
C9    C121  A    
C52   C58   A    
C25   H65   S    
C93   H7    S    
C51   C57   A    
C32   C38   A    
O27   Zn8   S    
C21   H60   S    
C20   H57   S    
C91   H5    S    
C14   H41   S    
C50   O28   A    
O5    Zn5   S    
C19   H54   S    
C30   H80   S    
C101  C108  A    
C12   H39   S    
C118  C124  A    
C21   H58   S    
C115  C122  A    
C74   C80   A    
C15   H42   S    
C17   H49   S    
C70   C77   A    
C66   H78   S    
C43   C84   S    
O1    Zn5   S    
C34   C41   A    
C86   O2    A    
C63   H22   S    
C89   O5    A    
C92   H6    S    
C110  C117  A    
C49   H36   S    
C17   C18   S    
C31   H81   S    
C107  H34   S    
C22   C23   S    
C4    C96   A    
C66   C78   A    
C11   C123  A    
C70   H4    S    
C33   C40   A    
C72   O7    A    
C22   H62   S    
C23   H64   S    
C34   O22   S    
C7    C119  A    
C22   H61   S    
C33   C105  A    
C102  C109  A    
C6    C125  A    
C13   C36   A    
C64   H24   S    
C3    C8    A    
O19   Zn4   S    
C76   C82   A    
C22   O24   S    
C2    C35   A    
C109  C115  A    
C43   C49   A    
C54   C60   A    
C45   C52   A    
C47   C54   A    
C106  H1    S    
C65   C71   A    
C66   C73   A    
O9    Zn5   S    
C27   H72   S    
C87   O14   A    
C46   H32   S    
C10   C39   S    
C28   H73   S    
C50   O11   A    
O12   Zn6   S    
O28   Zn7   S    
C29   C30   S    
C75   C81   A    
C104  C111  A    
C113  C120  A    
C57   Cl4   S    
C39   O27   A    
C101  H15   S    
C17   H48   S    
C61   O29   A    
C41   C81   S    
C20   C21   S    
O15   Zn6   S    
C16   H46   S    
C24   C37   A    
C41   C47   A    
C56   C63   A    
C4    C122  A    
C109  H56   S    
C67   C74   A    
C42   C48   A    
C72   O30   A    
C4    C11   A    
C51   H37   S    
C93   C100  A    
C73   C85   S    
C97   C103  A    
C58   H18   S    
O30   Zn7   S    
C30   H79   S    
C19   O22   S    
C44   C51   A    
C75   C87   S    
C83   O8    A    
C23   H63   S    
C110  H45   S    
C67   C81   A    
C12   O20   S    
C91   C124  A    
C111  C118  A    
C26   C27   S    
O18   Zn3   S    
C29   O26   S    
C40   C78   S    
C116  H27   S    
C60   C116  A    
C28   H74   S    
C25   H68   S    
C117  Cl9   S    
O12   Zn2   S    
C20   H55   S    
O1    Zn7   S    
C26   O25   S    
C14   H40   S    
C57   C64   A    
O1    Zn3   S    
C48   H35   S    
C103  H17   S    
C28   H75   S    
O12   Zn4   S    
C99   C106  A    
C2    H28   S    
C18   H52   S    
C100  C107  A    
C32   O20   S    
C62   H21   S    
C89   O16   A    
C26   H70   S    
C56   Cl3   S    
C7    C50   S    
C21   H59   S    
C10   C122  A    
C45   H31   S    
C112  C119  A    
C47   H33   S    
O6    Zn6   S    
C112  Cl5   S    
C8    C120  A    
C115  Cl8   S    
C105  H26   S    
O2    Zn2   S    
C49   C56   A    
C108  H23   S    
C19   C20   S    
C9    C126  A    
C77   C84   A    
C12   H38   S    
O16   Zn1   S    
C85   O18   A    
O32   Zn1   S    
C117  C123  A    
O3    Zn3   S    
C5    C10   A    
C69   C84   A    
C1    O23   A    
C102  H16   S    
C73   C79   A    
C111  Cl1   S    
C59   H19   S    
C29   H76   S    
C54   Cl12  S    
C34   C116  A    
C99   H13   S    
C37   C44   A    
C86   O19   A    
C98   C104  A    
C88   O15   A    
C15   H43   S    
C46   C53   A    
C18   H50   S    
C97   H10   S    
C114  Cl7   S    
C29   H77   S    
C5    C97   A    
C3    C121  A    
C23   C25   S    
C91   C98   A    
C58   C94   A    
C70   C82   A    
O14   Zn5   S    
C68   H2    S    
O11   Zn1   S    
O29   Zn8   S    
C16   O21   S    
O1    Zn1   S    
C12   C14   S    
C39   O10   A    
C55   Cl2   S    
C35   O24   S    
C24   C64   A    
O10   Zn6   S    
C76   C90   S    
O17   Zn2   S    
C2    C62   A    
C36   O25   S    
C14   C15   S    
C36   C43   A    
C3    C95   A    
C74   C88   S    
C69   H3    S    
C94   H25   S    
C6    C118  A    
C71   C78   A    
C119  C125  A    
C95   C101  A    
C92   C99   A    
C19   H53   S    
C27   C28   S    
C98   H11   S    
O7    Zn3   S    
