data_mof_unit_51891.cif
_audit_creation_date              2012-12-10T16:57:48-0500
_audit_creation_method            fapswitch 2.2
_symmetry_space_group_name_H-M    P1
_symmetry_Int_Tables_number       1
_space_group_crystal_system       triclinic
_cell_length_a                    7.710767
_cell_length_b                    8.54332
_cell_length_c                    19.160157
_cell_angle_alpha                 90.054578
_cell_angle_beta                  87.347638
_cell_angle_gamma                 93.472488
_cell_volume                      1258.51663311

loop_
_atom_site_label
_atom_site_type_symbol
_atom_type_description
_atom_site_fract_x
_atom_site_fract_y
_atom_site_fract_z
_atom_type_partial_charge
C1    C     C_R   0.545763 0.794859 0.497673 0.960144
C2    C     C_R   0.591136 0.410088 0.179248 -0.183271
C3    C     C_R   0.530318 0.506522 0.854479 0.040504
C4    C     C_R   0.467860 0.491938 0.145616 0.040277
C5    C     C_R   0.651953 0.419247 0.816215 -0.028926
C6    C     C_R   0.346838 0.579790 0.183923 -0.028814
C7    C     C_R   0.642297 0.409651 0.743027 -0.058707
C8    C     C_R   0.357295 0.590016 0.257055 -0.058654
C9    C     C_R   0.515531 0.493505 0.709895 -0.092732
C10   C     C_R   0.484193 0.506209 0.290124 -0.092424
C11   C     C_R   0.478874 0.494593 0.069991 0.262214
C12   C     C_R   0.454232 0.205141 0.502297 0.959872
C13   C     C_R   0.518854 0.503659 0.930098 0.262532
C14   C     C_R   0.789928 0.341704 0.852787 0.120751
C15   C     C_R   0.790455 0.177375 0.855772 -0.103614
C16   C     C_R   0.917763 0.105880 0.892077 -0.138720
C17   C     C_R   0.044421 0.197703 0.925945 -0.110931
C18   C     C_R   0.044159 0.361170 0.923479 -0.129624
C19   C     C_R   0.917779 0.433135 0.886941 -0.167725
C20   C     C_R   0.208652 0.657299 0.147465 0.120785
C21   C     C_R   0.080191 0.565807 0.113685 -0.167858
C22   C     C_R   0.953565 0.637708 0.077261 -0.129396
C23   C     C_2   0.569840 0.958187 0.495443 -0.404073
C24   C     C_R   0.953664 0.801174 0.074537 -0.111070
C25   C     C_R   0.080952 0.893060 0.108022 -0.138868
C26   C     C_R   0.208510 0.821627 0.144209 -0.103443
C27   C     C_R   0.756816 0.304761 0.702832 0.128230
C28   C     C_R   0.686219 0.163591 0.675397 -0.143482
C29   C     C_R   0.795037 0.058180 0.642476 -0.125233
C30   C     C_R   0.974269 0.093802 0.635844 -0.136048
C31   C     C_R   0.045287 0.234495 0.662585 -0.094762
C32   C     C_R   0.937199 0.340105 0.695901 -0.113430
C33   C     C_R   0.243509 0.695529 0.297252 0.128378
C34   C     C_2   0.430143 0.041811 0.504469 -0.403810
C35   C     C_R   0.063159 0.660405 0.304737 -0.112602
C36   C     C_R   0.955764 0.766463 0.338138 -0.095580
C37   C     C_R   0.027446 0.907413 0.364382 -0.136266
C38   C     C_R   0.206644 0.942828 0.357177 -0.124776
C39   C     C_R   0.314773 0.836947 0.324196 -0.144681
C40   C     C_R   0.504160 0.495929 0.634373 0.852401
C41   C     C_R   0.495821 0.504060 0.365630 0.852441
C42   C     C_R   0.400014 0.582158 0.749161 -0.227866
C43   C     C_R   0.599128 0.417011 0.250844 -0.227575
C44   C     C_R   0.407219 0.588434 0.820787 -0.183070
H1    H     H_    0.303499 0.647392 0.724302 0.155083
H2    H     H_    0.079041 0.438999 0.115211 0.122154
H3    H     H_    0.856022 0.566628 0.050825 0.151432
H4    H     H_    0.855625 0.856603 0.046216 0.140539
H5    H     H_    0.081481 0.019676 0.105527 0.127613
H6    H     H_    0.307979 0.894031 0.169026 0.128048
H7    H     H_    0.547699 0.133792 0.680981 0.107464
H8    H     H_    0.740769 0.947823 0.622962 0.131338
H9    H     H_    0.058264 0.011636 0.610627 0.120080
H10   H     H_    0.184378 0.260284 0.658389 0.145450
H11   H     H_    0.993927 0.447834 0.717279 0.123786
H12   H     H_    0.695716 0.351800 0.275671 0.154932
H13   H     H_    0.005915 0.552452 0.283763 0.123749
H14   H     H_    0.816687 0.740797 0.342802 0.145831
H15   H     H_    0.943992 0.989920 0.389670 0.120084
H16   H     H_    0.261433 0.053353 0.376314 0.131339
H17   H     H_    0.453267 0.866563 0.318186 0.107778
H18   H     H_    0.701800 0.009101 0.486709 0.177192
H19   H     H_    0.298178 0.990897 0.513182 0.177326
H20   H     H_    0.013973 0.384041 0.447727 0.187199
H21   H     H_    0.986027 0.615959 0.552273 0.187300
H22   H     H_    0.313007 0.654442 0.850243 0.147923
H23   H     H_    0.684924 0.343683 0.149759 0.147902
H24   H     H_    0.691478 0.105013 0.830646 0.128007
H25   H     H_    0.917524 0.979260 0.894365 0.127624
H26   H     H_    0.142257 0.142222 0.954357 0.140518
H27   H     H_    0.141231 0.432192 0.950200 0.151545
H28   H     H_    0.918632 0.559940 0.885621 0.122235
N1    N     N_R   0.527236 0.366413 0.964760 -0.167851
N2    N     N_R   0.470478 0.631821 0.035324 -0.167965
N3    N     N_R   0.508843 0.362058 0.033846 -0.190564
N4    N     N_R   0.488867 0.636178 0.966242 -0.190521
N5    N     N_2   0.950330 0.457950 0.481240 -0.165540
N6    N     N_2   0.049670 0.542050 0.518760 -0.165400
O1    O     O_R   0.389250 0.738570 0.504600 -0.601034
O2    O     O_R   0.610750 0.261430 0.495400 -0.601120
O3    O     O_R   0.678400 0.711620 0.492580 -0.639167
O4    O     O_R   0.321600 0.288380 0.507420 -0.638858
O5    O     O_R   0.355380 0.513500 0.607880 -0.633095
O6    O     O_R   0.644620 0.486500 0.392120 -0.633291
O7    O     O_R   0.644530 0.486550 0.595850 -0.609962
O8    O     O_R   0.355470 0.513450 0.404150 -0.610094
Zn1   Zn    Zn3+2 0.306930 0.517990 0.508030 0.936367
Zn2   Zn    Zn3+2 0.693070 0.482010 0.491970 0.936129

loop_
_geom_bond_atom_site_label_1
_geom_bond_atom_site_label_2
_ccdc_geom_bond_type
N6    Zn1   S    
O5    Zn1   S    
H20   N5    S    
C44   H22   S    
C35   C36   A    
O1    Zn1   S    
N5    N6    D    
C41   O8    A    
C9    C42   A    
C33   C39   A    
N2    N4    A    
C36   C37   A    
C36   H14   S    
C26   H6    S    
C38   C39   A    
C28   H7    S    
C1    O3    A    
C15   C16   A    
C7    C27   S    
C18   C19   A    
C23   H18   S    
N5    Zn2   S    
C16   C17   A    
C29   C30   A    
C32   H11   S    
C3    C13   S    
C22   H3    S    
C27   C32   A    
C17   H26   S    
C21   C22   A    
C10   C41   S    
N1    N3    A    
C40   O5    A    
C19   H28   S    
C42   C44   A    
C39   H17   S    
C30   H9    S    
C3    C44   A    
C24   H4    S    
C24   C25   A    
C4    C6    A    
C2    H23   S    
C5    C7    A    
O8    Zn1   S    
C6    C8    A    
C25   C26   A    
C41   O6    A    
C9    C40   S    
C42   H1    S    
C40   O7    A    
C2    C4    A    
C37   C38   A    
C31   C32   A    
C13   N4    A    
C2    C43   A    
C23   C34   D    
C17   C18   A    
C12   O4    A    
C4    C11   S    
C5    C14   S    
C37   H15   S    
C38   H16   S    
C13   N1    A    
C1    C23   S    
C1    O1    A    
C22   C24   A    
C12   C34   S    
C21   H2    S    
O7    Zn2   S    
C18   H27   S    
C7    C9    A    
C28   C29   A    
H21   N6    S    
C10   C43   A    
C14   C19   A    
C16   H25   S    
O6    Zn2   S    
C3    C5    A    
C11   N2    A    
C6    C20   S    
C35   H13   S    
O2    Zn2   S    
C11   N3    A    
C30   C31   A    
C20   C26   A    
C15   H24   S    
C12   O2    A    
C34   H19   S    
C33   C35   A    
C8    C33   S    
C31   H10   S    
C25   H5    S    
O3    Zn2   S    
C43   H12   S    
C20   C21   A    
C8    C10   A    
C27   C28   A    
C14   C15   A    
O4    Zn1   S    
C29   H8    S    
