data_mof_unit_34168.cif
_audit_creation_date              2012-12-10T17:27:52-0500
_audit_creation_method            fapswitch 2.2
_symmetry_space_group_name_H-M    P1
_symmetry_Int_Tables_number       1
_space_group_crystal_system       triclinic
_cell_length_a                    10.68284
_cell_length_b                    11.987824
_cell_length_c                    12.826463
_cell_angle_alpha                 93.59181
_cell_angle_beta                  90.493217
_cell_angle_gamma                 86.322504
_cell_volume                      1635.98860193

loop_
_atom_site_label
_atom_site_type_symbol
_atom_type_description
_atom_site_fract_x
_atom_site_fract_y
_atom_site_fract_z
_atom_type_partial_charge
C1    C     C_R   0.496765 0.522433 0.700289 0.966178
C2    C     C_R   0.945717 0.406270 0.547070 -0.045803
C3    C     C_R   0.872302 0.507260 0.534768 -0.225251
C4    C     C_R   0.931277 0.607063 0.520149 0.308275
C5    C     C_R   0.057468 0.600706 0.500737 -0.224878
C6    C     C_R   0.124801 0.496826 0.490470 -0.176339
C7    C     C_R   0.492780 0.462864 0.188926 -0.096003
C8    C     C_R   0.497019 0.537125 0.811843 -0.202225
C9    C     C_R   0.593211 0.611362 0.968620 -0.153292
C10   C     C_R   0.581356 0.608673 0.861692 0.301139
C11   C     C_R   0.421102 0.471092 0.869119 -0.124890
C12   C     C_R   0.739004 0.502689 0.514589 0.941325
C13   C     C_R   0.447708 0.461361 0.975530 0.052226
C14   C     C_R   0.530401 0.536952 0.024910 0.076146
C15   C     C_R   0.550070 0.538235 0.131026 -0.204332
C16   C     C_R   0.421417 0.380382 0.141681 -0.226639
C17   C     C_R   0.398616 0.378009 0.034914 0.300644
C18   C     C_R   0.442794 0.945726 0.367736 -0.138557
C19   C     C_R   0.442675 0.831111 0.386262 -0.026450
C20   C     C_R   0.508768 0.864110 0.561305 0.032681
C21   C     C_R   0.511017 0.979623 0.547684 0.050832
C22   C     C_R   0.481438 0.021461 0.449173 0.009330
C23   C     C_R   0.500484 0.477538 0.299785 0.896141
C24   C     C_R   0.492709 0.137332 0.436635 -0.031901
C25   C     C_R   0.542331 0.168134 0.615787 0.113825
C26   C     C_R   0.541053 0.053985 0.631001 -0.235926
C27   C     C_R   0.259469 0.498265 0.492384 0.895721
C28   C     C_R   0.905892 0.313870 0.599997 -0.081294
C29   C     C_R   0.964218 0.206983 0.575423 -0.122260
C30   C     C_R   0.066130 0.194159 0.507931 -0.121980
C31   C     C_R   0.118672 0.288527 0.473476 -0.084851
C32   C     C_R   0.064517 0.396794 0.501818 0.109945
H1    H     H_    0.475405 0.172756 0.362249 0.173759
H2    H     H_    0.555262 0.225160 0.682593 0.205075
H3    H     H_    0.559719 0.024641 0.708166 0.189561
H4    H     H_    0.413938 0.772647 0.324472 0.172574
H5    H     H_    0.534268 0.831274 0.635682 0.178953
H6    H     H_    0.933475 0.133720 0.610684 0.192166
H7    H     H_    0.109179 0.111545 0.487452 0.168485
H8    H     H_    0.199853 0.275570 0.423359 0.170320
H9    H     H_    0.102760 0.678302 0.494289 0.204072
H10   H     H_    0.609042 0.599142 0.169387 0.167748
H11   H     H_    0.381026 0.319497 0.188264 0.185584
H12   H     H_    0.656859 0.667771 0.007289 0.182874
N1    N     N_R   0.523130 0.207800 0.519340 -0.128176
N2    N     N_R   0.476870 0.792180 0.480660 -0.112350
O1    O     O_R   0.506170 0.421690 0.658830 -0.593743
O2    O     O_R   0.491330 0.609320 0.646410 -0.607388
O3    O     O_R   0.690660 0.406170 0.506210 -0.629538
O4    O     O_R   0.675810 0.593790 0.493790 -0.557351
O5    O     O_R   0.508670 0.390680 0.353590 -0.632268
O6    O     O_R   0.493830 0.578310 0.341170 -0.631122
O7    O     O_R   0.324190 0.406210 0.506210 -0.607087
O8    O     O_R   0.309340 0.593830 0.493790 -0.626566
Zn1   Zn    Zn3+2 0.509910 0.374720 0.508290 0.995969
Zn2   Zn    Zn3+2 0.490090 0.625280 0.491710 1.004798
Br1   Br    Br    0.851538 0.756436 0.532067 -0.444366
Br2   Br    Br    0.314979 0.249971 0.978041 -0.442252
Br3   Br    Br    0.687553 0.701301 0.789022 -0.453958
C33   C     C_2   0.301869 0.432351 0.822899 0.953776
O9    O     O_2   0.302521 0.365142 0.747169 -0.589964
O10   O     O_R   0.188026 0.472177 0.868688 -0.759371
H13   H     H_    0.112999 0.440283 0.831277 0.358003
C34   C     C_2   0.398553 0.982055 0.264442 0.909974
O11   O     O_2   0.426117 0.923866 0.185202 -0.588490
O12   O     O_R   0.320624 0.079647 0.257727 -0.830384
H14   H     H_    0.295810 0.094426 0.183143 0.377773
C35   C     C_2   0.820774 0.328506 0.692263 0.952994
O13   O     O_2   0.773987 0.247086 0.724211 -0.600793
O14   O     O_R   0.800607 0.431098 0.749621 -0.765718
H15   H     H_    0.862545 0.488099 0.734079 0.324891

loop_
_geom_bond_atom_site_label_1
_geom_bond_atom_site_label_2
_ccdc_geom_bond_type
C4    Br1   S    
C29   H6    S    
C12   O4    A    
C9    C14   A    
C27   O7    A    
C1    O2    A    
O10   H13   S    
C25   N1    A    
C1    C8    S    
C2    C28   A    
C9    C10   A    
C25   H2    S    
C6    C32   A    
C24   H1    S    
C14   C15   A    
C13   C17   A    
C17   Br2   S    
C21   C26   A    
C34   O11   D    
C7    C15   A    
C12   O3    A    
C19   N2    A    
C18   C22   A    
C13   C14   A    
C31   H8    S    
C33   O10   S    
C20   H5    S    
C11   C13   A    
C16   H11   S    
C18   C34   S    
C23   O6    A    
C29   C30   A    
C8    C11   A    
C7    C23   S    
C24   N1    A    
O1    Zn1   S    
C28   C29   A    
C28   C35   S    
C30   H7    S    
C10   Br3   S    
O8    Zn2   S    
C19   H4    S    
O7    Zn1   S    
C1    O1    A    
C5    C6    A    
C31   C32   A    
C22   C24   A    
C27   O8    A    
C16   C17   A    
C21   C22   A    
C11   C33   S    
O6    Zn2   S    
C26   H3    S    
C4    C5    A    
O14   H15   S    
O12   H14   S    
C20   C21   A    
N1    Zn1   S    
C2    C32   A    
C18   C19   A    
N2    Zn2   S    
O2    Zn2   S    
C35   O14   S    
C5    H9    S    
C30   C31   A    
C7    C16   A    
C9    H12   S    
C2    C3    A    
C3    C12   S    
O5    Zn1   S    
C25   C26   A    
O3    Zn1   S    
C23   O5    A    
C35   O13   D    
C8    C10   A    
O4    Zn2   S    
C3    C4    A    
C6    C27   S    
C15   H10   S    
C33   O9    D    
C20   N2    A    
C34   O12   S    
