data_mof_unit_38654.cif
_audit_creation_date              2012-12-10T20:36:34-0500
_audit_creation_method            fapswitch 2.2
_symmetry_space_group_name_H-M    P1
_symmetry_Int_Tables_number       1
_space_group_crystal_system       triclinic
_cell_length_a                    10.495555
_cell_length_b                    10.656311
_cell_length_c                    9.901379
_cell_angle_alpha                 90.27396
_cell_angle_beta                  91.024146
_cell_angle_gamma                 90.304352
_cell_volume                      1107.20312751

loop_
_atom_site_label
_atom_site_type_symbol
_atom_type_description
_atom_site_fract_x
_atom_site_fract_y
_atom_site_fract_z
_atom_type_partial_charge
C1    C     C_R   0.503532 0.260025 0.499896 0.896149
C2    C     C_3   0.955492 0.402556 0.430916 -0.156845
C3    C     C_3   0.043420 0.396879 0.557585 -0.188345
C4    C     C_3   0.122516 0.503370 0.497614 -0.089142
C5    C     C_R   0.517078 0.064005 0.622853 0.107573
C6    C     C_R   0.523470 0.128527 0.501149 -0.061486
C7    C     C_R   0.556653 0.064518 0.382864 -0.219045
C8    C     C_R   0.559209 0.934599 0.383484 -0.218680
C9    C     C_R   0.529386 0.870932 0.502685 -0.075300
C10   C     C_R   0.523398 0.936372 0.624335 0.088442
C11   C     C_3   0.432217 0.925124 0.738282 -0.466385
C12   C     C_R   0.257506 0.501228 0.498961 0.885046
C13   C     C_3   0.422674 0.067580 0.735144 -0.214707
C14   C     C_R   0.410862 0.432470 0.068960 0.210550
C15   C     C_R   0.593301 0.558698 0.075382 -0.103079
C16   C     C_R   0.593290 0.561120 0.931656 -0.004809
C17   C     C_R   0.410897 0.432239 0.926531 0.166635
C18   C     C_3   0.270341 0.452192 0.918974 -0.461982
C19   C     C_3   0.270539 0.452076 0.071956 -0.494256
C20   C     C_R   0.506018 0.739770 0.500444 0.856743
C21   C     C_R   0.742398 0.500241 0.501176 0.860885
C22   C     C_3   0.043480 0.602280 0.569566 -0.001945
C23   C     C_3   0.962398 0.496528 0.630288 -0.138960
C24   C     C_3   0.877205 0.502321 0.503148 -0.036790
C25   C     C_3   0.956611 0.608328 0.443679 0.064201
C26   C     C_3   0.036844 0.509134 0.370520 -0.157228
H1    H     H_    0.928337 0.491239 0.735638 0.193367
H2    H     H_    0.479930 0.889673 0.831611 0.182433
H3    H     H_    0.461983 0.113742 0.827962 0.125790
H4    H     H_    0.665443 0.609233 0.133412 0.176339
H5    H     H_    0.244479 0.544654 0.875050 0.249955
H6    H     H_    0.218494 0.370871 0.873583 0.186124
H7    H     H_    0.245197 0.544681 0.115839 0.216381
H8    H     H_    0.219598 0.370178 0.114976 0.201531
H9    H     H_    0.069202 0.514214 0.264805 0.151571
H10   H     H_    0.914734 0.320648 0.375116 0.146329
H11   H     H_    0.083463 0.310514 0.603502 0.168181
H12   H     H_    0.571927 0.113464 0.288837 0.167931
H13   H     H_    0.575213 0.884944 0.289608 0.169635
H14   H     H_    0.343325 0.873925 0.709097 0.224788
N1    N     N_R   0.499140 0.499140 0.142800 -0.128588
N2    N     N_R   0.499140 0.499180 0.857150 -0.152187
O1    O     O_R   0.500020 0.316790 0.614690 -0.627696
O2    O     O_R   0.500000 0.316760 0.385350 -0.616543
O3    O     O_R   0.313960 0.499990 0.614650 -0.622148
O4    O     O_R   0.313940 0.499950 0.385310 -0.617152
O5    O     O_R   0.500000 0.683240 0.614650 -0.650130
O6    O     O_R   0.499980 0.683210 0.385310 -0.622961
O7    O     O_R   0.686060 0.500050 0.614690 -0.649220
O8    O     O_R   0.686040 0.500010 0.385350 -0.629383
Zn1   Zn    Zn3+2 0.500010 0.500020 0.653130 0.926422
Zn2   Zn    Zn3+2 0.499990 0.499980 0.346870 0.938673
C27   C     C_2   0.291830 0.113479 0.694153 0.456782
H15   H     H_    0.240837 0.174756 0.761695 0.034838
O9    O     O_2   0.241183 0.080619 0.587564 -0.592276
C28   C     C_2   0.691896 0.638055 0.865948 0.390847
H16   H     H_    0.677390 0.674533 0.765807 0.134825
O10   O     O_2   0.791436 0.664675 0.925465 -0.579352
C29   C     C_2   0.097432 0.712413 0.646196 0.395359
H17   H     H_    0.161386 0.777007 0.596861 0.051336
O11   O     O_2   0.070495 0.729391 0.764201 -0.543193
C30   C     C_3   0.898097 0.726336 0.380865 -0.439820
C31   C     C_3   0.998173 0.807725 0.311774 -0.325138
C32   C     C_3   0.937453 0.924588 0.250308 -0.802237
H18   H     H_    0.863935 0.897631 0.173244 0.269404
H19   H     H_    0.892584 0.982178 0.330125 0.254891
H20   H     H_    0.011723 0.982043 0.200934 0.252644
H21   H     H_    0.072977 0.837482 0.385936 0.223452
H22   H     H_    0.044060 0.752979 0.230293 0.235749
H23   H     H_    0.824461 0.697456 0.304859 0.223739
H24   H     H_    0.850923 0.781102 0.461487 0.201467

loop_
_geom_bond_atom_site_label_1
_geom_bond_atom_site_label_2
_ccdc_geom_bond_type
C15   C16   A    
C4    C26   S    
C23   C24   S    
C16   C28   S    
C6    C7    A    
C8    H13   S    
C23   H1    S    
C4    C12   S    
C4    C22   S    
C9    C10   A    
N1    Zn2   S    
O8    Zn2   S    
O6    Zn2   S    
N2    Zn1   S    
C22   C25   S    
C32   H18   S    
O2    Zn2   S    
C30   C31   S    
C21   O7    A    
C17   C18   S    
C8    C9    A    
C29   H17   S    
C2    C26   S    
C27   H15   S    
C24   C25   S    
C11   C13   S    
C14   C17   A    
O1    Zn1   S    
C20   O6    A    
C11   H2    S    
C14   N1    A    
C5    C6    A    
C13   H3    S    
C21   O8    A    
C7    H12   S    
C28   O10   D    
C30   H24   S    
C2    C3    S    
C13   C27   S    
C25   C30   S    
C27   O9    D    
C2    C24   S    
C11   H14   S    
C9    C20   S    
C29   O11   D    
C20   O5    A    
C7    C8    A    
C10   C11   S    
O3    Zn1   S    
C1    C6    S    
C32   H20   S    
O4    Zn2   S    
C26   H9    S    
C5    C10   A    
C18   H6    S    
C28   H16   S    
C15   N1    A    
C15   H4    S    
C12   O4    A    
C18   C19   S    
C19   H7    S    
C21   C24   S    
C2    H10   S    
C22   C29   S    
C3    C23   S    
C31   H21   S    
C12   O3    A    
C30   H23   S    
O5    Zn1   S    
C18   H5    S    
C1    O2    A    
C25   C26   S    
C17   N2    A    
C16   N2    A    
C5    C13   S    
C14   C19   S    
C1    O1    A    
C22   C23   S    
C3    C4    S    
C31   H22   S    
C3    H11   S    
C31   C32   S    
O7    Zn1   S    
C19   H8    S    
C32   H19   S    
