data_mof_unit_64676.cif
_audit_creation_date              2012-12-10T18:11:27-0500
_audit_creation_method            fapswitch 2.2
_symmetry_space_group_name_H-M    P1
_symmetry_Int_Tables_number       1
_space_group_crystal_system       triclinic
_cell_length_a                    18.317451
_cell_length_b                    18.321689
_cell_length_c                    34.490135
_cell_angle_alpha                 90.004416
_cell_angle_beta                  90.009702
_cell_angle_gamma                 89.999832
_cell_volume                      11575.1181372

loop_
_atom_site_label
_atom_site_type_symbol
_atom_type_description
_atom_site_fract_x
_atom_site_fract_y
_atom_site_fract_z
_atom_type_partial_charge
C1    C     C_R   0.472861 0.060250 0.041588 -0.133021
C2    C     C_R   0.027293 0.439819 0.458415 -0.133156
C3    C     C_R   0.696051 0.803944 0.750006 -0.423144
C4    C     C_R   0.803950 0.303948 0.249997 -0.414938
C5    C     C_R   0.196057 0.696049 0.749994 -0.423729
C6    C     C_R   0.696053 0.803949 0.249994 -0.421656
C7    C     C_R   0.303952 0.196057 0.750001 -0.423684
C8    C     C_R   0.196058 0.303951 0.750002 -0.422545
C9    C     C_R   0.803947 0.696050 0.250006 -0.421650
C10   C     C_R   0.303943 0.803951 0.750006 -0.424053
C11   C     C_R   0.696050 0.196052 0.250003 -0.414942
C12   C     C_R   0.803932 0.696040 0.749996 -0.426098
C13   C     C_R   0.439885 0.027231 0.541565 -0.134744
C14   C     C_R   0.196066 0.303960 0.250015 -0.421879
C15   C     C_R   0.696385 0.195899 0.749916 -0.368499
C16   C     C_R   0.303943 0.803951 0.249993 -0.423322
C17   C     C_R   0.500004 0.000023 0.102593 -0.231274
C18   C     C_R   0.500014 0.000013 0.897422 -0.233320
C19   C     C_R   0.999938 0.499963 0.102581 -0.235497
C20   C     C_R   0.999968 0.499998 0.897413 -0.234063
C21   C     C_R   0.999985 0.499986 0.602579 -0.231362
C22   C     C_R   0.999996 0.499976 0.397409 -0.231338
C23   C     C_R   0.500038 0.000004 0.602589 -0.232619
C24   C     C_R   0.559765 0.028412 0.458431 -0.133106
C25   C     C_R   0.500066 0.000036 0.397420 -0.235510
C26   C     C_R   0.971975 0.440159 0.541563 -0.133524
C27   C     C_R   0.972674 0.560086 0.458424 -0.134334
C28   C     C_R   0.560311 0.972918 0.541586 -0.134994
C29   C     C_R   0.440441 0.971723 0.458442 -0.135851
C30   C     C_R   0.472780 0.061418 0.081965 0.428970
C31   C     C_R   0.528198 0.060971 0.918061 0.424647
C32   C     C_R   0.939047 0.471575 0.081949 0.426365
C33   C     C_R   0.528122 0.059793 0.958438 -0.132984
C34   C     C_R   0.938605 0.527323 0.918039 0.425972
C35   C     C_R   0.527259 0.938654 0.081955 0.425384
C36   C     C_R   0.471819 0.939072 0.918060 0.425130
C37   C     C_R   0.060815 0.528298 0.081935 0.425737
C38   C     C_R   0.061293 0.472624 0.918059 0.424346
C39   C     C_R   0.028086 0.560970 0.581941 0.424825
C40   C     C_R   0.027373 0.438649 0.418038 0.428850
C41   C     C_R   0.438677 0.027292 0.581942 0.424473
C42   C     C_R   0.560928 0.028488 0.418051 0.426367
C43   C     C_R   0.971893 0.438984 0.581940 0.424001
C44   C     C_R   0.940213 0.471652 0.041570 -0.132562
C45   C     C_R   0.972587 0.561276 0.418048 0.425360
C46   C     C_R   0.561443 0.972768 0.581965 0.424606
C47   C     C_R   0.439223 0.971633 0.418067 0.425635
C48   C     C_R   0.500006 0.000046 0.021296 -0.050136
C49   C     C_R   0.499996 0.000044 0.978725 -0.050401
C50   C     C_R   0.999899 0.499922 0.021280 -0.051474
C51   C     C_R   0.999899 0.499908 0.978712 -0.049679
C52   C     C_R   0.000002 0.499954 0.521277 -0.050437
C53   C     C_R   0.999991 0.499951 0.478707 -0.050132
C54   C     C_R   0.500113 0.000090 0.521290 -0.049678
C55   C     C_R   0.939741 0.527171 0.958418 -0.134633
C56   C     C_R   0.500113 0.000073 0.478722 -0.051363
C57   C     C_R   0.500030 0.000007 0.355087 0.757520
C58   C     C_R   0.500010 0.999999 0.644916 0.758465
C59   C     C_R   0.000002 0.499991 0.355085 0.758749
C60   C     C_R   0.999995 0.499997 0.644911 0.755408
C61   C     C_R   0.999992 0.500002 0.855084 0.762017
C62   C     C_R   0.999970 0.499993 0.144913 0.757526
C63   C     C_R   0.500005 0.000003 0.855090 0.758779
C64   C     C_R   0.499998 0.000008 0.144916 0.758739
C65   C     C_R   0.360017 0.139969 0.249998 0.809618
C66   C     C_R   0.527167 0.939841 0.041578 -0.133989
C67   C     C_R   0.639977 0.860025 0.750002 0.807750
C68   C     C_R   0.860024 0.360029 0.249998 0.809913
C69   C     C_R   0.139975 0.639974 0.749998 0.807517
C70   C     C_R   0.639972 0.860025 0.249996 0.809100
C71   C     C_R   0.360027 0.139975 0.750001 0.808198
C72   C     C_R   0.139979 0.639972 0.250002 0.808154
C73   C     C_R   0.860208 0.359764 0.749783 0.899385
C74   C     C_R   0.360025 0.860026 0.750002 0.808184
C75   C     C_R   0.639976 0.139971 0.250002 0.809912
C76   C     C_R   0.860014 0.639968 0.750002 0.812781
C77   C     C_R   0.471877 0.940281 0.958436 -0.136101
C78   C     C_R   0.139983 0.360031 0.250002 0.809612
C79   C     C_R   0.640032 0.139981 0.750008 0.809948
C80   C     C_R   0.360021 0.860028 0.249998 0.808161
C81   C     C_R   0.139978 0.360029 0.750001 0.806027
C82   C     C_R   0.860028 0.639975 0.250004 0.809101
C83   C     C_R   0.230534 0.823181 0.257815 0.427759
C84   C     C_R   0.770316 0.175638 0.744505 0.426909
C85   C     C_R   0.176860 0.230622 0.257999 0.427891
C86   C     C_R   0.823220 0.769465 0.742292 0.426785
C87   C     C_R   0.712114 0.234128 0.215310 0.432435
C88   C     C_R   0.059602 0.528204 0.041560 -0.135808
C89   C     C_R   0.230521 0.823182 0.742200 0.427536
C90   C     C_R   0.823151 0.769387 0.257999 0.427774
C91   C     C_R   0.176793 0.230545 0.742224 0.428117
C92   C     C_R   0.230526 0.176813 0.742222 0.427970
C93   C     C_R   0.769417 0.823121 0.257994 0.426914
C94   C     C_R   0.176794 0.769443 0.742190 0.428375
C95   C     C_R   0.765859 0.287857 0.215305 0.432051
C96   C     C_R   0.769491 0.823199 0.742291 0.429387
C97   C     C_R   0.230575 0.176869 0.257975 0.426812
C98   C     C_R   0.824327 0.229017 0.744441 0.380787
C99   C     C_R   0.060087 0.472682 0.958436 -0.133923
C100  C     C_R   0.176803 0.769446 0.257818 0.426958
C101  C     C_R   0.731260 0.323975 0.753354 0.416917
C102  C     C_R   0.269466 0.676819 0.242185 0.427745
C103  C     C_R   0.676761 0.730520 0.757709 0.427035
C104  C     C_R   0.323140 0.269378 0.242001 0.427870
C105  C     C_R   0.269479 0.676818 0.757800 0.427239
C106  C     C_R   0.787886 0.265872 0.284690 0.432409
C107  C     C_R   0.323221 0.269466 0.757775 0.427286
C108  C     C_R   0.676849 0.730613 0.242001 0.427760
C109  C     C_R   0.730583 0.676878 0.242006 0.426902
C110  C     C_R   0.028022 0.559764 0.541564 -0.136560
C111  C     C_R   0.269484 0.323196 0.757781 0.427730
C112  C     C_R   0.734141 0.212143 0.284695 0.432026
C113  C     C_R   0.323206 0.730557 0.757810 0.428003
C114  C     C_R   0.269425 0.323131 0.242025 0.426802
C115  C     C_R   0.730483 0.676778 0.757698 0.425986
C116  C     C_R   0.323197 0.730554 0.242182 0.426946
C117  C     C_R   0.676705 0.270129 0.754863 0.324619
C118  C     C_R   0.196057 0.696049 0.250007 -0.423325
C119  C     C_R   0.804627 0.303120 0.749019 -0.348453
C120  C     C_R   0.303934 0.196040 0.249985 -0.421888
H1    H     H_    0.451475 0.106864 0.025920 0.187820
H2    H     H_    0.048796 0.393260 0.474084 0.187866
H3    H     H_    0.393283 0.048629 0.525882 0.187940
H4    H     H_    0.605957 0.050714 0.474102 0.190012
H5    H     H_    0.949923 0.393858 0.525890 0.189711
H6    H     H_    0.951159 0.606631 0.474099 0.187775
H7    H     H_    0.606935 0.951545 0.525919 0.187957
H8    H     H_    0.394260 0.949442 0.474121 0.187780
H9    H     H_    0.251168 0.922990 0.275178 0.328345
H10   H     H_    0.751143 0.075492 0.727621 0.327168
H11   H     H_    0.077132 0.251420 0.275465 0.329599
H12   H     H_    0.550251 0.106058 0.974110 0.189747
H13   H     H_    0.923063 0.748897 0.724954 0.327481
H14   H     H_    0.628455 0.197123 0.185751 0.329930
H15   H     H_    0.251124 0.923015 0.724876 0.328217
H16   H     H_    0.922938 0.748611 0.275408 0.328327
H17   H     H_    0.076964 0.251157 0.724863 0.325943
H18   H     H_    0.251123 0.077009 0.724849 0.328305
H19   H     H_    0.748665 0.922895 0.275386 0.329237
H20   H     H_    0.076980 0.748795 0.724806 0.328090
H21   H     H_    0.802937 0.371426 0.185717 0.329017
H22   H     H_    0.748936 0.923003 0.724924 0.327377
H23   H     H_    0.893997 0.449403 0.025897 0.190278
H24   H     H_    0.251308 0.077044 0.275300 0.328244
H25   H     H_    0.925209 0.247486 0.728575 0.324147
H26   H     H_    0.076971 0.748805 0.275164 0.328222
H27   H     H_    0.661983 0.404989 0.759312 0.413651
H28   H     H_    0.248832 0.577010 0.224823 0.328356
H29   H     H_    0.576917 0.751095 0.775044 0.328539
H30   H     H_    0.422868 0.248580 0.224536 0.329612
H31   H     H_    0.248876 0.576985 0.775123 0.328237
H32   H     H_    0.871545 0.302876 0.314248 0.329920
H33   H     H_    0.423090 0.248860 0.775089 0.327836
H34   H     H_    0.893149 0.548611 0.974087 0.187975
H35   H     H_    0.577062 0.751389 0.224592 0.328343
H36   H     H_    0.751335 0.577105 0.224614 0.329249
H37   H     H_    0.248883 0.423001 0.775151 0.328578
H38   H     H_    0.697063 0.128574 0.314283 0.329013
H39   H     H_    0.423020 0.751205 0.775194 0.328243
H40   H     H_    0.248691 0.422955 0.224700 0.328253
H41   H     H_    0.751012 0.576876 0.774950 0.343071
H42   H     H_    0.423028 0.751195 0.224836 0.328237
H43   H     H_    0.577665 0.251169 0.773616 0.345347
H44   H     H_    0.456817 0.122801 0.127739 0.336327
H45   H     H_    0.548563 0.893240 0.025904 0.187825
H46   H     H_    0.544688 0.122318 0.872340 0.335562
H47   H     H_    0.877768 0.454848 0.127679 0.335892
H48   H     H_    0.877306 0.543588 0.872254 0.338808
H49   H     H_    0.543377 0.877294 0.127722 0.335518
H50   H     H_    0.455364 0.877684 0.872343 0.335959
H51   H     H_    0.122232 0.544848 0.127637 0.336188
H52   H     H_    0.122701 0.456537 0.872308 0.335291
H53   H     H_    0.044513 0.622354 0.627663 0.336007
H54   H     H_    0.043397 0.377264 0.372273 0.336370
H55   H     H_    0.377265 0.043347 0.627696 0.335791
H56   H     H_    0.449744 0.894025 0.974107 0.187635
H57   H     H_    0.622204 0.045243 0.372324 0.335914
H58   H     H_    0.955421 0.377648 0.627668 0.334143
H59   H     H_    0.956433 0.622648 0.372291 0.335547
H60   H     H_    0.622746 0.956566 0.627755 0.335496
H61   H     H_    0.377801 0.955055 0.372370 0.336210
H62   H     H_    0.105810 0.550432 0.025882 0.187750
H63   H     H_    0.106660 0.451218 0.974118 0.187864
H64   H     H_    0.050077 0.606055 0.525893 0.187743
O1    O     O_3   0.500000 1.000000 0.250000 -0.521540
O2    O     O_R   0.500000 0.939280 0.663170 -0.618548
O3    O     O_3   0.377216 0.944180 0.400427 -0.720788
O4    O     O_R   0.939280 0.500000 0.336830 -0.616056
O5    O     O_R   0.060720 0.500000 0.663170 -0.618718
O6    O     O_R   0.000000 0.439280 0.836830 -0.615349
O7    O     O_R   0.000000 0.560720 0.163170 -0.618479
O8    O     O_R   0.560720 1.000000 0.836830 -0.617505
O9    O     O_R   0.439280 1.000000 0.163170 -0.619622
O10   O     O_R   0.000000 0.560720 0.836830 -0.618744
O11   O     O_R   0.000000 0.439280 0.163170 -0.617487
O12   O     O_R   0.439280 1.000000 0.836830 -0.618345
O13   O     O_3   0.500000 1.000000 0.750000 -0.521464
O14   O     O_R   0.560720 1.000000 0.163170 -0.616031
O15   O     O_R   0.414510 0.146140 0.272820 -0.615546
O16   O     O_R   0.585490 0.853860 0.727180 -0.615401
O17   O     O_R   0.853860 0.414510 0.272820 -0.614212
O18   O     O_R   0.146140 0.585490 0.727180 -0.615161
O19   O     O_R   0.585490 0.853860 0.272820 -0.616002
O20   O     O_R   0.414510 0.146140 0.727180 -0.614419
O21   O     O_R   0.146140 0.585490 0.272820 -0.616046
O22   O     O_R   0.853860 0.414510 0.727180 -0.588143
O23   O     O_R   0.414510 0.853860 0.727180 -0.615759
O24   O     O_3   0.000000 0.500000 0.250000 -0.521543
O25   O     O_R   0.585490 0.146140 0.272820 -0.614822
O26   O     O_R   0.853860 0.585490 0.727180 -0.609303
O27   O     O_R   0.146140 0.414510 0.272820 -0.615471
O28   O     O_R   0.585490 0.146140 0.727180 -0.611377
O29   O     O_R   0.414510 0.853860 0.272820 -0.615187
O30   O     O_R   0.146140 0.414510 0.727180 -0.616236
O31   O     O_R   0.853860 0.585490 0.272820 -0.615261
O32   O     O_R   0.914510 0.646140 0.772820 -0.615047
O33   O     O_R   0.085490 0.353860 0.227180 -0.615503
O34   O     O_R   0.353860 0.914510 0.772820 -0.614796
O35   O     O_3   0.000000 0.500000 0.750000 -0.525346
O36   O     O_R   0.646140 0.085490 0.227180 -0.614168
O37   O     O_R   0.085490 0.353860 0.772820 -0.616799
O38   O     O_R   0.914510 0.646140 0.227180 -0.615958
O39   O     O_R   0.646140 0.085490 0.772820 -0.617033
O40   O     O_R   0.353860 0.914510 0.227180 -0.616009
O41   O     O_R   0.914510 0.353860 0.227180 -0.614781
O42   O     O_R   0.085490 0.646140 0.772820 -0.616145
O43   O     O_R   0.353860 0.085490 0.227180 -0.615440
O44   O     O_R   0.646140 0.914510 0.772820 -0.614911
O45   O     O_R   0.085490 0.646140 0.227180 -0.615153
O46   O     O_R   0.500000 0.939280 0.336830 -0.618503
O47   O     O_R   0.914510 0.353860 0.772820 -0.632600
O48   O     O_R   0.646140 0.914510 0.227180 -0.615220
O49   O     O_R   0.353860 0.085490 0.772820 -0.615579
O50   O     O_3   0.208750 0.893506 0.266902 -0.630317
O51   O     O_3   0.792355 0.104444 0.737926 -0.623751
O52   O     O_3   0.106582 0.208933 0.267268 -0.643509
O53   O     O_3   0.893599 0.791262 0.733312 -0.627311
O54   O     O_3   0.675149 0.222515 0.180831 -0.648120
O55   O     O_3   0.208718 0.893510 0.733134 -0.627271
O56   O     O_3   0.893441 0.791095 0.267255 -0.632288
O57   O     O_R   0.500000 0.060720 0.663170 -0.618581
O58   O     O_3   0.106432 0.208764 0.733178 -0.628218
O59   O     O_3   0.208728 0.106476 0.733167 -0.626858
O60   O     O_3   0.791153 0.893382 0.267252 -0.644108
O61   O     O_3   0.106442 0.791202 0.733109 -0.626967
O62   O     O_3   0.777470 0.324771 0.180816 -0.639504
O63   O     O_3   0.791306 0.893554 0.733300 -0.627016
O64   O     O_3   0.208823 0.106599 0.267201 -0.632745
O65   O     O_3   0.895399 0.206277 0.738156 -0.623218
O66   O     O_3   0.106459 0.791215 0.266899 -0.630602
O67   O     O_3   0.715396 0.397441 0.757898 -0.700539
O68   O     O_R   0.060720 0.500000 0.336830 -0.619630
O69   O     O_3   0.291250 0.606494 0.233097 -0.630340
O70   O     O_3   0.606380 0.708727 0.766689 -0.632498
O71   O     O_3   0.393418 0.291067 0.232732 -0.643535
O72   O     O_3   0.291282 0.606490 0.766865 -0.630238
O73   O     O_3   0.824851 0.277485 0.319169 -0.648262
O74   O     O_3   0.393585 0.291253 0.766813 -0.634356
O75   O     O_3   0.606559 0.708905 0.232745 -0.632305
O76   O     O_3   0.708847 0.606618 0.232748 -0.644131
O77   O     O_3   0.291280 0.393533 0.766837 -0.630787
O78   O     O_3   0.722529 0.175229 0.319184 -0.639616
O79   O     O_R   0.939280 0.500000 0.663170 -0.623486
O80   O     O_3   0.393558 0.708798 0.766891 -0.630127
O81   O     O_3   0.291177 0.393401 0.232798 -0.632768
O82   O     O_3   0.708644 0.606415 0.766661 -0.634243
O83   O     O_3   0.393541 0.708785 0.233101 -0.630620
O84   O     O_3   0.605547 0.291845 0.761952 -0.702547
O85   O     O_3   0.446484 0.123887 0.099627 -0.717762
O86   O     O_3   0.555432 0.123041 0.900412 -0.720373
O87   O     O_3   0.877062 0.444130 0.099605 -0.702881
O88   O     O_3   0.876191 0.553788 0.900378 -0.719126
O89   O     O_3   0.553602 0.876190 0.099602 -0.720617
O90   O     O_R   0.500000 0.060720 0.336830 -0.617529
O91   O     O_3   0.444591 0.876989 0.900410 -0.720834
O92   O     O_3   0.122847 0.555689 0.099577 -0.720763
O93   O     O_3   0.123737 0.446201 0.900418 -0.720949
O94   O     O_3   0.055229 0.623091 0.599591 -0.720815
O95   O     O_3   0.053819 0.376243 0.400377 -0.717807
O96   O     O_3   0.376197 0.053634 0.599581 -0.720912
O97   O     O_3   0.622884 0.055997 0.400394 -0.703021
O98   O     O_3   0.944745 0.376876 0.599590 -0.721628
O99   O     O_3   0.946096 0.623677 0.400401 -0.720664
O100  O     O_3   0.623893 0.946393 0.599629 -0.721216
Zn1   Zn    Zn3+2 0.413200 0.000000 0.217600 1.005933
Zn2   Zn    Zn3+2 0.086800 0.500000 0.282400 1.005869
Zn3   Zn    Zn3+2 0.500000 0.913200 0.717600 1.005638
Zn4   Zn    Zn3+2 0.500000 0.086800 0.282400 1.008261
Zn5   Zn    Zn3+2 0.086800 0.500000 0.717600 1.002430
Zn6   Zn    Zn3+2 0.913200 0.500000 0.282400 1.009402
Zn7   Zn    Zn3+2 0.500000 0.086800 0.717600 1.007118
Zn8   Zn    Zn3+2 0.500000 0.913200 0.282400 1.005858
Zn9   Zn    Zn3+2 0.586800 0.000000 0.782400 1.007669
Zn10  Zn    Zn3+2 1.000000 0.413200 0.217600 1.008357
Zn11  Zn    Zn3+2 0.000000 0.586800 0.782400 1.011096
Zn12  Zn    Zn3+2 0.586800 0.000000 0.217600 1.009493
Zn13  Zn    Zn3+2 0.413200 0.000000 0.782400 1.006821
Zn14  Zn    Zn3+2 1.000000 0.586800 0.217600 1.005931
Zn15  Zn    Zn3+2 1.000000 0.413200 0.782400 1.012618
Zn16  Zn    Zn3+2 0.913200 0.500000 0.717600 1.023944

loop_
_geom_bond_atom_site_label_1
_geom_bond_atom_site_label_2
_ccdc_geom_bond_type
C55   H34   S    
H37   O77   S    
C73   O22   A    
O8    Zn9   S    
C73   C119  S    
C64   O14   A    
C58   O2    A    
O24   Zn14  S    
C116  O83   S    
H61   O3    S    
O30   Zn5   S    
O13   Zn13  S    
C57   O90   A    
C3    C103  A    
O49   Zn13  S    
C107  O74   S    
C45   O99   S    
C13   C54   A    
C95   O62   S    
C44   C50   A    
H42   O83   S    
C108  C109  A    
C89   C94   A    
C111  O77   S    
C19   C37   A    
C65   O15   A    
H39   O80   S    
O35   Zn15  S    
C12   C115  A    
C23   C46   A    
C17   C30   A    
H14   O54   S    
C60   O79   A    
C34   O88   S    
C30   O85   S    
C19   C32   A    
O24   Zn10  S    
O13   Zn3   S    
C79   O28   A    
O13   Zn9   S    
C8    C81   S    
C84   O51   S    
H55   O96   S    
O46   Zn8   S    
C67   O16   A    
C8    C111  A    
C28   C54   A    
C5    C105  A    
C35   C66   A    
C14   C114  A    
C93   O60   S    
O19   Zn8   S    
C16   C80   S    
O15   Zn4   S    
C88   H62   S    
C52   C110  A    
H27   O67   S    
O1    Zn12  S    
O79   Zn16  S    
O16   Zn3   S    
C10   C113  A    
O10   Zn11  S    
O11   Zn10  S    
O35   Zn11  S    
C83   C100  A    
H16   O56   S    
O90   Zn4   S    
C90   C93   A    
H53   O94   S    
C76   O26   A    
C11   C112  A    
C2    C53   A    
C9    C90   A    
C98   O65   S    
C27   C53   A    
C1    C48   A    
C15   C84   A    
C82   O38   A    
C24   C56   A    
C23   C41   A    
C12   C86   A    
O21   Zn2   S    
C36   C77   A    
C102  O69   S    
C41   O96   S    
C57   O46   A    
H58   O98   S    
C7    C92   A    
O39   Zn9   S    
C65   C120  S    
C51   C55   A    
C94   O61   S    
C117  O84   S    
C85   C97   A    
C82   O31   A    
C2    C40   A    
C22   C45   A    
C35   O89   S    
C72   C118  S    
C103  O70   S    
C63   O12   A    
C32   O87   S    
C18   C31   A    
H18   O59   S    
H44   O85   S    
O14   Zn12  S    
H43   O84   S    
C46   O100  S    
H10   O51   S    
C69   O42   A    
C28   C46   A    
C29   C47   A    
H25   O65   S    
O43   Zn1   S    
C78   O33   A    
C27   H6    S    
C63   O8    A    
C65   O43   A    
C20   C61   S    
H32   O73   S    
C15   C79   S    
C40   O95   S    
C11   C87   A    
H38   O78   S    
C87   C95   A    
C96   O63   S    
C99   H63   S    
H52   O93   S    
C28   H7    S    
H54   O95   S    
C69   O18   A    
O25   Zn4   S    
C25   C57   S    
H50   O91   S    
O34   Zn13  S    
C74   O23   A    
C71   O20   A    
C91   C92   A    
C4    C68   S    
O7    Zn14  S    
C4    C106  A    
O57   Zn7   S    
H35   O75   S    
O12   Zn13  S    
O36   Zn12  S    
C38   O93   S    
O24   Zn2   S    
C74   O34   A    
C31   O86   S    
O45   Zn14  S    
O24   Zn6   S    
O5    Zn5   S    
C33   H12   S    
C77   H56   S    
C7    C107  A    
C47   O3    S    
C73   O47   A    
C42   O97   S    
C52   C53   S    
C66   H45   S    
C107  C111  A    
C79   O39   A    
C62   O7    A    
H9    O50   S    
C11   C75   S    
C39   O94   S    
H30   O71   S    
C44   H23   S    
C49   C77   A    
C71   O49   A    
C1    H1    S    
O33   Zn10  S    
O31   Zn6   S    
O9    Zn1   S    
H22   O63   S    
C87   O54   S    
C108  O75   S    
C48   C66   A    
H31   O72   S    
O17   Zn6   S    
C24   C42   A    
C37   C88   A    
C13   C41   A    
C5    C94   A    
O6    Zn15  S    
H59   O99   S    
C104  O71   S    
O1    Zn4   S    
O2    Zn3   S    
C37   O92   S    
O23   Zn3   S    
C13   H3    S    
C92   O59   S    
C33   C49   A    
C5    C69   S    
O13   Zn7   S    
C106  O73   S    
H60   O100  S    
C25   C47   A    
C9    C82   S    
C20   C34   A    
C27   C45   A    
C110  H64   S    
C34   C55   A    
C101  O67   S    
O27   Zn2   S    
C62   O11   A    
H33   O74   S    
C16   C116  A    
C2    H2    S    
C9    C109  A    
H49   O89   S    
C21   C60   S    
C22   C59   S    
C68   O41   A    
O35   Zn5   S    
C16   C83   A    
C15   C117  A    
O44   Zn9   S    
C26   H5    S    
C103  C115  A    
C80   O40   A    
C4    C95   A    
C76   O32   A    
C91   O58   S    
C6    C93   A    
C50   C51   S    
C8    C91   A    
C80   O29   A    
O28   Zn7   S    
C86   C96   A    
O35   Zn16  S    
H17   O58   S    
C48   C49   S    
C12   C76   S    
C61   O6    A    
C100  C118  A    
C105  C113  A    
C70   O19   A    
C6    C70   S    
C75   O25   A    
C68   O17   A    
C38   C99   A    
C25   C42   A    
C72   O21   A    
C29   C56   A    
H11   O52   S    
C81   O37   A    
O42   Zn11  S    
C101  C117  A    
C109  O76   S    
C75   O36   A    
C1    C30   A    
C23   C58   S    
C70   O48   A    
H13   O53   S    
O20   Zn7   S    
C17   C35   A    
C105  O72   S    
C18   C36   A    
C78   O27   A    
C113  O80   S    
O41   Zn10  S    
C104  C120  A    
C85   O52   S    
C89   O55   S    
C97   O64   S    
O22   Zn16  S    
C98   C119  A    
C106  C112  A    
H26   O66   S    
H47   O87   S    
C100  O66   S    
H48   O88   S    
C17   C64   S    
C7    C71   S    
C18   C63   S    
C19   C62   S    
C24   H4    S    
C86   O53   S    
O1    Zn1   S    
H51   O92   S    
C21   C43   A    
C39   C110  A    
C60   O5    A    
O18   Zn5   S    
C31   C33   A    
C3    C96   A    
C36   O91   S    
C102  C118  A    
C50   C88   A    
O32   Zn11  S    
H28   O69   S    
O38   Zn14  S    
H46   O86   S    
O1    Zn8   S    
C26   C43   A    
O26   Zn16  S    
C51   C99   A    
C54   C56   S    
C72   O45   A    
H20   O61   S    
C101  C119  A    
C10   C89   A    
C114  O81   S    
O29   Zn8   S    
H29   O70   S    
C58   O57   A    
C26   C52   A    
O48   Zn12  S    
C43   O98   S    
C20   C38   A    
C81   O30   A    
C21   C39   A    
C83   O50   S    
H41   O82   S    
C22   C40   A    
C64   O9    A    
H21   O62   S    
C32   C44   A    
C59   O4    A    
H19   O60   S    
C104  C114  A    
H57   O97   S    
H24   O64   S    
O37   Zn15  S    
C3    C67   S    
C14   C85   A    
O68   Zn2   S    
O4    Zn6   S    
C115  O82   S    
C90   O56   S    
C84   C98   A    
C97   C120  A    
O47   Zn15  S    
C10   C74   S    
C67   O44   A    
H15   O55   S    
O40   Zn1   S    
C14   C78   S    
C102  C116  A    
H40   O81   S    
C29   H8    S    
C59   O68   A    
C6    C108  A    
C61   O10   A    
C112  O78   S    
H36   O76   S    
