data_mof_unit_34177.cif
_audit_creation_date              2012-12-10T17:53:25-0500
_audit_creation_method            fapswitch 2.2
_symmetry_space_group_name_H-M    P1
_symmetry_Int_Tables_number       1
_space_group_crystal_system       triclinic
_cell_length_a                    23.30567
_cell_length_b                    10.821065
_cell_length_c                    10.0368
_cell_angle_alpha                 94.061974
_cell_angle_beta                  91.756067
_cell_angle_gamma                 94.485118
_cell_volume                      2515.44531691

loop_
_atom_site_label
_atom_site_type_symbol
_atom_type_description
_atom_site_fract_x
_atom_site_fract_y
_atom_site_fract_z
_atom_type_partial_charge
Br1   Br    Br    0.933592 0.209984 0.662504 -0.337465
Br2   Br    Br    0.945543 0.909349 0.338350 -0.435915
C1    C     C_R   0.505032 0.261147 0.496373 0.974851
C2    C     C_R   0.125290 0.673410 0.455101 0.530948
C3    C     C_R   0.240069 0.555998 0.377371 -0.193332
C4    C     C_R   0.390108 0.508619 0.499082 0.883429
C5    C     C_R   0.298099 0.535395 0.376703 -0.215451
C6    C     C_R   0.329602 0.534582 0.497940 -0.095292
C7    C     C_R   0.303757 0.565735 0.618933 -0.325330
C8    C     C_R   0.246086 0.590869 0.619639 0.577602
C9    C     C_R   0.213709 0.579740 0.498729 0.207221
C10   C     C_R   0.762959 0.464196 0.399264 0.416435
C11   C     C_R   0.702748 0.446937 0.400843 0.316659
C12   C     C_R   0.970908 0.356764 0.592142 0.233584
C13   C     C_R   0.673211 0.516088 0.498983 -0.426850
C14   C     C_R   0.703829 0.608795 0.584596 0.286881
C15   C     C_R   0.763895 0.616630 0.590586 0.412421
C16   C     C_R   0.498999 0.740184 0.505171 0.918216
C17   C     C_R   0.793023 0.545270 0.496979 -0.033420
C18   C     C_R   0.581046 0.148686 0.690847 0.416443
C19   C     C_R   0.590732 0.107575 0.819751 0.340678
C20   C     C_R   0.574355 0.985264 0.844393 0.386461
C21   C     C_R   0.542957 0.908679 0.746588 -0.277973
C22   C     C_R   0.527308 0.951581 0.620832 -0.134444
C23   C     C_R   0.030731 0.357976 0.581698 0.468078
C24   C     C_R   0.541111 0.077759 0.600145 -0.129904
C25   C     C_R   0.514655 0.128966 0.489565 -0.261247
C26   C     C_R   0.486389 0.050986 0.386071 0.379348
C27   C     C_R   0.474620 0.925573 0.402850 0.421255
C28   C     C_R   0.610483 0.503408 0.500732 1.024992
C29   C     C_R   0.497825 0.874607 0.515312 -0.215090
C30   C     C_R   0.414619 0.333377 0.111168 0.411664
C31   C     C_R   0.374790 0.259638 0.019303 0.309754
C32   C     C_R   0.374717 0.278308 0.884257 0.350395
C33   C     C_R   0.419003 0.349885 0.835964 -0.259158
C34   C     C_R   0.062577 0.464749 0.541976 -0.193455
C35   C     C_R   0.459041 0.425447 0.917505 -0.108932
C36   C     C_R   0.458412 0.421241 0.061064 -0.129600
C37   C     C_R   0.538121 0.575900 0.080683 0.415623
C38   C     C_R   0.540745 0.568617 0.937190 0.437661
C39   C     C_R   0.883585 0.652350 0.449938 0.669297
C40   C     C_R   0.881335 0.460434 0.554588 0.579165
C41   C     C_R   0.941391 0.458126 0.549971 -0.163593
C42   C     C_R   0.972896 0.561204 0.499325 -0.098808
C43   C     C_R   0.944068 0.661247 0.450879 -0.092034
C44   C     C_3   0.654464 0.258968 0.334127 -0.279948
C45   C     C_R   0.033508 0.565095 0.498384 -0.071596
C46   C     C_3   0.667801 0.798362 0.587999 -0.198850
C47   C     C_3   0.806028 0.650162 0.797945 -0.185829
C48   C     C_3   0.514085 0.106234 0.182383 -0.239641
C49   C     C_3   0.671197 0.250084 0.677548 -0.299164
C50   C     C_3   0.580126 0.280952 0.953134 -0.306811
C51   C     C_3   0.643335 0.929736 0.989577 -0.192117
C52   C     C_3   0.451264 0.832389 0.190580 -0.128053
C53   C     C_3   0.623050 0.656898 0.191590 -0.189601
C54   C     C_3   0.061481 0.174608 0.500132 -0.131889
C55   C     C_3   0.366815 0.257483 0.300938 -0.033868
C56   C     C_R   0.065195 0.669623 0.453450 -0.022213
C57   C     C_3   0.349335 0.048996 0.012574 -0.196035
C58   C     C_3   0.282691 0.265268 0.799912 -0.182279
C59   C     C_3   0.636782 0.575120 0.892449 -0.168444
C60   C     C_3   0.232284 0.739458 0.783045 -0.299966
C61   C     C_3   0.797798 0.286508 0.304508 -0.158813
C62   C     C_R   0.036607 0.768012 0.407613 -0.195097
C63   C     C_R   0.976868 0.764961 0.404810 0.313949
C64   C     C_R   0.123071 0.474320 0.543904 0.609691
H1    H     H_    0.528722 0.819465 0.778416 0.258123
H2    H     H_    0.630351 0.778661 0.516670 0.125624
H3    H     H_    0.706988 0.829560 0.534569 0.172209
H4    H     H_    0.658261 0.876998 0.658479 0.167644
H5    H     H_    0.839447 0.583184 0.783925 0.179221
H6    H     H_    0.766829 0.603408 0.838665 0.133077
H7    H     H_    0.823324 0.724387 0.873706 0.201198
H8    H     H_    0.496755 0.085515 0.078556 0.178389
H9    H     H_    0.547853 0.040769 0.199047 0.160036
H10   H     H_    0.534786 0.202046 0.191352 0.198231
H11   H     H_    0.685828 0.154867 0.659110 0.151048
H12   H     H_    0.421059 0.339422 0.731174 0.259075
H13   H     H_    0.683596 0.288844 0.780502 0.225344
H14   H     H_    0.695600 0.309700 0.611169 0.162592
H15   H     H_    0.534639 0.244741 0.962267 0.137393
H16   H     H_    0.581829 0.346633 0.873979 0.210512
H17   H     H_    0.595078 0.331088 0.049581 0.191573
H18   H     H_    0.670943 0.015852 0.975857 0.183486
H19   H     H_    0.657284 0.853142 0.922038 0.195062
H20   H     H_    0.651066 0.908572 0.094587 0.164273
H21   H     H_    0.436017 0.735827 0.154288 0.166766
H22   H     H_    0.498774 0.842147 0.182025 0.200365
H23   H     H_    0.060758 0.848511 0.373008 0.200650
H24   H     H_    0.431317 0.894913 0.123689 0.150577
H25   H     H_    0.631716 0.557589 0.190084 0.196961
H26   H     H_    0.632812 0.699543 0.294016 0.157496
H27   H     H_    0.653473 0.705058 0.126758 0.141931
H28   H     H_    0.082173 0.090725 0.527976 0.198719
H29   H     H_    0.088328 0.219148 0.424236 0.150225
H30   H     H_    0.018078 0.143386 0.455394 0.184148
H31   H     H_    0.363407 0.154813 0.283956 0.220714
H32   H     H_    0.327322 0.299262 0.267252 0.133887
H33   H     H_    0.370762 0.273697 0.411080 0.113769
H34   H     H_    0.214983 0.548727 0.284122 0.170200
H35   H     H_    0.395795 0.043696 0.991526 0.133906
H36   H     H_    0.322799 0.017195 0.921080 0.200658
H37   H     H_    0.338242 0.983041 0.089277 0.177057
H38   H     H_    0.253694 0.220624 0.717623 0.208200
H39   H     H_    0.287636 0.366506 0.785918 0.163225
H40   H     H_    0.261544 0.248904 0.895548 0.199591
H41   H     H_    0.644555 0.514510 0.803212 0.215669
H42   H     H_    0.639108 0.515528 0.976957 0.070351
H43   H     H_    0.673470 0.646532 0.906374 0.179790
H44   H     H_    0.279207 0.760981 0.805685 0.146910
H45   H     H_    0.317757 0.516986 0.281744 0.170021
H46   H     H_    0.209565 0.758906 0.876820 0.209721
H47   H     H_    0.216696 0.801804 0.708442 0.188557
H48   H     H_    0.841505 0.264684 0.274460 0.195513
H49   H     H_    0.766378 0.231983 0.233675 0.183633
H50   H     H_    0.792187 0.255331 0.407161 0.162072
H51   H     H_    0.327877 0.569636 0.713339 0.174668
H52   H     H_    0.615484 0.264258 0.393482 0.192686
H53   H     H_    0.688101 0.214481 0.390242 0.135483
H54   H     H_    0.642595 0.197304 0.242880 0.191934
N1    N     N_R   0.854409 0.553788 0.501350 -0.305793
N2    N     N_R   0.152554 0.576886 0.500300 -0.342083
N3    N     N_R   0.499460 0.498800 0.142780 -0.148711
N4    N     N_R   0.499440 0.498720 0.857170 -0.155022
O1    O     O_R   0.500000 0.316780 0.614690 -0.633554
O2    O     O_R   0.583850 0.500050 0.614640 -0.547013
O3    O     O_R   0.583840 0.500030 0.385310 -0.623080
O4    O     O_2   0.853415 0.739797 0.397888 -0.487115
O5    O     O_3   0.673639 0.377284 0.294855 -0.581140
O6    O     O_3   0.675474 0.694118 0.661490 -0.574846
O7    O     O_3   0.793996 0.704863 0.677884 -0.557991
O8    O     O_3   0.467592 0.096706 0.269248 -0.587989
O9    O     O_3   0.611287 0.254730 0.650820 -0.628682
O10   O     O_3   0.616277 0.185653 0.923376 -0.614522
O11   O     O_3   0.583941 0.942396 0.969086 -0.597210
O12   O     O_2   0.849215 0.371506 0.612258 -0.552899
O13   O     O_3   0.432722 0.854996 0.322150 -0.603013
O14   O     O_3   0.565912 0.677334 0.154848 -0.596633
O15   O     O_3   0.057998 0.255022 0.616263 -0.537077
O16   O     O_3   0.417266 0.310867 0.244977 -0.527587
O17   O     O_3   0.335349 0.168680 0.060538 -0.632435
O18   O     O_3   0.335870 0.211589 0.794035 -0.618473
O19   O     O_3   0.584909 0.634548 0.877530 -0.559767
O20   O     O_3   0.219623 0.613352 0.739240 -0.600363
O21   O     O_3   0.792879 0.414688 0.293663 -0.576444
O22   O     O_2   0.152724 0.382642 0.589441 -0.515801
O23   O     O_2   0.156397 0.772708 0.412762 -0.568342
O24   O     O_R   0.500000 0.316750 0.385360 -0.544045
O25   O     O_R   0.416160 0.499970 0.614690 -0.654258
O26   O     O_R   0.416150 0.499950 0.385360 -0.568754
O27   O     O_R   0.500000 0.683250 0.614640 -0.622719
O28   O     O_R   0.500000 0.683220 0.385310 -0.564826
Zn1   Zn    Zn3+2 0.500000 0.500020 0.653130 0.986529
Zn2   Zn    Zn3+2 0.500000 0.499980 0.346870 1.016301

loop_
_geom_bond_atom_site_label_1
_geom_bond_atom_site_label_2
_ccdc_geom_bond_type
C54   H29   S    
C28   O2    A    
C15   O7    S    
C7    H51   S    
C51   O11   S    
C46   H3    S    
C53   H27   S    
Br2   C63   S    
C59   H43   S    
C44   O5    S    
C5    C6    A    
C54   H28   S    
C10   C11   A    
C47   O7    S    
C24   C25   A    
C35   C36   A    
C53   O14   S    
C51   H18   S    
C19   C20   A    
C26   C27   A    
C23   O15   S    
C22   C24   A    
C30   O16   S    
C48   H8    S    
C52   H21   S    
C34   C64   A    
C52   O13   S    
C39   N1    A    
C13   C14   A    
C55   H33   S    
C37   N3    A    
C44   H52   S    
C34   C45   A    
C40   O12   S    
C32   C33   A    
C21   H1    S    
C59   H42   S    
O25   Zn1   S    
C49   H14   S    
C53   H25   S    
C58   O18   S    
C4    O25   A    
C59   O19   S    
C32   O18   S    
C6    C7    A    
C47   H6    S    
C21   C22   A    
C64   N2    A    
C51   H20   S    
C30   C36   A    
C18   O9    S    
C14   O6    S    
C7    C8    A    
C36   N3    A    
C42   C45   A    
C61   H49   S    
C37   O14   S    
O26   Zn2   S    
C1    O24   A    
N4    Zn1   S    
C61   H48   S    
C39   O4    S    
C46   O6    S    
O24   Zn2   S    
C62   H23   S    
C16   O28   A    
O3    Zn2   S    
O1    Zn1   S    
C56   C62   A    
C38   N4    A    
C2    N2    A    
C57   H35   S    
C60   H47   S    
C60   O20   S    
C37   C38   A    
C3    C5    A    
C54   O15   S    
C14   C15   A    
C4    C6    S    
C31   O17   S    
C2    O23   S    
C55   O16   S    
C26   O8    S    
C10   O21   S    
C50   H17   S    
C41   C42   A    
C49   H11   S    
C53   H26   S    
C48   H10   S    
C35   N4    A    
C60   H44   S    
C3    H34   S    
C55   H31   S    
C31   C32   A    
C44   H54   S    
C8    O20   S    
C46   H2    S    
C50   H16   S    
C48   O8    S    
C52   H24   S    
C61   H50   S    
O28   Zn2   S    
C11   C13   A    
C43   C63   A    
C47   H7    S    
C9    N2    S    
C40   C41   A    
C16   O27   A    
C19   O10   S    
C58   H40   S    
C42   C43   A    
C13   C28   S    
C54   H30   S    
C28   O3    A    
C17   N1    S    
C39   C43   A    
C33   C35   A    
C57   H36   S    
C46   H4    S    
C1    O1    A    
C3    C9    A    
Br1   C12   S    
C27   O13   S    
C33   H12   S    
C20   O11   S    
C57   H37   S    
C62   C63   A    
C1    C25   S    
C22   C29   A    
C27   C29   A    
C48   H9    S    
C30   C31   A    
C45   C56   A    
C52   H22   S    
C49   O9    S    
C18   C24   A    
C55   H32   S    
C10   C17   A    
C15   C17   A    
C5    H45   S    
C44   H53   S    
O27   Zn1   S    
C12   C23   A    
C50   H15   S    
C59   H41   S    
C49   H13   S    
C64   O22   S    
C8    C9    A    
C23   C34   A    
C4    O26   A    
O2    Zn1   S    
C50   O10   S    
C60   H46   S    
C18   C19   A    
C57   O17   S    
C47   H5    S    
C38   O19   S    
C2    C56   A    
C25   C26   A    
C11   O5    S    
C20   C21   A    
C51   H19   S    
C16   C29   S    
C58   H38   S    
C61   O21   S    
C58   H39   S    
C40   N1    A    
C12   C41   A    
N3    Zn2   S    
