data_mof_unit_39560.cif
_audit_creation_date              2012-12-10T17:48:47-0500
_audit_creation_method            fapswitch 2.2
_symmetry_space_group_name_H-M    P1
_symmetry_Int_Tables_number       1
_space_group_crystal_system       triclinic
_cell_length_a                    15.755034
_cell_length_b                    10.761118
_cell_length_c                    9.982825
_cell_angle_alpha                 89.620689
_cell_angle_beta                  87.913105
_cell_angle_gamma                 94.54551
_cell_volume                      1685.98668741

loop_
_atom_site_label
_atom_site_type_symbol
_atom_type_description
_atom_site_fract_x
_atom_site_fract_y
_atom_site_fract_z
_atom_type_partial_charge
C1    C     C_R   0.507275 0.261849 0.500972 0.881639
C2    C     C_R   0.523027 0.050361 0.871017 0.428416
C3    C     C_R   0.468133 0.940152 0.869359 0.404499
C4    C     C_R   0.338790 0.504128 0.502302 0.903707
C5    C     C_R   0.445990 0.885588 0.746102 -0.132647
C6    C     C_R   0.481908 0.938294 0.623760 -0.015559
C7    C     C_R   0.513103 0.062655 0.626054 0.049233
C8    C     C_R   0.515915 0.130299 0.504357 -0.073485
C9    C     C_R   0.517402 0.069133 0.382945 -0.266113
C10   C     C_R   0.517798 0.942577 0.381358 -0.070944
C11   C     C_R   0.493785 0.873835 0.500405 -0.136166
C12   C     C_3   0.942424 0.445829 0.636523 -0.271775
C13   C     C_R   0.378640 0.321472 0.133889 0.026382
C14   C     C_R   0.326926 0.242007 0.054154 -0.326332
C15   C     C_R   0.332315 0.249065 0.917395 -0.004646
C16   C     C_R   0.496720 0.739844 0.500019 0.857494
C17   C     C_R   0.388562 0.337297 0.856742 -0.126591
C18   C     C_R   0.443538 0.418605 0.928802 0.084382
C19   C     C_R   0.441209 0.416249 0.073938 0.032542
C20   C     C_R   0.561609 0.566564 0.068156 0.504719
C21   C     C_R   0.555467 0.576148 0.924709 -0.119111
C22   C     C_R   0.661324 0.499825 0.497943 0.901270
C23   C     C_3   0.916564 0.497504 0.498128 0.109846
C24   C     C_3   0.042524 0.461591 0.647326 0.308356
C25   C     C_3   0.048802 0.412355 0.385175 0.452626
C26   C     C_3   0.949450 0.411338 0.387383 -0.466299
C27   C     C_1   0.749907 0.497558 0.494082 -0.199082
C28   C     C_3   0.082745 0.503538 0.502093 -0.018095
C29   C     C_3   0.045697 0.652893 0.785483 0.107558
C30   C     C_3   0.023996 0.659406 0.935088 -0.777734
C31   C     C_1   0.891430 0.486730 0.752908 0.233830
C32   C     C_3   0.623099 0.182788 0.982748 0.103149
C33   C     C_3   0.660566 0.207897 0.119109 -0.852629
C34   C     C_3   0.956508 0.631625 0.468295 -0.477081
C35   C     C_3   0.379718 0.936297 0.056311 0.108203
C36   C     C_3   0.336634 0.847786 0.161932 -0.818814
C37   C     C_1   0.375080 0.791396 0.747278 0.272733
C38   C     C_1   0.551505 0.892222 0.258712 0.300752
C39   C     C_3   0.709454 0.601353 0.072494 0.093717
C40   C     C_3   0.775211 0.582396 0.176453 -0.802374
C41   C     C_1   0.068969 0.337210 0.684162 0.206909
C42   C     C_1   0.356911 0.287363 0.270597 0.255817
C43   C     C_1   0.281340 0.162545 0.837838 0.143529
C44   C     C_1   0.606937 0.670467 0.848791 0.292968
C45   C     C_3   0.055256 0.637131 0.469180 0.394456
C46   C     C_3   0.152869 0.413121 0.199956 0.150959
C47   C     C_3   0.188921 0.497834 0.085892 -0.757718
C48   C     C_1   0.070105 0.280535 0.404278 0.011930
C49   C     C_3   0.101613 0.815636 0.343655 0.102956
C50   C     C_3   0.102374 0.865444 0.200838 -0.832282
C51   C     C_1   0.825057 0.496571 0.493174 -0.024446
C52   C     C_1   0.174756 0.508702 0.505822 0.008480
C53   C     C_1   0.250052 0.508243 0.506697 -0.154396
C54   C     C_R   0.541070 0.113949 0.747712 -0.384115
H1    H     H_    0.921351 0.344337 0.634224 0.118324
H2    H     H_    0.931224 0.698957 0.540226 0.132417
H3    H     H_    0.989955 0.675302 0.729990 0.128799
H4    H     H_    0.097058 0.727665 0.762892 0.155410
H5    H     H_    0.083115 0.679048 0.990165 0.253657
H6    H     H_    0.981875 0.735729 0.954903 0.202273
H7    H     H_    0.991610 0.570187 0.973296 0.282673
H8    H     H_    0.604300 0.273540 0.944331 0.140251
H9    H     H_    0.673920 0.146993 0.916369 0.150231
H10   H     H_    0.670990 0.118891 0.170533 0.261951
H11   H     H_    0.722667 0.263900 0.106098 0.211677
H12   H     H_    0.936511 0.661960 0.368066 0.217411
H13   H     H_    0.617430 0.262434 0.181435 0.259388
H14   H     H_    0.329609 0.963293 0.988403 0.131074
H15   H     H_    0.408050 0.020070 0.107692 0.191468
H16   H     H_    0.291185 0.897916 0.224811 0.208761
H17   H     H_    0.301985 0.768043 0.112357 0.250995
H18   H     H_    0.384177 0.811034 0.227634 0.271912
H19   H     H_    0.733015 0.685014 0.012377 0.168887
H20   H     H_    0.706624 0.517461 0.007113 0.126851
H21   H     H_    0.762101 0.488695 0.222934 0.249138
H22   H     H_    0.839896 0.587220 0.127687 0.213218
H23   H     H_    0.522995 0.120006 0.288837 0.199573
H24   H     H_    0.773759 0.655811 0.253983 0.261524
H25   H     H_    0.137630 0.318565 0.158681 0.144559
H26   H     H_    0.202658 0.407927 0.274487 0.141701
H27   H     H_    0.194366 0.596015 0.119565 0.265423
H28   H     H_    0.253041 0.472387 0.052823 0.216077
H29   H     H_    0.146877 0.487786 0.999357 0.282773
H30   H     H_    0.163308 0.845635 0.388784 0.151242
H31   H     H_    0.049374 0.858519 0.400762 0.133326
H32   H     H_    0.038905 0.843918 0.158108 0.252978
H33   H     H_    0.116875 0.968153 0.200224 0.220492
H34   H     H_    0.580538 0.200348 0.744198 0.176231
H35   H     H_    0.151505 0.822770 0.138090 0.251098
H36   H     H_    0.280845 0.171404 0.098904 0.143580
H37   H     H_    0.388189 0.338616 0.751146 0.218719
H38   H     H_    0.917769 0.315493 0.401886 0.149062
H39   H     H_    0.928149 0.442841 0.288342 0.219718
H40   H     H_    0.078936 0.700267 0.548425 0.034906
N1    N     N_R   0.499210 0.498800 0.142780 -0.151238
N2    N     N_1   0.086598 0.178294 0.417273 -0.212197
N3    N     N_R   0.499180 0.498720 0.857170 -0.160473
N4    N     N_1   0.849998 0.517626 0.842813 -0.259327
N5    N     N_1   0.317650 0.717303 0.749654 -0.194062
N6    N     N_1   0.579920 0.855512 0.159701 -0.085347
N7    N     N_1   0.089238 0.240386 0.715133 -0.188749
N8    N     N_1   0.333998 0.252032 0.376828 -0.232950
N9    N     N_1   0.241066 0.092430 0.773926 -0.197694
N10   N     N_1   0.648187 0.746522 0.788050 -0.223738
O1    O     O_R   0.500000 0.316780 0.614690 -0.657095
O2    O     O_3   0.551126 0.095023 0.994717 -0.615122
O3    O     O_3   0.443816 0.875626 0.986748 -0.597615
O4    O     O_3   0.629865 0.622878 0.135980 -0.583775
O5    O     O_3   0.077809 0.460542 0.255300 -0.558941
O6    O     O_3   0.090670 0.683481 0.343712 -0.547526
O7    O     O_R   0.499990 0.316750 0.385360 -0.635027
O8    O     O_R   0.377150 0.500020 0.614720 -0.622903
O9    O     O_R   0.377140 0.499990 0.385380 -0.623896
O10   O     O_R   0.500010 0.683250 0.614640 -0.604639
O11   O     O_R   0.500000 0.683220 0.385310 -0.598838
O12   O     O_R   0.622860 0.500010 0.614620 -0.622417
O13   O     O_R   0.622850 0.499980 0.385280 -0.570355
O14   O     O_3   0.077312 0.536337 0.754651 -0.611477
Zn1   Zn    Zn3+2 0.500010 0.500020 0.653130 0.948787
Zn2   Zn    Zn3+2 0.499990 0.499980 0.346870 0.992247

loop_
_geom_bond_atom_site_label_1
_geom_bond_atom_site_label_2
_ccdc_geom_bond_type
C22   O13   A    
C54   H34   S    
C34   H2    S    
C5    C37   S    
C4    C53   S    
C1    C8    S    
C35   C36   S    
C17   H37   S    
C34   H12   S    
C44   N10   T    
C33   H11   S    
C7    C8    A    
C25   C28   S    
C12   C23   S    
C49   H30   S    
C46   H25   S    
C39   H20   S    
C26   H38   S    
O9    Zn2   S    
C18   C19   A    
C31   N4    T    
C23   C26   S    
C14   H36   S    
C36   H16   S    
C8    C9    A    
C30   H6    S    
C18   N3    A    
C47   H29   S    
C9    C10   A    
O10   Zn1   S    
C36   H17   S    
C25   O5    S    
C26   H39   S    
C22   O12   A    
C4    O8    A    
C32   O2    S    
C13   C14   A    
C24   C41   S    
C45   H40   S    
C42   N8    T    
C13   C42   S    
C27   C51   T    
C39   O4    S    
C28   C45   S    
C13   C19   A    
C49   H31   S    
C4    O9    A    
C38   N6    T    
C2    C54   A    
O13   Zn2   S    
C6    C11   A    
C45   O6    S    
C47   H27   S    
C3    O3    S    
C25   C26   S    
C2    O2    S    
C40   H22   S    
O7    Zn2   S    
N3    Zn1   S    
C29   C30   S    
C21   C44   S    
C21   N3    A    
C11   C16   S    
C50   H35   S    
C23   C51   S    
C23   C34   S    
C30   H5    S    
C17   C18   A    
C34   C45   S    
C9    H23   S    
C29   H4    S    
C25   C48   S    
C50   H33   S    
C20   N1    A    
C29   H3    S    
C49   C50   S    
C22   C27   S    
C12   C31   S    
C40   H24   S    
C46   O5    S    
C16   O11   A    
C37   N5    T    
C19   N1    A    
C52   C53   T    
C33   H13   S    
C15   C17   A    
C46   C47   S    
C48   N2    T    
C47   H28   S    
C24   C28   S    
C32   H9    S    
C3    C5    A    
C16   O10   A    
O8    Zn1   S    
O12   Zn1   S    
C6    C7    A    
N1    Zn2   S    
C29   O14   S    
C12   C24   S    
C24   O14   S    
C40   H21   S    
C10   C38   S    
C32   C33   S    
C2    C3    A    
C15   C43   S    
C1    O7    A    
C46   H26   S    
C28   C52   S    
C5    C6    A    
C35   H14   S    
C33   H10   S    
C41   N7    T    
C39   H19   S    
C43   N9    T    
C12   H1    S    
C35   O3    S    
C10   C11   A    
C50   H32   S    
C32   H8    S    
C39   C40   S    
C20   C21   A    
C35   H15   S    
O11   Zn2   S    
C30   H7    S    
C14   C15   A    
O1    Zn1   S    
C7    C54   A    
C36   H18   S    
C1    O1    A    
C49   O6    S    
C20   O4    S    
