data_mof_unit_60244.cif
_audit_creation_date              2012-10-26T17:26:18-0400
_audit_creation_method            fapswitch 2.2
_symmetry_space_group_name_H-M    P1
_symmetry_Int_Tables_number       1
_space_group_crystal_system       triclinic
_cell_length_a                    30.357086
_cell_length_b                    30.357086
_cell_length_c                    18.368951
_cell_angle_alpha                 90.000049
_cell_angle_beta                  89.999738
_cell_angle_gamma                 90.00003
_cell_volume                      16927.9558465

loop_
_atom_site_label
_atom_site_type_symbol
_atom_type_description
_atom_site_fract_x
_atom_site_fract_y
_atom_site_fract_z
_atom_type_partial_charge
C1    C     C_R   0.225991 1.000000 0.499999 0.008724
C2    C     C_R   0.969619 0.203286 0.456330 0.255557
C3    C     C_R   0.014082 0.656656 0.562814 0.219595
C4    C     C_R   0.656657 0.014094 0.437193 0.219594
C5    C     C_R   0.014076 0.343344 0.437182 0.219594
C6    C     C_R   0.343344 0.985918 0.437185 0.219594
C7    C     C_R   0.985918 0.656656 0.437186 0.219595
C8    C     C_R   0.843344 0.514083 0.062814 0.219595
C9    C     C_R   0.485912 0.843344 0.062811 0.219595
C10   C     C_R   0.156656 0.485910 0.062809 0.219596
C11   C     C_R   0.514085 0.156656 0.062812 0.219594
C12   C     C_R   0.156657 0.514090 0.937191 0.219595
C13   C     C_R   0.796713 0.969621 0.456326 0.255559
C14   C     C_R   0.514088 0.843344 0.937189 0.219595
C15   C     C_R   0.843344 0.485917 0.937186 0.219594
C16   C     C_R   0.485915 0.156656 0.937187 0.219594
C17   C     C_R   0.366857 1.000000 0.500000 0.007674
C18   C     C_R   1.000000 0.366857 0.500000 0.007676
C19   C     C_R   0.633143 1.000000 0.500000 0.007670
C20   C     C_R   0.000000 0.633143 0.500000 0.007676
C21   C     C_R   0.866857 0.500000 1.000000 0.007675
C22   C     C_R   0.500000 0.866857 1.000000 0.007673
C23   C     C_R   0.133143 0.500000 0.000000 0.007673
C24   C     C_R   0.030381 0.796713 0.456330 0.255559
C25   C     C_R   0.500000 0.133143 1.000000 0.007673
C26   C     C_R   0.274445 1.000000 0.500000 0.018759
C27   C     C_R   1.000000 0.274445 0.500000 0.018755
C28   C     C_R   0.725555 0.000000 0.500000 0.018767
C29   C     C_R   1.000000 0.725555 0.500000 0.018759
C30   C     C_R   0.774445 0.500000 1.000000 0.018760
C31   C     C_R   0.500000 0.774445 1.000000 0.018763
C32   C     C_R   0.225555 0.500000 0.000000 0.018765
C33   C     C_R   0.500000 0.225555 1.000000 0.018761
C34   C     C_R   0.796713 0.030379 0.543675 0.255559
C35   C     C_R   0.030381 0.203287 0.543670 0.255556
C36   C     C_R   0.203286 0.969619 0.543671 0.255558
C37   C     C_R   0.969619 0.796714 0.543670 0.255558
C38   C     C_R   0.703287 0.530381 0.956329 0.255558
C39   C     C_R   0.469620 0.703286 0.956328 0.255558
C40   C     C_R   0.296714 0.469620 0.956328 0.255559
C41   C     C_R   1.000000 0.225991 0.500000 0.008725
C42   C     C_R   0.530380 0.296713 0.956327 0.255558
C43   C     C_R   0.296713 0.530380 0.043673 0.255559
C44   C     C_R   0.530380 0.703287 0.043672 0.255559
C45   C     C_R   0.703286 0.469619 0.043670 0.255558
C46   C     C_R   0.469620 0.296714 0.043673 0.255558
C47   C     C_R   0.156861 0.031605 0.458013 0.204176
C48   C     C_R   0.968394 0.156861 0.458014 0.204176
C49   C     C_R   0.843139 0.968396 0.458010 0.204173
C50   C     C_R   0.031606 0.843139 0.458014 0.204175
C51   C     C_R   0.843139 0.031604 0.541991 0.204174
C52   C     C_R   0.774009 1.000000 0.500001 0.008721
C53   C     C_R   0.031606 0.156861 0.541986 0.204176
C54   C     C_R   0.156861 0.968394 0.541986 0.204176
C55   C     C_R   0.968394 0.843139 0.541986 0.204174
C56   C     C_R   0.656861 0.531606 0.958013 0.204174
C57   C     C_R   0.468395 0.656861 0.958012 0.204174
C58   C     C_R   0.343139 0.468395 0.958012 0.204173
C59   C     C_R   0.531605 0.343139 0.958012 0.204175
C60   C     C_R   0.343139 0.531605 0.041989 0.204173
C61   C     C_R   0.531605 0.656861 0.041988 0.204174
C62   C     C_R   0.656861 0.468394 0.041986 0.204175
C63   C     C_R   1.000000 0.774010 0.500000 0.008724
C64   C     C_R   0.468395 0.343139 0.041988 0.204174
C65   C     C_R   0.133510 1.000000 0.499999 -0.048482
C66   C     C_R   1.000000 0.133510 0.500000 -0.048482
C67   C     C_R   0.866490 1.000000 0.500000 -0.048484
C68   C     C_R   0.000000 0.866490 0.500000 -0.048482
C69   C     C_R   0.633510 0.500000 1.000000 -0.048482
C70   C     C_R   0.500000 0.633510 0.000000 -0.048483
C71   C     C_R   0.366490 0.500000 0.000000 -0.048483
C72   C     C_R   0.500000 0.366490 1.000000 -0.048483
C73   C     C_R   0.415070 0.000000 0.500000 0.504422
C74   C     C_R   0.725990 0.500000 0.999999 0.008724
C75   C     C_R   0.000000 0.415070 0.500000 0.504422
C76   C     C_R   0.584930 1.000000 0.500000 0.504421
C77   C     C_R   0.000000 0.584930 0.500000 0.504422
C78   C     C_R   0.915070 0.500000 1.000000 0.504421
C79   C     C_R   0.500000 0.915070 1.000000 0.504421
C80   C     C_R   0.084930 0.500000 1.000000 0.504420
C81   C     C_R   0.500000 0.084930 0.000000 0.504421
C82   C     C_R   0.500000 1.000000 0.360187 0.535401
C83   C     C_R   0.000000 0.500000 0.360187 0.535400
C84   C     C_R   0.500000 1.000000 0.639813 0.535402
C85   C     C_R   0.500000 0.725990 1.000000 0.008723
C86   C     C_R   1.000000 0.500000 0.639813 0.535400
C87   C     C_R   1.000000 0.500000 0.860186 0.535401
C88   C     C_R   0.500000 0.000000 0.860186 0.535401
C89   C     C_R   0.000000 0.500000 0.139813 0.535401
C90   C     C_R   0.500000 0.000000 0.139813 0.535401
C91   C     C_R   0.000000 0.914928 0.500000 0.500727
C92   C     C_R   0.085072 1.000000 0.500000 0.500727
C93   C     C_R   1.000000 0.085072 0.500000 0.500728
C94   C     C_R   0.914928 0.000000 0.500000 0.500729
C95   C     C_R   0.500000 0.414928 1.000000 0.500728
C96   C     C_R   0.274010 0.500000 0.000000 0.008722
C97   C     C_R   0.585072 0.500000 1.000000 0.500727
C98   C     C_R   0.500000 0.585072 0.000000 0.500728
C99   C     C_R   0.414928 0.500000 0.000000 0.500729
C100  C     C_1   0.500000 1.000000 0.282649 -0.007047
C101  C     C_1   0.000000 0.500000 0.282649 -0.007044
C102  C     C_1   0.500000 0.000000 0.717351 -0.007047
C103  C     C_1   1.000000 0.500000 0.717351 -0.007045
C104  C     C_1   1.000000 0.500000 0.782649 -0.007044
C105  C     C_1   0.500000 1.000000 0.782649 -0.007047
C106  C     C_1   0.000000 0.500000 0.217351 -0.007045
C107  C     C_R   0.500000 0.274009 1.000000 0.008723
C108  C     C_1   0.500000 1.000000 0.217351 -0.007047
C109  C     C_R   0.297404 0.014004 0.561656 0.002640
C110  C     C_R   0.986002 0.297404 0.561660 0.002641
C111  C     C_R   0.702596 0.985984 0.561649 0.002638
C112  C     C_R   0.014003 0.702596 0.561655 0.002641
C113  C     C_R   0.702597 0.014016 0.438352 0.002638
C114  C     C_R   0.013997 0.297404 0.438340 0.002641
C115  C     C_R   0.297404 0.985996 0.438344 0.002641
C116  C     C_R   0.985996 0.702596 0.438344 0.002640
C117  C     C_R   0.797404 0.514005 0.061655 0.002639
C118  C     C_R   0.203287 0.030380 0.456328 0.255558
C119  C     C_R   0.485990 0.797404 0.061652 0.002639
C120  C     C_R   0.202596 0.485988 0.061650 0.002638
C121  C     C_R   0.514007 0.202596 0.061653 0.002640
C122  C     C_R   0.202597 0.514012 0.938350 0.002639
C123  C     C_R   0.514010 0.797404 0.938348 0.002639
C124  C     C_R   0.797404 0.485995 0.938344 0.002641
C125  C     C_R   0.485993 0.202596 0.938346 0.002639
C126  C     C_R   0.343344 0.014082 0.562814 0.219594
C127  C     C_R   0.985924 0.343344 0.562818 0.219593
C128  C     C_R   0.656656 0.985906 0.562808 0.219594
Cu1   Cu    Cu3+1 0.500000 0.044060 0.500000 1.053905
Cu2   Cu    Cu3+1 0.000000 1.000000 0.572510 1.059823
Cu3   Cu    Cu3+1 0.500000 0.500000 0.927490 1.059823
Cu4   Cu    Cu3+1 0.500000 0.500000 0.072510 1.059822
Cu5   Cu    Cu3+1 0.955940 0.500000 0.500000 1.053905
Cu6   Cu    Cu3+1 0.500000 0.955940 0.500000 1.053904
Cu7   Cu    Cu3+1 0.044060 0.500000 0.500000 1.053898
Cu8   Cu    Cu3+1 0.000000 0.544060 0.000000 1.053905
Cu9   Cu    Cu3+1 0.455940 0.000000 0.000000 1.053907
Cu10  Cu    Cu3+1 0.000000 0.455940 0.000000 1.053910
Cu11  Cu    Cu3+1 0.544060 0.000000 0.000000 1.053900
Cu12  Cu    Cu3+1 0.000000 0.000000 0.427490 1.059822
H1    H     H_    0.279418 0.024796 0.609412 0.178241
H2    H     H_    0.475193 0.779418 0.109405 0.178235
H3    H     H_    0.220582 0.475189 0.109403 0.178233
H4    H     H_    0.524802 0.220582 0.109409 0.178239
H5    H     H_    0.220583 0.524810 0.890598 0.178233
H6    H     H_    0.524807 0.779418 0.890594 0.178236
H7    H     H_    0.779418 0.475202 0.890588 0.178240
H8    H     H_    0.475198 0.220582 0.890591 0.178238
H9    H     H_    0.395510 0.022562 0.624144 0.338223
H10   H     H_    0.977447 0.395512 0.624149 0.338219
H11   H     H_    0.604490 0.977421 0.624137 0.338226
H12   H     H_    0.975214 0.279418 0.609419 0.178246
H13   H     H_    0.022563 0.604489 0.624144 0.338224
H14   H     H_    0.604491 0.022579 0.375863 0.338227
H15   H     H_    0.022555 0.395511 0.375852 0.338221
H16   H     H_    0.395511 0.977438 0.375855 0.338222
H17   H     H_    0.977439 0.604489 0.375855 0.338222
H18   H     H_    0.895510 0.522564 0.124144 0.338223
H19   H     H_    0.477429 0.895510 0.124141 0.338225
H20   H     H_    0.104489 0.477428 0.124140 0.338224
H21   H     H_    0.522567 0.104489 0.124142 0.338223
H22   H     H_    0.104491 0.522574 0.875861 0.338225
H23   H     H_    0.720582 0.975183 0.609400 0.178231
H24   H     H_    0.522572 0.895510 0.875860 0.338225
H25   H     H_    0.895511 0.477436 0.875856 0.338222
H26   H     H_    0.477433 0.104489 0.875857 0.338223
H27   H     H_    0.208065 0.078030 0.384737 0.393888
H28   H     H_    0.921968 0.208064 0.384740 0.393888
H29   H     H_    0.791935 0.921974 0.384728 0.393887
H30   H     H_    0.078032 0.791935 0.384740 0.393888
H31   H     H_    0.791935 0.078025 0.615273 0.393887
H32   H     H_    0.078032 0.208065 0.615260 0.393888
H33   H     H_    0.208065 0.921969 0.615262 0.393888
H34   H     H_    0.024795 0.720582 0.609412 0.178240
H35   H     H_    0.921967 0.791935 0.615259 0.393888
H36   H     H_    0.708065 0.578032 0.884740 0.393889
H37   H     H_    0.421971 0.708065 0.884734 0.393887
H38   H     H_    0.291935 0.421971 0.884734 0.393887
H39   H     H_    0.578028 0.291935 0.884733 0.393888
H40   H     H_    0.291935 0.578028 0.115267 0.393887
H41   H     H_    0.578028 0.708065 0.115266 0.393888
H42   H     H_    0.708065 0.421969 0.115261 0.393888
H43   H     H_    0.421971 0.291935 0.115266 0.393888
H44   H     H_    0.106532 0.070469 0.441176 0.337084
H45   H     H_    0.720583 0.024817 0.390601 0.178231
H46   H     H_    0.929531 0.106531 0.441179 0.337083
H47   H     H_    0.893468 0.929532 0.441172 0.337085
H48   H     H_    0.070469 0.893469 0.441177 0.337086
H49   H     H_    0.893468 0.070468 0.558829 0.337085
H50   H     H_    0.070469 0.106532 0.558821 0.337083
H51   H     H_    0.106531 0.929531 0.558823 0.337085
H52   H     H_    0.929531 0.893469 0.558821 0.337084
H53   H     H_    0.606532 0.570469 0.941177 0.337085
H54   H     H_    0.429532 0.606532 0.941176 0.337085
H55   H     H_    0.393468 0.429531 0.941175 0.337084
H56   H     H_    0.024785 0.279418 0.390581 0.178246
H57   H     H_    0.570468 0.393468 0.941174 0.337085
H58   H     H_    0.393468 0.570468 0.058826 0.337085
H59   H     H_    0.570468 0.606532 0.058825 0.337085
H60   H     H_    0.606531 0.429531 0.058822 0.337085
H61   H     H_    0.429531 0.393468 0.058825 0.337084
H62   H     H_    0.279418 0.975204 0.390587 0.178241
H63   H     H_    0.975204 0.720582 0.390588 0.178239
H64   H     H_    0.779418 0.524797 0.109411 0.178239
O1    O     O_R   0.435730 0.037210 0.500000 -0.497161
O2    O     O_R   0.462790 0.935730 0.000000 -0.497158
O3    O     O_R   0.064270 0.462790 0.000000 -0.497157
O4    O     O_R   0.537210 0.064270 0.000000 -0.497161
O5    O     O_R   0.064270 0.537210 0.000000 -0.497160
O6    O     O_R   0.537210 0.935730 0.000000 -0.497161
O7    O     O_R   0.935730 0.462790 0.000000 -0.497160
O8    O     O_R   0.462790 0.064270 0.000000 -0.497160
O9    O     O_R   0.500010 0.037210 0.394200 -0.496609
O10   O     O_R   0.962790 0.500010 0.394200 -0.496608
O11   O     O_R   0.499990 0.962790 0.394200 -0.496609
O12   O     O_R   0.962790 0.435730 0.500000 -0.497159
O13   O     O_R   0.037210 0.499990 0.394200 -0.496610
O14   O     O_R   0.499990 0.037210 0.605800 -0.496609
O15   O     O_R   0.037210 0.500010 0.605800 -0.496610
O16   O     O_R   0.500010 0.962790 0.605800 -0.496609
O17   O     O_R   0.962790 0.499990 0.605800 -0.496607
O18   O     O_R   0.000010 0.537210 0.894200 -0.496609
O19   O     O_R   0.462790 0.000010 0.894200 -0.496608
O20   O     O_R   0.999990 0.462790 0.894200 -0.496608
O21   O     O_R   0.537210 0.999990 0.894200 -0.496611
O22   O     O_R   0.999990 0.537210 0.105800 -0.496609
O23   O     O_R   0.564270 0.962790 0.500000 -0.497159
O24   O     O_R   0.537210 0.000010 0.105800 -0.496610
O25   O     O_R   0.000010 0.462790 0.105800 -0.496607
O26   O     O_R   0.462790 0.999990 0.105800 -0.496608
O27   O     O_R   0.999990 0.935750 0.438770 -0.491426
O28   O     O_R   0.064250 0.999990 0.438770 -0.491423
O29   O     O_R   0.000010 0.064250 0.438770 -0.491422
O30   O     O_R   0.935750 0.000010 0.438770 -0.491421
O31   O     O_R   0.000010 0.935750 0.561230 -0.491421
O32   O     O_R   0.935750 0.999990 0.561230 -0.491422
O33   O     O_R   0.999990 0.064250 0.561230 -0.491423
O34   O     O_R   0.037210 0.564270 0.500000 -0.497161
O35   O     O_R   0.064250 0.000010 0.561230 -0.491424
O36   O     O_R   0.499990 0.435750 0.938770 -0.491424
O37   O     O_R   0.564250 0.499990 0.938770 -0.491423
O38   O     O_R   0.500010 0.564250 0.938770 -0.491422
O39   O     O_R   0.435750 0.500010 0.938770 -0.491421
O40   O     O_R   0.500010 0.435750 0.061230 -0.491421
O41   O     O_R   0.435750 0.499990 0.061230 -0.491423
O42   O     O_R   0.499990 0.564250 0.061230 -0.491424
O43   O     O_R   0.564250 0.500010 0.061230 -0.491424
O44   O     O_3   0.363395 0.027632 0.626610 -0.661652
O45   O     O_R   0.564270 0.037210 0.500000 -0.497159
O46   O     O_3   0.972379 0.363396 0.626617 -0.661653
O47   O     O_3   0.636604 0.972345 0.626596 -0.661648
O48   O     O_3   0.027632 0.636605 0.626609 -0.661654
O49   O     O_3   0.636606 0.027655 0.373404 -0.661648
O50   O     O_3   0.027620 0.363395 0.373383 -0.661654
O51   O     O_3   0.363396 0.972368 0.373390 -0.661651
O52   O     O_3   0.972368 0.636605 0.373391 -0.661654
O53   O     O_3   0.863395 0.527634 0.126608 -0.661652
O54   O     O_3   0.472356 0.863395 0.126602 -0.661651
O55   O     O_3   0.136604 0.472352 0.126599 -0.661649
O56   O     O_R   0.037210 0.435730 0.500000 -0.497162
O57   O     O_3   0.527639 0.136605 0.126606 -0.661650
O58   O     O_3   0.136606 0.527648 0.873401 -0.661650
O59   O     O_3   0.527644 0.863395 0.873398 -0.661650
O60   O     O_3   0.863396 0.472366 0.873391 -0.661652
O61   O     O_3   0.472361 0.136605 0.873394 -0.661651
O62   O     O_3   0.227771 0.059641 0.415013 -0.662111
O63   O     O_3   0.940357 0.227771 0.415016 -0.662114
O64   O     O_3   0.772229 0.940362 0.415007 -0.662107
O65   O     O_3   0.059643 0.772229 0.415016 -0.662111
O66   O     O_3   0.772229 0.059637 0.584995 -0.662107
O67   O     O_R   0.435730 0.962790 0.500000 -0.497160
O68   O     O_3   0.059642 0.227771 0.584985 -0.662114
O69   O     O_3   0.227771 0.940358 0.584986 -0.662111
O70   O     O_3   0.940357 0.772229 0.584984 -0.662111
O71   O     O_3   0.727771 0.559642 0.915014 -0.662112
O72   O     O_3   0.440360 0.727771 0.915011 -0.662108
O73   O     O_3   0.272229 0.440360 0.915011 -0.662108
O74   O     O_3   0.559640 0.272229 0.915010 -0.662111
O75   O     O_3   0.272229 0.559639 0.084990 -0.662108
O76   O     O_3   0.559639 0.727771 0.084989 -0.662110
O77   O     O_3   0.727771 0.440358 0.084985 -0.662110
O78   O     O_R   0.962790 0.564270 0.500000 -0.497159
O79   O     O_3   0.440360 0.272229 0.084989 -0.662111
O80   O     O_3   0.135664 0.064442 0.419226 -0.672446
O81   O     O_3   0.935557 0.135663 0.419229 -0.672445
O82   O     O_3   0.864336 0.935561 0.419221 -0.672443
O83   O     O_3   0.064443 0.864336 0.419229 -0.672447
O84   O     O_3   0.864336 0.064439 0.580780 -0.672444
O85   O     O_3   0.064442 0.135664 0.580772 -0.672444
O86   O     O_3   0.135663 0.935558 0.580772 -0.672445
O87   O     O_3   0.935557 0.864337 0.580771 -0.672447
O88   O     O_3   0.635664 0.564442 0.919227 -0.672446
O89   O     O_R   0.935730 0.537210 0.000000 -0.497160
O90   O     O_3   0.435559 0.635663 0.919225 -0.672445
O91   O     O_3   0.364337 0.435559 0.919224 -0.672445
O92   O     O_3   0.564441 0.364336 0.919224 -0.672444
O93   O     O_3   0.364336 0.564441 0.080776 -0.672445
O94   O     O_3   0.564441 0.635664 0.080775 -0.672445
O95   O     O_3   0.635663 0.435557 0.080771 -0.672446
O96   O     O_3   0.435559 0.364336 0.080776 -0.672445

loop_
_geom_bond_atom_site_label_1
_geom_bond_atom_site_label_2
_ccdc_geom_bond_type
C39   O72   S    
C92   O35   A    
C35   C53   A    
Cu2   Cu12  S    
C55   O87   S    
C54   C65   A    
C12   C23   A    
Cu7   O56   S    
C114  H56   S    
C90   O24   A    
C110  H12   S    
Cu4   O41   S    
C92   O28   A    
C2    C41   A    
Cu7   O13   S    
Cu2   O31   S    
C27   C110  A    
C89   C106  S    
C64   O96   S    
C67   C94   S    
C77   O78   A    
C9    O54   S    
C25   C81   S    
C37   C63   A    
C28   C111  A    
C49   O82   S    
C124  H7    S    
Cu1   O45   S    
C40   C58   A    
C4    C113  A    
C73   O67   A    
C94   O30   A    
C5    C18   A    
C71   C99   S    
Cu3   O38   S    
Cu6   O11   S    
Cu11  O24   S    
Cu1   O14   S    
C48   O81   S    
H48   O83   S    
Cu10  O20   S    
C3    C112  A    
H44   O80   S    
C33   C125  A    
C43   C96   A    
H59   O94   S    
C12   O58   S    
C53   O85   S    
C84   O14   A    
C40   O73   S    
C24   C63   A    
Cu12  O29   S    
C39   C85   A    
C16   C25   A    
H29   O64   S    
Cu9   O26   S    
C125  H8    S    
C97   O43   A    
Cu4   O43   S    
H18   O53   S    
Cu6   O23   S    
H27   O62   S    
H36   O71   S    
C42   O74   S    
H15   O50   S    
C6    O51   S    
C17   C126  A    
C98   O38   A    
C82   O11   A    
H21   O57   S    
C43   O75   S    
Cu12  O27   S    
Cu5   Cu7   S    
C10   O55   S    
C34   O66   S    
H37   O72   S    
H14   O49   S    
C79   O6    A    
C112  H34   S    
C18   C75   S    
C31   C85   S    
C7    O52   S    
C84   C102  S    
C89   O22   A    
H61   O96   S    
H43   O79   S    
C34   C51   A    
C30   C74   S    
H50   O85   S    
C11   C25   A    
C91   O31   A    
C45   C62   A    
C84   O16   A    
Cu4   O40   S    
C59   O92   S    
C93   O33   A    
C50   O83   S    
C16   C125  A    
C16   O61   S    
C95   O36   A    
C17   C73   S    
C62   O95   S    
C121  H4    S    
C8    C117  A    
H10   O46   S    
Cu9   O2    S    
C24   C50   A    
Cu2   O35   S    
C100  C108  T    
C128  O47   S    
C15   C124  A    
Cu9   O8    S    
C51   O84   S    
Cu8   O89   S    
C78   O89   A    
H20   O55   S    
Cu1   Cu6   S    
C91   O27   A    
C45   C74   A    
C7    C116  A    
C37   O70   S    
C82   O9    A    
Cu3   O36   S    
C113  H45   S    
Cu8   O18   S    
C51   C67   A    
C26   C109  A    
C66   C93   S    
H9    O44   S    
C1    C26   S    
C57   C70   A    
H33   O69   S    
C44   C85   A    
C13   O64   S    
C83   O10   A    
C38   C74   A    
H55   O91   S    
C101  C106  T    
C6    C17   A    
C73   O1    A    
C83   C101  S    
C29   C116  A    
C42   C59   A    
C44   C61   A    
C59   C72   A    
C14   C22   A    
C90   C108  S    
C88   C105  S    
Cu4   O42   S    
C44   O76   S    
H52   O87   S    
Cu6   O16   S    
C60   O93   S    
Cu2   O32   S    
Cu1   O9    S    
C35   C41   A    
C36   C54   A    
C28   C113  A    
C37   C55   A    
C109  C126  A    
C38   C56   A    
C56   C69   A    
C111  C128  A    
C58   C71   A    
C90   O26   A    
H31   O66   S    
C109  H1    S    
C48   C66   A    
C1    C36   A    
C69   C97   S    
C61   C70   A    
C29   C63   S    
Cu2   O33   S    
H51   O86   S    
C35   O68   S    
H32   O68   S    
C55   C68   A    
Cu9   Cu11  S    
C20   C77   S    
Cu5   O10   S    
C19   C76   S    
C22   C79   S    
C98   O42   A    
C83   O13   A    
H47   O82   S    
C38   O71   S    
H22   O58   S    
Cu5   O78   S    
C19   C128  A    
C102  C105  T    
C26   C115  A    
C57   O90   S    
C47   C118  A    
H39   O74   S    
C21   C78   S    
Cu5   O17   S    
C14   C123  A    
C86   O17   A    
C23   C80   S    
C99   O41   A    
C117  H64   S    
C42   C107  A    
H16   O51   S    
C95   O40   A    
C76   O23   A    
Cu12  O30   S    
C120  H3    S    
C40   C96   A    
C76   O45   A    
Cu11  O6    S    
H13   O48   S    
H60   O95   S    
C32   C122  A    
H17   O52   S    
H11   O47   S    
C60   C71   A    
C93   O29   A    
C62   C69   A    
C13   C52   A    
Cu1   O1    S    
C56   O88   S    
C123  H6    S    
H30   O65   S    
H25   O60   S    
C3    C20   A    
C31   C119  A    
C81   O4    A    
Cu12  O28   S    
Cu3   O37   S    
Cu3   Cu4   S    
H28   O63   S    
C36   O69   S    
C116  H63   S    
Cu5   O12   S    
H46   O81   S    
H41   O76   S    
Cu9   O19   S    
C34   C52   A    
Cu7   O34   S    
C24   O65   S    
Cu11  O21   S    
C127  O46   S    
C2    C48   A    
C87   O20   A    
C54   O86   S    
H38   O73   S    
C2    O63   S    
H26   O61   S    
C86   O15   A    
C99   O39   A    
C6    C115  A    
C10   C120  A    
C14   O59   S    
H54   O90   S    
C97   O37   A    
Cu8   O5    S    
C81   O8    A    
C12   C122  A    
C7    C20   A    
C103  C104  T    
C119  H2    S    
C50   C68   A    
C78   O7    A    
C80   O5    A    
C65   C92   S    
H24   O59   S    
C58   O91   S    
C5    C114  A    
Cu10  O7    S    
C29   C112  A    
C33   C107  S    
H42   O77   S    
C9    C22   A    
C39   C57   A    
C115  H62   S    
C75   O12   A    
C68   C91   S    
C122  H5    S    
C8    O53   S    
C15   O60   S    
C118  O62   S    
C4    C19   A    
C87   C104  S    
C110  C127  A    
C64   C72   A    
H57   O92   S    
C33   C121  A    
C46   O79   S    
C72   C95   S    
C11   C121  A    
C4    O49   S    
C32   C120  A    
H40   O75   S    
C86   C103  S    
H53   O88   S    
C45   O77   S    
C126  O44   S    
C87   O18   A    
C111  H23   S    
C3    O48   S    
Cu8   Cu10  S    
C47   O80   S    
Cu6   O67   S    
C46   C64   A    
C5    O50   S    
C18   C127  A    
C27   C41   S    
C88   O21   A    
Cu7   O15   S    
C46   C107  A    
C8    C21   A    
C88   O19   A    
C53   C66   A    
C43   C60   A    
C13   C49   A    
C32   C96   S    
H58   O93   S    
C30   C124  A    
H19   O54   S    
C9    C119  A    
Cu8   O22   S    
C61   O94   S    
C49   C67   A    
C82   C100  S    
Cu10  O25   S    
Cu10  O3    S    
C30   C117  A    
C10   C23   A    
C79   O2    A    
H35   O70   S    
C31   C123  A    
Cu3   O39   S    
C28   C52   S    
C94   O32   A    
C77   O34   A    
C1    C118  A    
C11   O57   S    
Cu11  O4    S    
C27   C114  A    
C15   C21   A    
C80   O3    A    
C75   O56   A    
H49   O84   S    
C89   O25   A    
C47   C65   A    
C70   C98   S    
