data_mof_unit_49221.cif
_audit_creation_date              2012-12-11T15:22:47-0500
_audit_creation_method            fapswitch 2.2
_symmetry_space_group_name_H-M    P1
_symmetry_Int_Tables_number       1
_space_group_crystal_system       triclinic
_cell_length_a                    22.392284
_cell_length_b                    13.003765
_cell_length_c                    26.989687
_cell_angle_alpha                 89.99977
_cell_angle_beta                  90.82797
_cell_angle_gamma                 89.999821
_cell_volume                      7858.14442831

loop_
_atom_site_label
_atom_site_type_symbol
_atom_type_description
_atom_site_fract_x
_atom_site_fract_y
_atom_site_fract_z
_atom_type_partial_charge
C1    C     C_R   0.721016 0.345398 0.178627 0.547616
C2    C     C_R   0.480425 0.257155 0.896940 -0.151608
C3    C     C_R   0.020108 0.604794 0.556663 0.249336
C4    C     C_R   0.494666 0.097932 0.393236 -0.144378
C5    C     C_R   0.505388 0.097013 0.607046 -0.151180
C6    C     C_R   0.994611 0.596999 0.392948 -0.150864
C7    C     C_R   0.005317 0.597910 0.606759 -0.144071
C8    C     C_R   0.743488 0.947052 0.369443 -0.015409
C9    C     C_R   0.256412 0.947841 0.630320 -0.004549
C10   C     C_R   0.243593 0.447823 0.369675 -0.004898
C11   C     C_R   0.756504 0.447027 0.630566 -0.015723
C12   C     C_R   0.694870 0.899924 0.392606 -0.175289
C13   C     C_R   0.020050 0.757094 0.102964 -0.149767
C14   C     C_R   0.305122 0.901386 0.606988 -0.174233
C15   C     C_R   0.194885 0.401361 0.393006 -0.174335
C16   C     C_R   0.805118 0.399899 0.607398 -0.175415
C17   C     C_R   0.696564 0.878822 0.443609 0.251606
C18   C     C_R   0.303302 0.880061 0.556059 0.252825
C19   C     C_R   0.196710 0.380024 0.443935 0.252850
C20   C     C_R   0.803411 0.378768 0.556398 0.251619
C21   C     C_R   0.749975 0.899679 0.469986 -0.009491
C22   C     C_R   0.249370 0.898245 0.530105 -0.007701
C23   C     C_R   0.250642 0.398210 0.469888 -0.007678
C24   C     C_R   0.979990 0.757084 0.897029 -0.149153
C25   C     C_R   0.749990 0.399600 0.530029 -0.009510
C26   C     C_R   0.800752 0.934269 0.445414 -0.154549
C27   C     C_R   0.198289 0.930770 0.554867 -0.166429
C28   C     C_R   0.301721 0.430739 0.445124 -0.166393
C29   C     C_R   0.699216 0.434185 0.554608 -0.154464
C30   C     C_R   0.798527 0.955899 0.394909 0.246044
C31   C     C_R   0.201343 0.958712 0.604966 0.258129
C32   C     C_R   0.298664 0.458686 0.395025 0.257904
C33   C     C_R   0.701457 0.455846 0.605110 0.246159
C34   C     C_R   0.775528 0.971861 0.552901 -0.150398
C35   C     C_R   0.508312 0.258564 0.051827 0.004612
C36   C     C_R   0.223198 0.970217 0.447428 -0.148189
C37   C     C_R   0.276811 0.470191 0.552563 -0.148149
C38   C     C_R   0.724435 0.471797 0.447117 -0.150362
C39   C     C_R   0.720744 0.345040 0.322508 0.533030
C40   C     C_R   0.279311 0.344958 0.677466 0.535892
C41   C     C_R   0.220691 0.844961 0.322532 0.535585
C42   C     C_R   0.779253 0.845047 0.677495 0.532723
C43   C     C_R   0.781615 0.960578 0.604037 -0.149358
C44   C     C_R   0.217473 0.959527 0.396256 -0.146105
C45   C     C_R   0.282533 0.459510 0.603736 -0.145926
C46   C     C_R   0.491778 0.258560 0.948149 0.004840
C47   C     C_R   0.718361 0.460535 0.395979 -0.149174
C48   C     C_R   0.738426 0.789672 0.597289 -0.125165
C49   C     C_R   0.261250 0.789024 0.402702 -0.135734
C50   C     C_R   0.238763 0.289003 0.597295 -0.135770
C51   C     C_R   0.761548 0.289627 0.402718 -0.125145
C52   C     C_R   0.734291 0.799581 0.546428 -0.067051
C53   C     C_R   0.265269 0.798459 0.453592 -0.073290
C54   C     C_R   0.234747 0.298430 0.546404 -0.073328
C55   C     C_R   0.765671 0.299514 0.453581 -0.067034
C56   C     C_R   0.752925 0.890402 0.523909 0.056925
C57   C     C_R   0.008632 0.758455 0.051783 0.006939
C58   C     C_R   0.246162 0.888808 0.476239 0.062609
C59   C     C_R   0.253851 0.388777 0.523754 0.062578
C60   C     C_R   0.747033 0.390328 0.476106 0.056906
C61   C     C_R   0.763488 0.868933 0.626321 0.020566
C62   C     C_R   0.236158 0.868422 0.373791 0.025026
C63   C     C_R   0.263848 0.368408 0.626205 0.025095
C64   C     C_R   0.736496 0.368903 0.373688 0.020660
C65   C     C_R   0.555338 0.159085 0.322029 0.547771
C66   C     C_R   0.444837 0.159118 0.678071 0.543770
C67   C     C_R   0.055163 0.659118 0.321929 0.544493
C68   C     C_R   0.991419 0.758448 0.948208 0.006644
C69   C     C_R   0.944661 0.659084 0.677970 0.548584
C70   C     C_R   0.732444 0.000296 0.322364 0.553951
C71   C     C_R   0.267565 0.000420 0.677582 0.560761
C72   C     C_R   0.232436 0.500415 0.322416 0.559648
C73   C     C_R   0.767554 0.500291 0.677639 0.552935
C74   C     C_R   0.513993 0.070466 0.102722 -0.109483
C75   C     C_R   0.486022 0.070455 0.897267 -0.109688
C76   C     C_R   0.013983 0.570428 0.102733 -0.108927
C77   C     C_R   0.985992 0.570412 0.897273 -0.108725
C78   C     C_R   0.505671 0.070345 0.051631 0.011925
C79   C     C_R   0.503341 0.164612 0.025888 0.057492
C80   C     C_R   0.494358 0.070339 0.948356 0.011960
C81   C     C_R   0.005677 0.570256 0.051640 0.011714
C82   C     C_R   0.994302 0.570247 0.948365 0.011643
C83   C     C_R   0.497501 0.977104 0.974280 -0.146516
C84   C     C_R   0.502504 0.977107 0.025712 -0.146470
C85   C     C_R   0.997489 0.477005 0.974286 -0.146416
C86   C     C_R   0.002458 0.477010 0.025726 -0.146452
C87   C     C_3   0.617992 0.814351 0.124215 -0.117169
C88   C     C_3   0.382011 0.814334 0.875803 -0.116826
C89   C     C_3   0.117341 0.315470 0.123868 -0.117628
C90   C     C_R   0.496722 0.164609 0.974093 0.057560
C91   C     C_3   0.882613 0.315410 0.876104 -0.117948
C92   C     C_3   0.617073 0.064080 0.544655 -0.127639
C93   C     C_3   0.382781 0.068014 0.455863 -0.123594
C94   C     C_3   0.117191 0.567939 0.544134 -0.123466
C95   C     C_3   0.882934 0.564162 0.455475 -0.127633
C96   C     C_3   0.560320 0.433248 0.461171 -0.124880
C97   C     C_3   0.442689 0.435538 0.540373 -0.125293
C98   C     C_3   0.057316 0.935521 0.459633 -0.125239
C99   C     C_3   0.939670 0.933246 0.538829 -0.124802
C100  C     C_3   0.592269 0.869320 0.449791 -0.092310
C101  C     C_R   0.003396 0.664501 0.025887 0.057306
C102  C     C_3   0.407701 0.871189 0.549855 -0.093364
C103  C     C_3   0.092310 0.371129 0.450139 -0.093387
C104  C     C_3   0.907705 0.369262 0.550202 -0.092350
C105  C     C_3   0.891146 0.918115 0.366652 -0.116885
C106  C     C_3   0.115066 0.059017 0.602878 -0.112288
C107  C     C_3   0.384937 0.558995 0.397108 -0.112717
C108  C     C_3   0.608891 0.418007 0.633453 -0.117947
C109  C     C_3   0.888452 0.944624 0.111186 -0.134718
C110  C     C_3   0.111308 0.945590 0.889167 -0.131987
C111  C     C_3   0.376947 0.417253 0.126855 -0.130556
C112  C     C_R   0.278983 0.345400 0.821372 0.548964
C113  C     C_R   0.996621 0.664497 0.974112 0.057213
C114  C     C_3   0.623195 0.417046 0.872907 -0.133621
C115  C     C_3   0.629115 0.743825 0.961238 -0.117453
C116  C     C_3   0.370901 0.743840 0.038768 -0.117464
C117  C     C_3   0.129728 0.243358 0.961574 -0.121014
C118  C     C_3   0.870232 0.243286 0.038417 -0.120933
C119  C     C_3   0.727826 0.172104 0.934672 -0.089963
C120  C     C_3   0.272192 0.172104 0.065284 -0.089935
C121  C     C_3   0.228071 0.671223 0.935891 -0.088980
C122  C     C_3   0.771858 0.671242 0.064188 -0.089201
C123  C     C_R   0.504508 0.351737 0.025700 -0.143694
C124  C     C_R   0.495625 0.351736 0.974269 -0.143630
C125  C     C_R   0.004895 0.851586 0.025648 -0.146169
C126  C     C_R   0.995203 0.851584 0.974335 -0.146221
C127  C     C_R   0.734678 0.969324 0.125697 0.025469
C128  C     C_R   0.265317 0.969331 0.874308 0.025723
C129  C     C_R   0.234644 0.469070 0.125829 0.018564
C130  C     C_R   0.765345 0.469036 0.874161 0.018607
C131  C     C_R   0.788408 0.981662 0.099315 0.207470
C132  C     C_R   0.221039 0.845419 0.178635 0.548772
C133  C     C_R   0.211583 0.981685 0.900689 0.207554
C134  C     C_R   0.288298 0.481082 0.099383 0.203895
C135  C     C_R   0.711689 0.481048 0.900604 0.204459
C136  C     C_R   0.786956 0.974739 0.047150 -0.099565
C137  C     C_R   0.213052 0.974760 0.952862 -0.100149
C138  C     C_R   0.287408 0.473860 0.047503 -0.091755
C139  C     C_R   0.712567 0.473810 0.952480 -0.091541
C140  C     C_R   0.733715 0.952384 0.021487 -0.009378
C141  C     C_R   0.266296 0.952396 0.978518 -0.009310
C142  C     C_R   0.234227 0.452153 0.021607 -0.011266
C143  C     C_R   0.778962 0.845418 0.821365 0.547413
C144  C     C_R   0.765747 0.452113 0.978382 -0.011311
C145  C     C_R   0.681642 0.935605 0.047856 -0.080810
C146  C     C_R   0.318362 0.935606 0.952144 -0.080754
C147  C     C_R   0.181875 0.436096 0.047783 -0.081012
C148  C     C_R   0.818103 0.436058 0.952210 -0.081060
C149  C     C_R   0.553450 0.157227 0.177561 0.552936
C150  C     C_R   0.446558 0.157226 0.822434 0.550614
C151  C     C_R   0.053482 0.657215 0.177554 0.552236
C152  C     C_R   0.946517 0.657213 0.822447 0.554658
C153  C     C_R   0.682113 0.938653 0.099485 0.215155
C154  C     C_R   0.475087 0.162851 0.871748 -0.010998
C155  C     C_R   0.317883 0.938646 0.900516 0.214783
C156  C     C_R   0.182071 0.439088 0.099446 0.217094
C157  C     C_R   0.817913 0.439049 0.900548 0.217360
C158  C     C_R   0.712811 0.840999 0.947964 0.226546
C159  C     C_R   0.287205 0.841015 0.052041 0.226587
C160  C     C_R   0.213370 0.340656 0.948153 0.227712
C161  C     C_R   0.786602 0.340620 0.051837 0.227635
C162  C     C_R   0.725685 0.815575 0.899020 -0.126701
C163  C     C_R   0.274326 0.815587 0.100984 -0.126766
C164  C     C_R   0.225979 0.315373 0.899138 -0.126904
C165  C     C_R   0.524943 0.162859 0.128239 -0.010261
C166  C     C_R   0.774004 0.315350 0.100856 -0.126857
C167  C     C_R   0.774149 0.979947 0.887033 -0.139295
C168  C     C_R   0.225855 0.979954 0.112970 -0.138820
C169  C     C_R   0.274599 0.479636 0.887160 -0.137416
C170  C     C_R   0.725394 0.479621 0.112833 -0.137965
C171  C     C_R   0.760218 0.007864 0.935627 0.232891
C172  C     C_R   0.239789 0.007874 0.064377 0.232759
C173  C     C_R   0.260986 0.507372 0.935825 0.232799
C174  C     C_R   0.739000 0.507348 0.064164 0.232991
C175  C     C_R   0.734306 0.934842 0.967492 0.041260
C176  C     C_R   0.974923 0.662816 0.871789 -0.008333
C177  C     C_R   0.265710 0.934859 0.032514 0.041296
C178  C     C_R   0.235034 0.434391 0.967672 0.040199
C179  C     C_R   0.764937 0.434354 0.032317 0.040215
C180  C     C_R   0.758062 0.882973 0.869098 -0.066348
C181  C     C_R   0.241942 0.882980 0.130904 -0.066084
C182  C     C_R   0.258251 0.382827 0.869168 -0.065907
C183  C     C_R   0.741742 0.382814 0.130827 -0.066203
C184  C     C_R   0.532131 0.171356 0.372241 -0.065955
C185  C     C_R   0.468735 0.171527 0.628111 -0.077125
C186  C     C_R   0.031259 0.671523 0.371887 -0.076973
C187  C     C_R   0.025079 0.662828 0.128211 -0.009236
C188  C     C_R   0.967865 0.671351 0.627758 -0.065653
C189  C     C_R   0.554392 0.252440 0.401557 -0.140688
C190  C     C_R   0.447839 0.253975 0.599019 -0.156632
C191  C     C_R   0.052148 0.753972 0.400981 -0.156656
C192  C     C_R   0.945611 0.752443 0.598443 -0.140616
C193  C     C_R   0.540885 0.259601 0.452047 0.256024
C194  C     C_R   0.461606 0.261211 0.548565 0.250830
C195  C     C_R   0.038376 0.761199 0.451435 0.250883
C196  C     C_R   0.959111 0.759595 0.547951 0.255938
C197  C     C_R   0.730178 0.004751 0.177937 0.577843
C198  C     C_R   0.519647 0.257161 0.103038 -0.151186
C199  C     C_R   0.269822 0.004757 0.822066 0.581587
C200  C     C_R   0.230210 0.504598 0.178002 0.575459
C201  C     C_R   0.769786 0.504584 0.821993 0.571965
C202  C     C_R   0.505712 0.182295 0.473320 0.115144
C203  C     C_R   0.495619 0.182457 0.527158 0.111384
C204  C     C_R   0.004362 0.682439 0.472838 0.111310
C205  C     C_R   0.994270 0.682273 0.526675 0.115009
C206  C     C_R   0.479868 0.104825 0.443331 0.249376
C207  C     C_R   0.520408 0.103834 0.557022 0.246061
C208  C     C_R   0.979584 0.603810 0.442969 0.246031
Cr1   Cr    Cr6+3 0.756570 0.170940 0.251190 1.054963
Cr2   Cr    Cr6+3 0.374010 0.036240 0.749520 1.033005
Cr3   Cr    Cr6+3 0.125990 0.536240 0.250480 1.032652
Cr4   Cr    Cr6+3 0.874010 0.536240 0.749520 1.030066
Cr5   Cr    Cr6+3 0.243430 0.170940 0.748810 1.051902
Cr6   Cr    Cr6+3 0.256570 0.670940 0.251190 1.049665
Cr7   Cr    Cr6+3 0.743430 0.670940 0.748810 1.052887
Cr8   Cr    Cr6+3 0.623740 0.299110 0.249580 1.011705
Cr9   Cr    Cr6+3 0.376260 0.299110 0.750420 1.003643
Cr10  Cr    Cr6+3 0.123740 0.799110 0.249580 1.004530
Cr11  Cr    Cr6+3 0.876260 0.799110 0.750420 1.012825
Cr12  Cr    Cr6+3 0.625990 0.036240 0.250480 1.030345
H1    H     H_    0.640121 0.919377 0.028318 0.151790
H2    H     H_    0.202164 0.033552 0.136322 0.131405
H3    H     H_    0.083103 0.014690 0.579491 0.113266
H4    H     H_    0.141409 0.113176 0.579855 0.098733
H5    H     H_    0.088463 0.106097 0.628773 0.143340
H6    H     H_    0.416900 0.514675 0.420498 0.113281
H7    H     H_    0.358593 0.613159 0.420127 0.099051
H8    H     H_    0.411542 0.606070 0.371211 0.143084
H9    H     H_    0.627513 0.351178 0.654368 0.111658
H10   H     H_    0.590582 0.392510 0.596944 0.129520
H11   H     H_    0.571086 0.448964 0.654980 0.138746
H12   H     H_    0.472537 0.328796 0.877374 0.122177
H13   H     H_    0.298222 0.533277 0.863782 0.132294
H14   H     H_    0.527553 0.328800 0.122600 0.122761
H15   H     H_    0.971938 0.828724 0.877505 0.121799
H16   H     H_    0.028124 0.828731 0.122483 0.121224
H17   H     H_    0.491914 0.424513 0.954915 0.107519
H18   H     H_    0.508246 0.424516 0.045049 0.107481
H19   H     H_    0.990865 0.924351 0.955081 0.097005
H20   H     H_    0.009262 0.924356 0.044896 0.097071
H21   H     H_    0.909346 0.973963 0.076941 0.105599
H22   H     H_    0.874951 0.862584 0.106627 0.105322
H23   H     H_    0.923008 0.947367 0.141019 0.141994
H24   H     H_    0.701775 0.533267 0.136212 0.131735
H25   H     H_    0.090503 0.976132 0.923209 0.103913
H26   H     H_    0.124495 0.863529 0.894252 0.106419
H27   H     H_    0.076781 0.947905 0.859303 0.144992
H28   H     H_    0.390980 0.391130 0.089532 0.106870
H29   H     H_    0.353722 0.353872 0.146574 0.109206
H30   H     H_    0.418056 0.436032 0.148425 0.145005
H31   H     H_    0.609242 0.390391 0.910166 0.108373
H32   H     H_    0.646521 0.354040 0.852998 0.105535
H33   H     H_    0.582036 0.435860 0.851410 0.142075
H34   H     H_    0.631134 0.690176 0.929310 0.162034
H35   H     H_    0.655845 0.771113 0.141532 0.119094
H36   H     H_    0.602601 0.813528 0.951252 0.085456
H37   H     H_    0.605110 0.703665 0.991253 0.139931
H38   H     H_    0.368882 0.690195 0.070698 0.162024
H39   H     H_    0.397415 0.813543 0.048752 0.085534
H40   H     H_    0.394906 0.703676 0.008755 0.139897
H41   H     H_    0.131698 0.189831 0.929601 0.157199
H42   H     H_    0.103121 0.313018 0.951697 0.086638
H43   H     H_    0.105853 0.202993 0.991597 0.136817
H44   H     H_    0.868251 0.189706 0.070370 0.157498
H45   H     H_    0.896841 0.312927 0.048324 0.086484
H46   H     H_    0.608397 0.784787 0.086251 0.124612
H47   H     H_    0.894115 0.202967 0.008384 0.136872
H48   H     H_    0.714268 0.739454 0.885628 0.170185
H49   H     H_    0.285743 0.739465 0.114376 0.170080
H50   H     H_    0.214447 0.239333 0.885708 0.169960
H51   H     H_    0.785537 0.239312 0.114289 0.170138
H52   H     H_    0.827301 0.986823 0.026339 0.146964
H53   H     H_    0.172725 0.986846 0.973694 0.146872
H54   H     H_    0.328559 0.484261 0.027467 0.152765
H55   H     H_    0.671406 0.484178 0.972507 0.152772
H56   H     H_    0.683037 0.147700 0.947768 0.113535
H57   H     H_    0.577842 0.799881 0.146776 0.126116
H58   H     H_    0.727925 0.177716 0.893525 0.080953
H59   H     H_    0.736086 0.250272 0.949253 0.180368
H60   H     H_    0.316955 0.147723 0.052120 0.113744
H61   H     H_    0.272177 0.177676 0.106433 0.082283
H62   H     H_    0.263894 0.250285 0.050732 0.180253
H63   H     H_    0.183921 0.647025 0.950427 0.114956
H64   H     H_    0.226377 0.676040 0.894718 0.087049
H65   H     H_    0.236936 0.749700 0.949837 0.180619
H66   H     H_    0.816072 0.647032 0.049787 0.114677
H67   H     H_    0.773383 0.676137 0.105361 0.085271
H68   H     H_    0.344152 0.771064 0.858515 0.120093
H69   H     H_    0.763044 0.749691 0.050182 0.180732
H70   H     H_    0.391633 0.784815 0.913772 0.124383
H71   H     H_    0.422148 0.799851 0.853229 0.126281
H72   H     H_    0.154963 0.271687 0.141215 0.118908
H73   H     H_    0.359885 0.919375 0.971679 0.151835
H74   H     H_    0.107738 0.286202 0.085852 0.123073
H75   H     H_    0.077062 0.301387 0.146327 0.125587
H76   H     H_    0.844991 0.271686 0.858723 0.118051
H77   H     H_    0.892178 0.286081 0.914115 0.123325
H78   H     H_    0.922906 0.301321 0.853662 0.125424
H79   H     H_    0.585482 0.306688 0.385839 0.149527
H80   H     H_    0.417442 0.309176 0.614873 0.150722
H81   H     H_    0.082544 0.809177 0.385129 0.150690
H82   H     H_    0.914531 0.806704 0.614164 0.149499
H83   H     H_    0.628759 0.067089 0.584860 0.117545
H84   H     H_    0.140411 0.420298 0.028076 0.151085
H85   H     H_    0.625340 0.140023 0.526927 0.131114
H86   H     H_    0.647340 0.007946 0.527286 0.184921
H87   H     H_    0.371085 0.072303 0.415688 0.123323
H88   H     H_    0.375336 0.143783 0.474007 0.137037
H89   H     H_    0.351917 0.012381 0.472941 0.180843
H90   H     H_    0.128882 0.572229 0.584310 0.123704
H91   H     H_    0.124651 0.643699 0.525987 0.137083
H92   H     H_    0.148049 0.512285 0.527063 0.180828
H93   H     H_    0.871212 0.567891 0.415291 0.117634
H94   H     H_    0.874708 0.639786 0.473516 0.131286
H95   H     H_    0.859564 0.420254 0.971920 0.151052
H96   H     H_    0.852666 0.507732 0.472624 0.184985
H97   H     H_    0.521798 0.033078 0.629084 0.143709
H98   H     H_    0.477348 0.034904 0.371059 0.140405
H99   H     H_    0.022630 0.534875 0.628935 0.140613
H100  H     H_    0.978209 0.533062 0.370908 0.143981
H101  H     H_    0.516090 0.444717 0.442599 0.129090
H102  H     H_    0.596869 0.448035 0.434832 0.123710
H103  H     H_    0.564164 0.491553 0.491025 0.127316
H104  H     H_    0.486616 0.446740 0.559534 0.125494
H105  H     H_    0.405538 0.449273 0.566270 0.123291
H106  H     H_    0.483246 0.997374 0.878050 0.163147
H107  H     H_    0.439131 0.494825 0.510979 0.114649
H108  H     H_    0.013400 0.946743 0.440459 0.125410
H109  H     H_    0.094481 0.949242 0.433748 0.123313
H110  H     H_    0.060869 0.994805 0.489028 0.114637
H111  H     H_    0.983893 0.944714 0.557413 0.129217
H112  H     H_    0.903109 0.948030 0.565158 0.123752
H113  H     H_    0.935838 0.991552 0.508974 0.127269
H114  H     H_    0.654397 0.885891 0.371388 0.132706
H115  H     H_    0.345731 0.887878 0.628102 0.132495
H116  H     H_    0.154276 0.387857 0.371894 0.132428
H117  H     H_    0.516743 0.997388 0.121944 0.163131
H118  H     H_    0.845599 0.385888 0.628611 0.132652
H119  H     H_    0.789714 0.042982 0.535784 0.109783
H120  H     H_    0.208577 0.040896 0.464720 0.104450
H121  H     H_    0.291431 0.540870 0.535269 0.104490
H122  H     H_    0.710247 0.542911 0.464238 0.109796
H123  H     H_    0.801785 0.021618 0.625857 0.119264
H124  H     H_    0.197140 0.020567 0.374540 0.120147
H125  H     H_    0.302863 0.520556 0.625451 0.120417
H126  H     H_    0.698197 0.521586 0.374162 0.119481
H127  H     H_    0.495061 0.904253 0.954843 0.099875
H128  H     H_    0.983363 0.497360 0.878021 0.162901
H129  H     H_    0.504921 0.904259 0.045153 0.099888
H130  H     H_    0.995076 0.404157 0.954845 0.099237
H131  H     H_    0.004843 0.404166 0.045172 0.099197
H132  H     H_    0.579315 0.821937 0.417132 0.101319
H133  H     H_    0.591480 0.952862 0.440672 0.149894
H134  H     H_    0.558066 0.856046 0.478410 0.187604
H135  H     H_    0.420461 0.823130 0.582335 0.106425
H136  H     H_    0.408544 0.954554 0.559318 0.152151
H137  H     H_    0.441999 0.858287 0.521276 0.187378
H138  H     H_    0.079555 0.323068 0.417659 0.106398
H139  H     H_    0.016586 0.497379 0.121992 0.162819
H140  H     H_    0.091459 0.454495 0.440677 0.152165
H141  H     H_    0.058013 0.358217 0.478719 0.187381
H142  H     H_    0.920663 0.321883 0.582861 0.101322
H143  H     H_    0.908499 0.452805 0.559316 0.149834
H144  H     H_    0.941902 0.355979 0.521579 0.187618
H145  H     H_    0.718322 0.734999 0.524608 0.149022
H146  H     H_    0.281582 0.734006 0.475333 0.138052
H147  H     H_    0.218437 0.233972 0.524664 0.138023
H148  H     H_    0.781639 0.234926 0.475398 0.148989
H149  H     H_    0.725637 0.716790 0.613444 0.160505
H150  H     H_    0.797834 0.033549 0.863678 0.130892
H151  H     H_    0.274121 0.716425 0.386362 0.141300
H152  H     H_    0.225892 0.216406 0.613637 0.141143
H153  H     H_    0.774342 0.216753 0.386558 0.160405
H154  H     H_    0.841777 0.948235 0.465956 0.153490
H155  H     H_    0.156626 0.936920 0.534357 0.150810
H156  H     H_    0.343386 0.436888 0.465632 0.150852
H157  H     H_    0.658181 0.448124 0.534076 0.153573
H158  H     H_    0.872576 0.851172 0.345794 0.113240
H159  H     H_    0.909455 0.892791 0.403189 0.129092
H160  H     H_    0.928942 0.949054 0.345110 0.139423
O1    O     O_R   0.769900 0.064540 0.196060 -0.470480
O2    O     O_R   0.433710 0.069580 0.694600 -0.518962
O3    O     O_R   0.066290 0.569580 0.305400 -0.518935
O4    O     O_R   0.933710 0.569580 0.694600 -0.521487
O5    O     O_R   0.680760 0.993330 0.302620 -0.527247
O6    O     O_R   0.319240 0.993330 0.697380 -0.526682
O7    O     O_R   0.180760 0.493330 0.302620 -0.526814
O8    O     O_R   0.819240 0.493330 0.697380 -0.527381
O9    O     O_3   0.668770 0.168760 0.250420 -0.256898
O10   O     O_3   0.331230 0.168760 0.749580 -0.255544
O11   O     O_3   0.168770 0.668760 0.250420 -0.254817
O12   O     O_R   0.230100 0.064540 0.803940 -0.467605
O13   O     O_3   0.831230 0.668760 0.749580 -0.256283
O14   O     O_R   0.750800 0.274080 0.199250 -0.504853
O15   O     O_R   0.249200 0.274080 0.800750 -0.505027
O16   O     O_R   0.250800 0.774080 0.199250 -0.504695
O17   O     O_R   0.749200 0.774080 0.800750 -0.504553
O18   O     O_R   0.669990 0.371670 0.194150 -0.513564
O19   O     O_R   0.330010 0.371670 0.805850 -0.513069
O20   O     O_R   0.169990 0.871670 0.194150 -0.513441
O21   O     O_R   0.830010 0.871670 0.805850 -0.513921
O22   O     O_R   0.574600 0.238480 0.197800 -0.503555
O23   O     O_R   0.269900 0.564540 0.196060 -0.471597
O24   O     O_R   0.425400 0.238480 0.802200 -0.505300
O25   O     O_R   0.074600 0.738480 0.197800 -0.504917
O26   O     O_R   0.925400 0.738480 0.802200 -0.503076
O27   O     O_R   0.566130 0.068680 0.194240 -0.487523
O28   O     O_R   0.433870 0.068680 0.805760 -0.487526
O29   O     O_R   0.066130 0.568680 0.194240 -0.487397
O30   O     O_R   0.933870 0.568680 0.805760 -0.487458
O31   O     O_R   0.680610 0.992490 0.199570 -0.460151
O32   O     O_R   0.319390 0.992490 0.800430 -0.459377
O33   O     O_R   0.180610 0.492490 0.199570 -0.458490
O34   O     O_R   0.730100 0.564540 0.803940 -0.474322
O35   O     O_R   0.819390 0.492490 0.800430 -0.459282
O36   O     O_R   0.770060 0.065440 0.307230 -0.460449
O37   O     O_R   0.229940 0.065440 0.692770 -0.464074
O38   O     O_R   0.270060 0.565440 0.307230 -0.464645
O39   O     O_R   0.729940 0.565440 0.692770 -0.460975
O40   O     O_R   0.750960 0.274920 0.302300 -0.504633
O41   O     O_R   0.249040 0.274920 0.697700 -0.508097
O42   O     O_R   0.250960 0.774920 0.302300 -0.508013
O43   O     O_R   0.749040 0.774920 0.697700 -0.504573
O44   O     O_R   0.670160 0.372580 0.305320 -0.525089
O45   O     O_R   0.574760 0.239320 0.300850 -0.501652
O46   O     O_R   0.329840 0.372580 0.694680 -0.525033
O47   O     O_R   0.170160 0.872580 0.305320 -0.525167
O48   O     O_R   0.829840 0.872580 0.694680 -0.525195
O49   O     O_3   0.629162 0.921087 0.123768 -0.548314
O50   O     O_3   0.370829 0.921068 0.876228 -0.548414
O51   O     O_3   0.128955 0.422068 0.123564 -0.547543
O52   O     O_3   0.871031 0.422017 0.876435 -0.547538
O53   O     O_3   0.557696 0.031043 0.536856 -0.574547
O54   O     O_3   0.441835 0.033084 0.463436 -0.577518
O55   O     O_3   0.058132 0.533040 0.536556 -0.577558
O56   O     O_R   0.425240 0.239320 0.699150 -0.507686
O57   O     O_3   0.942308 0.530982 0.463120 -0.574568
O58   O     O_3   0.566299 0.334477 0.482520 -0.581109
O59   O     O_3   0.437397 0.337446 0.518167 -0.572032
O60   O     O_3   0.062585 0.837425 0.481838 -0.571924
O61   O     O_3   0.933699 0.834476 0.517478 -0.581132
O62   O     O_3   0.648260 0.837561 0.469089 -0.586516
O63   O     O_3   0.351743 0.840061 0.530267 -0.590570
O64   O     O_3   0.148272 0.340016 0.469727 -0.590610
O65   O     O_3   0.851710 0.337506 0.530912 -0.586541
O66   O     O_3   0.848111 0.996499 0.371948 -0.544303
O67   O     O_R   0.074760 0.739320 0.300850 -0.507242
O68   O     O_3   0.151488 0.991420 0.630979 -0.533788
O69   O     O_3   0.348518 0.491391 0.369010 -0.534880
O70   O     O_3   0.651876 0.496444 0.628074 -0.544382
O71   O     O_3   0.840419 0.008452 0.124894 -0.554933
O72   O     O_3   0.159585 0.008495 0.875079 -0.553709
O73   O     O_3   0.340993 0.506159 0.123809 -0.558155
O74   O     O_3   0.658989 0.506109 0.876183 -0.558330
O75   O     O_3   0.686980 0.768902 0.978832 -0.546895
O76   O     O_3   0.313036 0.768918 0.021174 -0.546909
O77   O     O_3   0.187615 0.268566 0.979079 -0.544967
O78   O     O_R   0.925240 0.739320 0.699150 -0.501112
O79   O     O_3   0.812350 0.268524 0.020911 -0.544968
O80   O     O_3   0.773244 0.105729 0.952388 -0.534968
O81   O     O_3   0.226747 0.105732 0.047615 -0.535164
O82   O     O_3   0.274188 0.605163 0.952582 -0.535911
O83   O     O_3   0.725809 0.605141 0.047401 -0.535616
O84   O     O_R   0.566290 0.069580 0.305400 -0.521495

loop_
_geom_bond_atom_site_label_1
_geom_bond_atom_site_label_2
_ccdc_geom_bond_type
C172  C177  A    
Cr10  O47   S    
C102  H137  S    
C21   C26   A    
C34   C56   A    
C4    H98   S    
C101  C113  A    
C136  C140  A    
C41   O42   A    
C158  O75   S    
C5    H97   S    
C185  C190  A    
C14   H115  S    
C133  C137  A    
C7    H99   S    
C40   O41   A    
C66   C185  S    
C138  H54   S    
C88   H70   S    
Cr8   O18   S    
C193  O58   S    
C88   H68   S    
C110  O72   S    
C174  O83   S    
C47   H126  S    
C120  H60   S    
C145  H1    S    
C92   H85   S    
C192  H82   S    
C107  H6    S    
C29   C33   A    
C79   C90   A    
C3    O55   S    
C122  O83   S    
C103  O64   S    
C204  C208  A    
C32   O69   S    
C54   H147  S    
C25   C60   S    
C132  O16   A    
C81   C86   A    
C108  H9    S    
C123  H18   S    
C167  C180  A    
C93   H87   S    
C208  O57   S    
C46   C124  A    
C52   H145  S    
C80   C83   A    
C104  O65   S    
C91   O52   S    
C191  H81   S    
C9    C31   A    
C30   O66   S    
C98   O60   S    
C202  C203  S    
C27   C31   A    
C28   C32   A    
C114  O74   S    
C47   C64   A    
C72   O38   A    
C167  C171  A    
Cr9   O10   S    
C206  O54   S    
C96   H103  S    
C17   C21   A    
C53   H146  S    
C134  O73   S    
C135  C139  A    
C77   H128  S    
Cr3   O29   S    
C132  C181  S    
Cr9   O24   S    
C201  O35   A    
C89   H72   S    
C118  O79   S    
Cr7   O34   S    
C98   H108  S    
C16   C20   A    
C104  H142  S    
Cr12  O5    S    
C137  C141  A    
C136  H52   S    
Cr10  O11   S    
C160  C178  A    
C13   H16   S    
C117  H42   S    
C112  O19   A    
C120  H61   S    
Cr7   O13   S    
C22   C27   A    
C67   O67   A    
C36   C44   A    
Cr11  O78   S    
C37   C45   A    
C24   C176  A    
C97   H105  S    
C43   C61   A    
C170  C174  A    
C6    H100  S    
C39   O44   A    
Cr8   O22   S    
C49   C62   A    
Cr10  O20   S    
C51   C64   A    
C29   H157  S    
C140  C145  A    
C22   C58   S    
C129  C156  A    
C53   C58   A    
C82   C85   A    
C6    C186  A    
C99   H111  S    
C128  C199  S    
C165  C198  A    
C119  H59   S    
C194  O59   S    
C197  O31   A    
C171  C175  A    
C109  H22   S    
C117  O77   S    
C114  H31   S    
Cr8   O9    S    
C51   C55   A    
C87   O49   S    
C127  C131  A    
C169  C182  A    
C87   H46   S    
C118  H47   S    
C48   C52   A    
C168  C181  A    
Cr1   O1    S    
C143  O17   A    
C108  O70   S    
C74   C165  A    
Cr7   O43   S    
C105  H160  S    
C65   O45   A    
Cr8   O44   S    
C110  H27   S    
C100  O62   S    
C13   C187  A    
C67   O3    A    
C163  C181  A    
C166  H51   S    
Cr5   O15   S    
Cr6   O16   S    
C103  H138  S    
C16   H118  S    
C1    C183  S    
C123  C124  A    
C108  H10   S    
C85   C86   A    
C23   C59   S    
C169  H13   S    
C130  C157  A    
C77   C82   A    
C95   H96   S    
C57   C125  A    
Cr1   O14   S    
C49   C53   A    
C89   H74   S    
C13   C57   A    
C34   H119  S    
C89   O51   S    
C91   H76   S    
C104  H144  S    
C72   O7    A    
C119  H56   S    
Cr9   O19   S    
C105  O66   S    
C83   C84   A    
C96   O58   S    
C107  H7    S    
Cr4   O4    S    
C93   O54   S    
Cr12  O84   S    
C27   H155  S    
C120  H62   S    
C161  C179  A    
C97   H107  S    
C6    C208  A    
C2    H12   S    
C43   H123  S    
C2    C154  A    
Cr7   O17   S    
C50   C63   A    
C139  H55   S    
C36   H120  S    
C196  O61   S    
C50   H152  S    
C54   C59   A    
C94   H91   S    
C119  O80   S    
C52   C56   A    
C3    C205  A    
C11   C33   A    
C149  C165  S    
C131  C136  A    
C115  H37   S    
C111  H28   S    
Cr8   O45   S    
C91   H78   S    
C44   H124  S    
C98   H110  S    
C146  C155  A    
C1    O14   A    
C48   H149  S    
C15   H116  S    
C132  O20   A    
Cr11  O26   S    
C122  H67   S    
C55   H148  S    
C118  H45   S    
C106  H3    S    
C42   C61   S    
C8    C12   A    
C149  O22   A    
C135  O74   S    
C96   H102  S    
C106  H5    S    
C197  O1    A    
C23   C28   A    
C200  O33   A    
C116  H39   S    
C37   C59   A    
C125  H20   S    
C38   C60   A    
C199  O32   A    
Cr11  O21   S    
C37   H121  S    
C121  H64   S    
C26   C30   A    
C77   C176  A    
C28   H156  S    
C116  O76   S    
Cr9   O56   S    
C195  O60   S    
C160  O77   S    
C110  H25   S    
Cr6   O38   S    
C18   C22   A    
C142  C147  A    
Cr2   O28   S    
C34   C43   A    
C82   C113  A    
C12   H114  S    
C102  H136  S    
C57   C101  A    
C8    C70   S    
Cr12  O9    S    
C188  C192  A    
Cr6   O23   S    
C76   H139  S    
C35   C123  A    
C112  O15   A    
C142  C178  S    
C92   H86   S    
C173  C178  A    
C162  H48   S    
C148  C157  A    
C191  C195  A    
C66   O56   A    
C189  C193  A    
C158  C175  A    
C204  C205  S    
C169  C173  A    
C121  H63   S    
Cr11  O13   S    
Cr4   O30   S    
C70   O5    A    
Cr3   O3    S    
C65   C184  S    
C10   C72   S    
C207  O53   S    
C19   O64   S    
Cr2   O6    S    
Cr3   O11   S    
C130  C135  A    
C5    C185  A    
C17   O62   S    
Cr2   O32   S    
Cr1   O36   S    
C111  H30   S    
C151  C187  S    
C39   C64   S    
C50   C54   A    
C40   C63   S    
C163  H49   S    
Cr10  O25   S    
C141  C177  S    
C192  C196  A    
Cr4   O35   S    
C152  O30   A    
C33   O70   S    
C3    C7    A    
Cr10  O67   S    
C100  H133  S    
C150  O28   A    
C20   C25   A    
C107  O69   S    
C42   O43   A    
C85   H130  S    
C199  O12   A    
C143  O21   A    
C201  O34   A    
C161  O79   S    
C131  O71   S    
C115  H36   S    
C12   C17   A    
C105  H158  S    
C76   C187  A    
C68   C113  A    
C117  H41   S    
C87   H35   S    
C55   C60   A    
C25   C29   A    
C41   C62   S    
C133  O72   S    
C126  H19   S    
C127  C197  S    
C97   H104  S    
C84   H129  S    
Cr1   O40   S    
C86   H131  S    
C95   H94   S    
C11   C73   S    
Cr2   O2    S    
C81   C101  A    
C195  C204  A    
C93   H89   S    
C193  C202  A    
C9    C14   A    
C156  O51   S    
Cr1   O9    S    
C200  O23   A    
C11   C16   A    
C109  H21   S    
C114  H32   S    
C65   O84   A    
C121  H65   S    
C147  C156  A    
C130  C201  S    
C42   O48   A    
C141  C146  A    
C172  O81   S    
C93   H88   S    
C149  O27   A    
C92   H83   S    
C138  C142  A    
C125  C126  A    
C99   H112  S    
C153  O49   S    
C18   O63   S    
C103  H140  S    
C116  H38   S    
C105  H159  S    
C114  H33   S    
C164  H50   S    
C147  H84   S    
C1    O18   A    
C166  C183  A    
C9    C71   S    
C69   O4    A    
C168  H2    S    
C21   C56   S    
C173  O82   S    
C46   C90   A    
C8    C30   A    
C69   O78   A    
C115  H34   S    
C121  O82   S    
C99   H113  S    
C140  C175  S    
C97   O59   S    
C164  C182  A    
C24   C68   A    
C129  C134  A    
C117  H43   S    
C168  C172  A    
C100  H132  S    
C118  H44   S    
C74   C78   A    
C75   H106  S    
C20   O65   S    
C91   H77   S    
C95   O57   S    
C31   O68   S    
C170  C183  A    
C88   H71   S    
C14   C18   A    
C19   C23   A    
Cr5   O10   S    
C144  C148  A    
C127  C153  A    
C119  H58   S    
C151  O25   A    
C103  H141  S    
C2    C46   A    
C94   H92   S    
Cr11  O48   S    
C155  O50   S    
C170  H24   S    
C159  O76   S    
C49   H151  S    
C36   C58   A    
C10   C15   A    
C5    C207  A    
C109  H23   S    
C74   H117  S    
C160  C164  A    
C99   O61   S    
C87   H57   S    
C35   C79   A    
C196  C205  A    
Cr5   O37   S    
C71   O37   A    
C128  C155  A    
C15   C19   A    
Cr4   O8    S    
C106  H4    S    
C26   H154  S    
Cr2   O10   S    
C45   H125  S    
Cr3   O7    S    
C83   H127  S    
C75   C80   A    
C161  C166  A    
C116  H40   S    
C67   C186  S    
C145  C153  A    
C110  H26   S    
Cr12  O27   S    
Cr5   O41   S    
C73   O39   A    
C71   O6    A    
C122  H69   S    
C152  O26   A    
C159  C177  A    
C40   O46   A    
C51   H153  S    
C146  H73   S    
C150  O24   A    
Cr4   O13   S    
C109  O71   S    
C70   O36   A    
C94   O55   S    
C151  O29   A    
C92   O53   S    
C157  O52   S    
C7    C188  A    
C95   H93   S    
C198  H14   S    
C158  C162  A    
C78   C79   A    
C89   H75   S    
C112  C182  S    
C44   C62   A    
C39   O40   A    
C203  C207  A    
C45   C63   A    
C104  H143  S    
C10   C32   A    
C139  C144  A    
C144  C179  S    
C106  O68   S    
C107  H8    S    
C143  C180  S    
C4    C184  A    
C41   O47   A    
C69   C188  S    
C38   C47   A    
C38   H122  S    
C120  O81   S    
Cr12  O31   S    
C202  C206  A    
C159  C163  A    
Cr5   O12   S    
C68   C126  A    
Cr6   O11   S    
C88   O50   S    
C186  C191  A    
C171  O80   S    
C102  H135  S    
C94   H90   S    
C162  C180  A    
C102  O63   S    
Cr3   O33   S    
C76   C81   A    
C134  C138  A    
Cr7   O39   S    
C4    C206  A    
C189  H79   S    
C111  H29   S    
C190  H80   S    
C98   H109  S    
Cr6   O42   S    
C167  H150  S    
C122  H66   S    
C73   O8    A    
C24   H15   S    
C128  C133  A    
C148  H95   S    
C100  H134  S    
C124  H17   S    
C75   C154  A    
C48   C61   A    
C194  C203  A    
C137  H53   S    
C96   H101  S    
Cr9   O46   S    
C80   C90   A    
C129  C200  S    
C190  C194  A    
C152  C176  S    
C78   C84   A    
C150  C154  S    
C184  C189  A    
C115  O75   S    
C174  C179  A    
C111  O73   S    
C66   O2    A    
C35   C198  A    
C108  H11   S    
