data_mof_unit_66826.cif
_audit_creation_date              2013-03-05T15:41:45-0500
_audit_creation_method            fapswitch 2.2
_symmetry_space_group_name_H-M    P1
_symmetry_Int_Tables_number       1
_space_group_crystal_system       triclinic
_cell_length_a                    8.55135
_cell_length_b                    15.42087
_cell_length_c                    15.00324
_cell_angle_alpha                 98.796145
_cell_angle_beta                  99.707381
_cell_angle_gamma                 98.878923
_cell_volume                      1893.96322989

loop_
_atom_site_label
_atom_site_type_symbol
_atom_site_description
_atom_site_fract_x
_atom_site_fract_y
_atom_site_fract_z
_atom_type_partial_charge
P1    P     P_3+3 0.004200 0.709230 0.580350 0.684061
O1    O     O_2   0.174080 0.723060 0.553930 -0.244366
O2    O     O_3   0.901570 0.609580 0.550840 -0.336967
O3    O     O_3   0.370350 0.665080 0.388270 -0.342714
O4    O     O_2   0.315973 0.825458 0.446842 -0.290365
O5    O     O_3   0.043729 0.765383 0.698799 -0.518448
O6    O     O_3   0.380619 0.800199 0.282315 -0.591171
C1    C     C_3   0.564020 0.825828 0.181247 -0.719156
H1    H     H_    0.482433 0.866542 0.148732 0.274382
H2    H     H_    0.660371 0.869842 0.235196 0.250835
P2    P     P_3+3 0.305000 0.425570 0.290900 0.538469
P3    P     P_3+3 0.862933 0.618718 0.225171 0.509890
O7    O     O_2   0.134790 0.452800 0.278150 -0.317187
O8    O     O_3   0.937650 0.618620 0.340860 -0.350613
O9    O     O_2   0.989540 0.590922 0.169568 -0.301576
O10   O     O_3   0.252731 0.309901 0.251741 -0.587774
O11   O     O_3   0.851392 0.729127 0.214348 -0.638081
C2    C     C_3   0.005562 0.781051 0.225565 0.906309
H3    H     H_    0.103290 0.747748 0.253559 0.138290
C3    C     C_3   0.030197 0.805969 0.133638 -0.745173
H4    H     H_    0.151348 0.848065 0.141722 0.248299
H5    H     H_    0.020838 0.744675 0.081847 0.266880
C4    C     C_3   0.830884 0.284639 0.242398 0.091255
H6    H     H_    0.956020 0.289819 0.277904 0.050602
C5    C     C_3   0.785415 0.205324 0.160146 -0.737393
H7    H     H_    0.662240 0.203767 0.120779 0.249017
H8    H     H_    0.782202 0.143593 0.188597 0.228150
Ba1   Ba    Ba6+2 0.154730 0.543770 0.458180 1.711364
C6    C     C_3   0.079712 0.740243 0.787012 0.842922
C7    C     C_3   0.115525 0.827241 0.859870 -0.775120
H9    H     H_    0.199211 0.880595 0.840857 0.259299
H10   H     H_    0.167913 0.816781 0.929576 0.252048
H11   H     H_    0.004425 0.853792 0.867311 0.310646
C8    C     C_3   0.254428 0.262408 0.323957 0.179991
H12   H     H_    0.185033 0.289453 0.373811 0.040397
H13   H     H_    0.379395 0.267121 0.359200 0.204419
C9    C     C_3   0.179020 0.164955 0.281408 0.087541
H14   H     H_    0.047132 0.157701 0.261564 0.100753
H15   H     H_    0.228255 0.143706 0.219313 0.202943
P4    P     P_3+3 0.806080 0.290760 0.419570 0.494928
O12   O     O_2   0.636200 0.276890 0.446040 -0.313230
O13   O     O_3   0.908720 0.390410 0.449080 -0.350215
O14   O     O_3   0.439930 0.334910 0.611650 -0.399179
O15   O     O_3   0.721746 0.270476 0.300753 -0.563739
P5    P     P_3+3 0.926275 0.378420 0.775972 0.638927
O16   O     O_3   0.402060 0.547860 0.609750 -0.334809
O17   O     O_3   0.872630 0.381370 0.659060 -0.379764
O18   O     O_2   0.815730 0.432867 0.823853 -0.269804
O19   O     O_3   0.862923 0.267338 0.786530 -0.422446
Ba2   Ba    Ba6+2 0.655430 0.456220 0.541750 1.740028
P6    P     P_3+3 0.430231 0.778989 0.394115 0.522751
C10   C     C_3   0.468894 0.756867 0.223692 0.801663
H16   H     H_    0.553882 0.718625 0.257823 0.009460
H17   H     H_    0.620704 0.792471 0.127462 0.261842
O20   O     O_3   0.408220 0.452130 0.390170 -0.404670
C11   C     C_3   0.586449 0.767795 0.730066 1.046650
C12   C     C_3   0.532416 0.844829 0.788239 0.084791
H18   H     H_    0.556313 0.907773 0.761371 0.233571
H19   H     H_    0.404514 0.832172 0.788323 0.108181
P7    P     P_3+3 0.512736 0.581302 0.726153 0.592427
O21   O     O_2   0.675490 0.547140 0.721820 -0.257213
O22   O     O_3   0.592793 0.695754 0.779262 -0.549252
H20   H     H_    0.936608 0.843651 0.107967 0.268717
C13   C     C_3   0.916546 0.212034 0.718642 0.385802
H21   H     H_    0.853121 0.216274 0.648880 0.105971
H22   H     H_    0.048040 0.233132 0.723089 -0.118360
C14   C     C_3   0.885953 0.114800 0.731896 0.131541
H23   H     H_    0.983822 0.081153 0.712313 0.060063
H24   H     H_    0.884300 0.111067 0.805042 0.224660
P8    P     P_3+3 0.383588 0.219423 0.600154 0.511044
C15   C     C_3   0.362290 0.191589 0.764667 0.120579
H25   H     H_    0.254903 0.139268 0.734301 0.021855
O23   O     O_2   0.484726 0.179535 0.533716 -0.283048
O24   O     O_3   0.472332 0.193027 0.704816 -0.445790
H26   H     H_    0.323848 0.257344 0.776788 0.060886
C16   C     C_3   0.439318 0.170546 0.857658 1.015718
C17   C     C_R   0.163564 0.171515 0.549910 0.183383
C18   C     C_R   0.097121 0.080274 0.542157 -0.051759
C19   C     C_R   0.972305 0.891998 0.531602 -0.114010
C20   C     C_R   0.131079 0.934553 0.577368 0.535915
C21   C     C_R   0.191764 0.023033 0.576751 -0.198660
C22   C     C_R   0.906194 0.796119 0.521015 0.308099
H27   H     H_    0.317122 0.047603 0.607840 0.238476
C23   C     C_R   0.744696 0.766824 0.476234 -0.379602
C24   C     C_R   0.907469 0.197072 0.462929 0.155241
C25   C     C_R   0.840414 0.102161 0.453010 -0.051987
C26   C     C_R   0.936003 0.044942 0.497112 0.132912
C27   C     C_R   0.686359 0.058943 0.400620 -0.056313
C28   C     C_R   0.619966 0.972795 0.409369 -0.124687
C29   C     C_R   0.711711 0.916446 0.450625 0.035195
C30   C     C_R   0.873908 0.950688 0.492493 0.067833
C31   C     C_R   0.646133 0.825405 0.445497 0.196623
C32   C     C_R   0.067317 0.226628 0.510457 -0.458632
H28   H     H_    0.497040 0.947621 0.373764 0.201159
H29   H     H_    0.691257 0.697191 0.469392 0.156373
H30   H     H_    0.121900 0.293531 0.510776 0.165273
C33   C     C_R   0.230481 0.480936 0.768913 -0.607746
C34   C     C_R   0.146878 0.427437 0.820033 0.057051
C35   C     C_R   0.232144 0.411898 0.902573 0.443717
C36   C     C_R   0.381222 0.468408 0.946340 0.071441
C37   C     C_R   0.466818 0.516274 0.890036 -0.209604
C38   C     C_R   0.397060 0.517503 0.799141 0.183417
C39   C     C_R   0.605979 0.522567 0.086241 -0.202580
C40   C     C_R   0.660519 0.551920 0.180548 0.345758
C41   C     C_R   0.406812 0.481801 0.209442 0.207164
C42   C     C_R   0.340585 0.467200 0.114280 0.433964
C43   C     C_R   0.442902 0.482830 0.049571 -0.004242
C44   C     C_R   0.560915 0.531842 0.241813 -0.528703
H31   H     H_    0.692913 0.533680 0.042960 0.189518
H32   H     H_    0.584334 0.557434 0.915962 0.167227
H33   H     H_    0.606877 0.551600 0.315132 0.174777
Cl1   Cl    Cl    0.330366 0.681407 0.132983 -0.633042
C45   C     C_2   0.901226 0.201494 0.094977 1.218419
O25   O     O_2   0.922149 0.259496 0.049124 -0.443213
O26   O     O_R   0.975804 0.127302 0.082037 -0.771644
H34   H     H_    0.047741 0.130934 0.035052 0.383079
C46   C     C_2   0.221256 0.699214 0.798075 0.819765
O27   O     O_2   0.275766 0.679173 0.730462 -0.649266
O28   O     O_R   0.294461 0.687763 0.885226 -0.752550
H35   H     H_    0.410681 0.680918 0.889675 0.354285
Cl2   Cl    Cl    0.925561 0.669536 0.818258 -0.525474
Cl3   Cl    Cl    0.213475 0.088908 0.356352 -0.570293
Cl4   Cl    Cl    0.774912 0.820877 0.719470 -0.619728
Cl5   Cl    Cl    0.490292 0.738097 0.613892 -0.527923
Cl6   Cl    Cl    0.634286 0.866171 0.906135 -0.510089
Cl7   Cl    Cl    0.702142 0.053777 0.659869 -0.544303
Cl8   Cl    Cl    0.287727 0.125701 0.914817 -0.604134
Cl9   Cl    Cl    0.561092 0.269087 0.929022 -0.502762
Cl10  Cl    Cl    0.561777 0.088334 0.845168 -0.483143
Cl11  Cl    Cl    0.267386 0.891996 0.648275 -0.608216
C47   C     C_2   0.606846 0.084219 0.316403 1.073475
O29   O     O_2   0.521900 0.140076 0.320265 -0.566634
O30   O     O_R   0.604870 0.031452 0.231731 -0.816313
H36   H     H_    0.530646 0.047505 0.179003 0.347332
Cl12  Cl    Cl    0.170413 0.310515 0.937472 -0.536922
Cl13  Cl    Cl    0.129082 0.453472 0.083887 -0.424354
Cl14  Cl    Cl    0.016955 0.879906 0.306062 -0.611421
C48   C     C_2   0.139076 0.495821 0.682716 1.222379
O31   O     O_2   0.038293 0.543207 0.684730 -0.537707
O32   O     O_R   0.142156 0.442806 0.600429 -0.728298
H37   H     H_    0.225858 0.404800 0.610343 0.264154
C49   C     C_2   0.812227 0.371591 0.213610 1.113603
O33   O     O_2   0.791168 0.379898 0.133180 -0.533646
O34   O     O_R   0.820672 0.445172 0.281037 -0.747096
H38   H     H_    0.750403 0.432595 0.326936 0.306497

loop_
_geom_bond_atom_site_label_1
_geom_bond_atom_site_label_2
_geom_bond_distance
_ccdc_geom_bond_type
C18   C26   1.411916 A    
C7    H10   1.111909 S    
C37   C38   1.397493 A    
C26   C30   1.455303 A    
C8    C9    1.533091 S    
O12   Ba2   2.881335 S    
C33   C34   1.405820 A    
C12   H18   1.110227 S    
C17   C18   1.413119 A    
Ba1   O16   2.818064 S    
C6    C7    1.549290 S    
C11   Cl5   1.755033 S    
O2    Ba1   2.985102 S    
O6    C10   1.410594 S    
C2    H3    1.103925 S    
P5    C34   1.885069 S    
C46   O28   1.400517 S    
C12   Cl6   1.791575 S    
C7    H9    1.108746 S    
C25   C27   1.420229 A    
C12   H19   1.081205 S    
C42   C43   1.434955 A    
C10   Cl1   1.776505 S    
O26   H34   1.012996 S    
C11   C12   1.541030 S    
C2    C3    1.526200 S    
P7    O22   1.797659 S    
C8    H12   1.102838 S    
P2    O10   1.752544 S    
C17   C32   1.398418 A    
C28   H28   1.078094 S    
O3    Ba1   2.861286 S    
C24   C32   1.401519 A    
O2    Ba2   2.882671 S    
C1    H1    1.110416 S    
C6    Cl2   1.751384 S    
P3    O11   1.750987 S    
P2    C41   1.858335 S    
P1    Ba1   3.450537 S    
C4    H6    1.097077 S    
O7    Ba1   2.811512 S    
C1    C10   1.520828 S    
C19   C30   1.449966 A    
C33   C38   1.417306 A    
O10   C8    1.396853 S    
P4    O13   1.603846 S    
O19   C13   1.409822 S    
P8    C17   1.891138 S    
Ba1   Ba2   4.708362 S    
P7    C38   1.881478 S    
C21   H27   1.078058 S    
Ba1   O20   2.997927 S    
O17   Ba2   2.839097 S    
P5    O17   1.746053 S    
C41   C44   1.386926 A    
C20   Cl11  1.718298 S    
O3    P6    1.736537 S    
C14   H23   1.107393 S    
C13   C14   1.530978 S    
O32   H37   0.999097 S    
C14   Cl7   1.784248 S    
C1    H17   1.110249 S    
C25   C26   1.450295 A    
O34   H38   1.008619 S    
C37   H32   1.076940 S    
C24   C25   1.462412 A    
C6    C46   1.446956 S    
C4    O15   1.398697 S    
P1    O5    1.805182 S    
P7    O21   1.570078 D    
P1    O2    1.603819 S    
C23   H29   1.082313 S    
C13   H22   1.108970 S    
P4    C24   1.935481 S    
C2    Cl14  1.772954 S    
C11   Cl4   1.735391 S    
P8    O24   1.759627 S    
C9    H14   1.100347 S    
C5    C45   1.505728 S    
P6    C31   1.859733 S    
C19   C22   1.473354 A    
C16   Cl10  1.772665 S    
C29   C31   1.414495 A    
C35   C36   1.419685 A    
P3    O9    1.546054 D    
P5    O19   1.754527 S    
P8    O23   1.545110 D    
O11   C2    1.402018 S    
C35   Cl12  1.756677 S    
C4    C49   1.493291 S    
C5    H7    1.112180 S    
C3    H4    1.111470 S    
C48   O32   1.379187 S    
O13   Ba2   2.986134 S    
P4    O12   1.561548 D    
C3    H5    1.111148 S    
C32   H30   1.063658 S    
O14   P8    1.745474 S    
C22   C23   1.401570 A    
O30   H36   1.014409 S    
C16   Cl9   1.782653 S    
C11   O22   1.427520 S    
C19   C20   1.420671 A    
C47   O29   1.210395 D    
C33   C48   1.463339 S    
C40   C44   1.391353 A    
P2    O20   1.556789 S    
C10   H16   1.112353 S    
C45   O25   1.218840 D    
P5    O18   1.550542 D    
C14   H24   1.110027 S    
Ba2   O21   2.811588 S    
C36   C43   1.519675 S    
C7    H11   1.106607 S    
O16   P7    1.796701 S    
P3    O8    1.745864 S    
C20   C21   1.384919 A    
C47   O30   1.395920 S    
C15   O24   1.406038 S    
C39   C43   1.413246 A    
O28   H35   1.007704 S    
O14   Ba2   2.860578 S    
P3    C40   1.831194 S    
C5    H8    1.099696 S    
C41   C42   1.414038 A    
O16   Ba2   2.996993 S    
Ba2   O20   2.817538 S    
C44   H33   1.082637 S    
C39   H31   1.077579 S    
C13   H21   1.111024 S    
C3    H20   1.111109 S    
P1    C22   1.936506 S    
O6    P6    1.752465 S    
C15   H25   1.104357 S    
C9    H15   1.110877 S    
C46   O27   1.204102 D    
C15   H26   1.111735 S    
P2    O7    1.565507 D    
C18   C21   1.386565 A    
C29   C30   1.405647 A    
C15   C16   1.542791 S    
P2    Ba1   3.418187 S    
P4    Ba2   3.451202 S    
P1    O1    1.561204 D    
Ba1   O13   2.881982 S    
C36   C37   1.423597 A    
C8    H13   1.095706 S    
C49   O34   1.383880 S    
C4    C5    1.549119 S    
C48   O31   1.214110 D    
C9    Cl3   1.767655 S    
P4    O15   1.766919 S    
O5    C6    1.432825 S    
C27   C28   1.396437 A    
C1    H2    1.108669 S    
C34   C35   1.401001 A    
C39   C40   1.393119 A    
C16   Cl8   1.781467 S    
C49   O33   1.219060 D    
O4    P6    1.548339 D    
O1    Ba1   2.880820 S    
C23   C31   1.403738 A    
C27   C47   1.467471 S    
O8    Ba1   2.838553 S    
C28   C29   1.401754 A    
C42   Cl13  1.760134 S    
C45   O26   1.397294 S    
