data_mof_unit_5809.cif
_audit_creation_date              2013-03-05T15:48:19-0500
_audit_creation_method            fapswitch 2.2
_symmetry_space_group_name_H-M    P1
_symmetry_Int_Tables_number       1
_space_group_crystal_system       triclinic
_cell_length_a                    21.048114
_cell_length_b                    7.251559
_cell_length_c                    18.395161
_cell_angle_alpha                 90.009868
_cell_angle_beta                  93.414839
_cell_angle_gamma                 90.049437
_cell_volume                      2802.69726174

loop_
_atom_site_label
_atom_site_type_symbol
_atom_site_description
_atom_site_fract_x
_atom_site_fract_y
_atom_site_fract_z
_atom_type_partial_charge
O1    O     O_R   0.448880 0.506250 0.415280 -0.578457
O2    O     O_R   0.551120 0.006250 0.584720 -0.580727
O3    O     O_R   0.434830 0.174000 0.557310 -0.564180
O4    O     O_R   0.565170 0.674000 0.442690 -0.564617
C1    C     C_R   0.417044 0.344486 0.579702 0.920658
C2    C     C_R   0.582963 0.844559 0.420318 0.921599
O5    O     O_R   0.441680 0.176440 0.414130 -0.580113
O6    O     O_R   0.558320 0.676440 0.585870 -0.579561
O7    O     O_R   0.558020 0.007570 0.440520 -0.563148
O8    O     O_R   0.441980 0.507570 0.559480 -0.562235
C3    C     C_R   0.427773 0.344941 0.388911 0.915090
C4    C     C_R   0.572287 0.844886 0.611039 0.912920
O9    O     O_3   0.538160 0.339670 0.508820 -0.275647
O10   O     O_3   0.461840 0.839670 0.491180 -0.273953
V1    V     V_3+5 0.492920 0.064260 0.498360 1.156354
V2    V     V_3+5 0.507080 0.564260 0.501640 1.156165
C5    C     C_R   0.870358 0.045835 0.695499 -0.182367
C6    C     C_R   0.121100 0.384903 0.309366 -0.177145
H1    H     H_    0.957448 0.085443 0.759515 0.113876
H2    H     H_    0.032540 0.397737 0.245974 0.111215
H3    H     H_    0.790279 0.055953 0.580362 0.131360
H4    H     H_    0.199293 0.358483 0.426045 0.130746
H5    H     H_    0.889698 0.106655 0.647712 0.118659
H6    H     H_    0.097542 0.366734 0.359702 0.118126
C7    C     C_R   0.887180 0.946366 0.820262 -0.136938
C8    C     C_R   0.112487 0.437072 0.179691 -0.127137
C9    C     C_R   0.579738 0.803962 0.742229 -0.263450
C10   C     C_R   0.422011 0.338541 0.256558 -0.264992
C11   C     C_R   0.611052 0.795729 0.811188 -0.044361
C12   C     C_R   0.390948 0.339840 0.187440 -0.042748
C13   C     C_R   0.677627 0.833293 0.818803 0.297618
C14   C     C_R   0.323518 0.359246 0.180502 0.294158
C15   C     C_R   0.712471 0.876737 0.755760 -0.075399
C16   C     C_R   0.287557 0.379469 0.244294 -0.077202
C17   C     C_R   0.676740 0.891549 0.686805 0.079476
C18   C     C_R   0.321905 0.367753 0.314145 0.079568
C19   C     C_R   0.780481 0.913052 0.757505 0.110115
C20   C     C_R   0.218952 0.402753 0.242792 0.109937
C21   C     C_R   0.806734 0.987554 0.694082 0.185753
C22   C     C_R   0.187797 0.384718 0.309145 0.182664
C23   C     C_R   0.769834 0.003584 0.629009 -0.225614
C24   C     C_R   0.222965 0.367874 0.375410 -0.224495
C25   C     C_R   0.706651 0.950992 0.624795 -0.175674
C26   C     C_R   0.288748 0.365506 0.378125 -0.166932
C27   C     C_R   0.824352 0.878613 0.818310 -0.151051
C28   C     C_R   0.179291 0.445235 0.179312 -0.142824
C29   C     C_R   0.909347 0.031756 0.758778 -0.154676
C30   C     C_R   0.083903 0.404604 0.244869 -0.162615
C31   C     C_R   0.611028 0.849659 0.680771 -0.161903
C32   C     C_R   0.389068 0.352552 0.319217 -0.160277
H7    H     H_    0.812170 0.798806 0.864585 0.178266
H8    H     H_    0.198036 0.489662 0.129219 0.171968
H9    H     H_    0.528814 0.780506 0.735915 0.132174
H10   H     H_    0.473178 0.319389 0.262259 0.132939
H11   H     H_    0.680658 0.963726 0.572446 0.110485
H12   H     H_    0.313541 0.355150 0.431266 0.099948
C33   C     C_1   0.864429 0.938929 0.131965 -0.272158
C34   C     C_1   0.135604 0.439115 0.868059 -0.274698
C35   C     C_1   0.821530 0.924858 0.175660 0.079810
C36   C     C_1   0.178518 0.425021 0.824386 0.079886
C37   C     C_1   0.770934 0.905719 0.227752 0.001984
C38   C     C_1   0.229125 0.405794 0.772315 0.001736
C39   C     C_1   0.728384 0.889078 0.271758 -0.006228
C40   C     C_1   0.271674 0.389057 0.728317 -0.007457
C41   C     C_1   0.677888 0.869945 0.323974 0.055667
C42   C     C_1   0.322157 0.369811 0.676093 0.055095
C43   C     C_1   0.635131 0.855892 0.367846 -0.307489
C44   C     C_1   0.364896 0.355711 0.632203 -0.308012
O11   O     O_R   0.058070 0.289240 0.940580 -0.564498
O12   O     O_R   0.941930 0.789240 0.059420 -0.564969
O13   O     O_R   0.058330 0.616740 0.085880 -0.584329
O14   O     O_R   0.941670 0.116740 0.914120 -0.575757
C45   C     C_R   0.071941 0.448546 0.111557 0.923434
C46   C     C_R   0.928154 0.948915 0.888317 0.928532
O15   O     O_R   0.065180 0.619040 0.942700 -0.566107
O16   O     O_R   0.934820 0.119040 0.057300 -0.565206
O17   O     O_R   0.948870 0.787780 0.915270 -0.586960
O18   O     O_R   0.051130 0.287780 0.084730 -0.571540
C47   C     C_R   0.083232 0.450396 0.920283 0.941765
C48   C     C_R   0.916779 0.950326 0.079720 0.947233
O19   O     O_3   0.961870 0.453310 0.991210 -0.272654
O20   O     O_3   0.038130 0.953310 0.008790 -0.269104
V3    V     V_3+5 0.007070 0.728770 0.001630 1.184769
V4    V     V_3+5 0.992930 0.228770 0.998370 1.193111
N1    N     N_R   0.707524 0.838938 0.890669 0.197960
O21   O     O_R   0.709308 0.691684 0.931186 -0.410583
O22   O     O_R   0.727890 0.995209 0.918108 -0.429179
N2    N     N_R   0.292623 0.344994 0.109286 0.199831
O23   O     O_R   0.256978 0.202681 0.092362 -0.426415
O24   O     O_R   0.304342 0.465589 0.059401 -0.428235
C49   C     C_R   0.570528 0.754758 0.873671 0.183512
C50   C     C_R   0.519664 0.627916 0.864200 -0.186456
C51   C     C_R   0.474411 0.611759 0.916291 -0.094250
C52   C     C_R   0.481881 0.710055 0.981308 -0.076679
C53   C     C_R   0.534865 0.823281 0.994405 -0.181282
C54   C     C_R   0.576946 0.853533 0.939686 -0.069492
H13   H     H_    0.513567 0.545144 0.815287 0.122178
H14   H     H_    0.434180 0.519968 0.906846 0.141310
H15   H     H_    0.447340 0.695375 0.022226 0.148662
H16   H     H_    0.541544 0.895158 0.045847 0.144508
H17   H     H_    0.612680 0.958979 0.948747 0.163589
C55   C     C_R   0.431445 0.314984 0.123956 0.168359
C56   C     C_R   0.491177 0.403671 0.123550 -0.203758
C57   C     C_R   0.531581 0.372286 0.067322 -0.079839
C58   C     C_R   0.511359 0.262063 0.008326 -0.099962
C59   C     C_R   0.451938 0.176179 0.007122 -0.170874
C60   C     C_R   0.413625 0.194979 0.066048 -0.051147
H18   H     H_    0.506776 0.497580 0.166779 0.124677
H19   H     H_    0.577518 0.439698 0.068018 0.146889
H20   H     H_    0.541557 0.244384 0.963257 0.131641
H21   H     H_    0.436389 0.090045 0.961413 0.143046
H22   H     H_    0.370654 0.113691 0.066218 0.164732

loop_
_geom_bond_atom_site_label_1
_geom_bond_atom_site_label_2
_geom_bond_distance
_ccdc_geom_bond_type
C42   C44   1.248270 T    
C58   H20   1.081968 S    
C39   C41   1.480839 S    
C51   C52   1.392945 A    
C13   N1    1.430433 S    
C9    C11   1.395549 A    
O14   C46   1.330568 A    
C60   H22   1.079329 S    
C53   C54   1.397055 A    
O1    C3    1.331981 A    
O2    C4    1.333238 A    
O16   V4    1.860330 S    
C2    O7    1.354702 A    
C4    C31   1.478800 S    
O3    V1    1.861042 S    
C21   C23   1.392503 A    
N1    O21   1.301598 A    
O5    C3    1.333622 A    
C5    H5    1.084153 S    
C6    H6    1.084071 S    
C57   H19   1.082466 S    
H1    C29   1.083731 S    
C33   C35   1.248248 T    
C59   C60   1.395738 A    
O17   V3    1.994171 S    
C34   C36   1.248328 T    
C14   N2    1.431101 S    
C28   H8    1.073198 S    
C8    C45   1.476097 S    
C36   C38   1.480990 S    
C7    C46   1.477389 S    
C5    C21   1.402685 A    
C37   C39   1.248270 T    
C6    C22   1.404085 A    
C38   C40   1.248340 T    
C49   C54   1.409233 A    
C10   C32   1.383808 A    
C41   C43   1.248207 T    
C46   O17   1.332897 A    
C17   C31   1.413707 A    
C45   O18   1.329539 A    
C13   C15   1.443289 A    
C56   H18   1.082690 S    
C12   C14   1.424485 A    
C17   C25   1.403064 A    
C7    C29   1.393870 A    
C8    C30   1.393090 A    
O5    V1    2.007116 S    
O6    V2    2.006147 S    
C54   H17   1.078063 S    
C23   C25   1.380909 A    
C33   C48   1.506842 S    
C55   C56   1.412108 A    
C24   C26   1.382652 A    
C1    C44   1.506826 S    
C57   C58   1.393501 A    
C50   H13   1.082703 S    
O13   V3    2.007152 S    
C59   H21   1.082093 S    
N1    O22   1.302264 A    
C35   C37   1.480866 S    
O12   C48   1.344867 A    
C5    C29   1.387527 A    
O4    C2    1.362742 A    
C49   C50   1.413709 A    
O13   C45   1.333206 A    
C10   H10   1.084864 S    
C53   H16   1.081998 S    
C15   C19   1.453747 A    
C14   C16   1.441330 A    
O4    V2    1.860301 S    
O12   V3    1.837588 S    
C26   H12   1.082987 S    
O6    C4    1.332598 A    
C12   C55   1.497199 S    
C55   C60   1.408631 A    
O1    V2    1.992060 S    
O14   V4    2.006187 S    
O2    V1    1.992624 S    
H2    C30   1.083602 S    
C34   C47   1.506973 S    
H3    C23   1.084382 S    
C25   H11   1.082812 S    
C2    C43   1.506725 S    
N2    O24   1.301741 A    
O11   C47   1.344707 A    
C19   C27   1.429536 A    
C7    C27   1.408788 A    
C11   C49   1.501133 S    
O19   V4    1.757170 S    
C18   C32   1.415575 A    
C16   C20   1.452616 A    
O16   C48   1.352450 A    
O3    C1    1.362791 A    
C6    C30   1.389451 A    
C9    H9    1.084516 S    
C58   C59   1.395696 A    
C10   C12   1.394674 A    
O7    V1    1.831141 S    
C1    O8    1.354534 A    
C19   C21   1.426490 A    
O11   V4    1.837110 S    
O8    V2    1.830691 S    
C20   C22   1.425552 A    
O15   V3    1.861073 S    
H4    C24   1.084299 S    
C52   H15   1.082365 S    
C22   C24   1.393345 A    
C50   C51   1.395613 A    
C15   C17   1.439651 A    
C16   C18   1.438888 A    
C52   C53   1.393646 A    
C20   C28   1.428209 A    
C18   C26   1.403676 A    
C8    C28   1.407721 A    
O18   V4    1.993596 S    
N2    O23   1.302143 A    
C11   C13   1.425943 A    
O20   V3    1.756080 S    
O9    V2    1.757680 S    
C56   C57   1.396372 A    
C3    C32   1.478526 S    
C27   H7    1.072932 S    
O10   V1    1.756591 S    
O15   C47   1.352503 A    
C51   H14   1.082481 S    
C9    C31   1.382063 A    
C40   C42   1.480943 S    
