data_mof_unit_34690.cif
_audit_creation_date              2012-10-26T21:17:40-0400
_audit_creation_method            fapswitch 2.2
_symmetry_space_group_name_H-M    P1
_symmetry_Int_Tables_number       1
_space_group_crystal_system       triclinic
_cell_length_a                    10.802015
_cell_length_b                    9.093769
_cell_length_c                    7.795112
_cell_angle_alpha                 89.958138
_cell_angle_beta                  90.000381
_cell_angle_gamma                 89.999666
_cell_volume                      765.721669648

loop_
_atom_site_label
_atom_site_type_symbol
_atom_type_description
_atom_site_fract_x
_atom_site_fract_y
_atom_site_fract_z
_atom_type_partial_charge
C1    C     C_R   0.500000 0.220051 0.500026 0.552302
C2    C     C_R   0.065467 0.625206 0.594920 0.025292
C3    C     C_R   0.128599 0.515780 0.499976 0.004903
C4    C     C_R   0.871401 0.515779 0.499980 0.004902
C5    C     C_R   0.063829 0.413779 0.401020 -0.146858
C6    C     C_R   0.936173 0.413779 0.401021 -0.146857
C7    C     C_1   0.500000 0.065361 0.500087 -0.053795
C8    C     C_1   0.500000 0.934604 0.499993 -0.058153
C9    C     C_R   0.500000 0.779943 0.499955 0.533033
C10   C     C_R   0.262021 0.505402 0.500063 0.530157
C11   C     C_R   0.737979 0.505402 0.500064 0.530158
C12   C     C_R   0.129143 0.737407 0.684455 -0.100196
C13   C     C_R   0.870855 0.737402 0.684466 -0.100197
C14   C     C_R   0.064363 0.845436 0.774038 -0.117942
C15   C     C_R   0.935632 0.845433 0.774045 -0.117944
C16   C     C_R   0.934532 0.625205 0.594923 0.025292
Cu1   Cu    Cu3+1 0.500000 0.500000 0.669080 1.006935
Cu2   Cu    Cu3+1 0.500000 0.500000 0.330920 1.019510
H1    H     H_    0.112508 0.331411 0.326512 0.130324
H2    H     H_    0.887495 0.331411 0.326514 0.130324
H3    H     H_    0.228968 0.744994 0.683631 0.138329
H4    H     H_    0.771030 0.744986 0.683650 0.138335
H5    H     H_    0.114303 0.930679 0.841858 0.121479
H6    H     H_    0.885692 0.930672 0.841872 0.121478
N1    N     N_1   0.500000 0.500000 0.076820 -0.079136
N2    N     N_1   0.500000 0.500000 0.923180 -0.080452
O1    O     O_R   0.500000 0.288390 0.642760 -0.492289
O2    O     O_R   0.500000 0.711610 0.642760 -0.514151
O3    O     O_R   0.500000 0.288370 0.357190 -0.495964
O4    O     O_R   0.500000 0.711630 0.357190 -0.493290
O5    O     O_R   0.319650 0.500000 0.642810 -0.507313
O6    O     O_R   0.680350 0.500000 0.642810 -0.507317
O7    O     O_R   0.319630 0.500000 0.357240 -0.500448
O8    O     O_R   0.680370 0.500000 0.357240 -0.500447

loop_
_geom_bond_atom_site_label_1
_geom_bond_atom_site_label_2
_ccdc_geom_bond_type
C14   H5    S    
C4    C16   A    
Cu2   O4    S    
C6    H2    S    
C2    C12   A    
C1    O3    A    
C2    C3    A    
C7    C8    T    
C1    O1    A    
C3    C10   S    
C4    C11   S    
Cu2   O8    S    
Cu2   N1    S    
C9    O4    A    
C5    H1    S    
Cu1   N2    S    
C12   H3    S    
C15   H6    S    
C13   H4    S    
C12   C14   A    
C11   O6    A    
Cu1   Cu2   S    
C10   O7    A    
C13   C15   A    
C5    C6    A    
Cu1   O5    S    
Cu2   O7    S    
Cu1   O1    S    
C2    C16   A    
C4    C6    A    
C13   C16   A    
Cu2   O3    S    
Cu1   O6    S    
C14   C15   A    
N1    N2    T    
C1    C7    S    
Cu1   O2    S    
C10   O5    A    
C11   O8    A    
C9    O2    A    
C8    C9    S    
C3    C5    A    
