data_mof_unit_37570.cif
_audit_creation_date              2012-12-10T16:54:05-0500
_audit_creation_method            fapswitch 2.2
_symmetry_space_group_name_H-M    P1
_symmetry_Int_Tables_number       1
_space_group_crystal_system       triclinic
_cell_length_a                    9.69049
_cell_length_b                    10.918659
_cell_length_c                    13.430541
_cell_angle_alpha                 90.239208
_cell_angle_beta                  72.991574
_cell_angle_gamma                 90.268561
_cell_volume                      1358.87245007

loop_
_atom_site_label
_atom_site_type_symbol
_atom_type_description
_atom_site_fract_x
_atom_site_fract_y
_atom_site_fract_z
_atom_type_partial_charge
C1    C     C_R   0.499095 0.734579 0.503340 0.808275
C2    C     C_R   0.440460 0.559275 0.976104 0.069203
C3    C     C_R   0.484939 0.570152 0.866025 0.053863
C4    C     C_R   0.547454 0.540671 0.027837 0.081275
C5    C     C_R   0.693810 0.534067 0.968137 0.159020
C6    C     C_R   0.735283 0.571768 0.864664 -0.291213
C7    C     C_R   0.630954 0.602656 0.816269 -0.128125
C8    C     C_R   0.514319 0.525676 0.136023 -0.248132
C9    C     C_R   0.765699 0.482640 0.121453 0.001323
C10   C     C_R   0.381352 0.549643 0.810948 -0.080305
C11   C     C_2   0.626297 0.063662 0.459478 0.039140
C12   C     C_R   0.424122 0.515923 0.698859 0.810690
C13   C     C_2   0.508266 0.134253 0.472779 -0.349606
C14   C     C_2   0.610580 0.929916 0.458060 -0.236866
C15   C     C_2   0.496860 0.866263 0.517626 -0.138983
C16   C     C_2   0.103202 0.564664 0.437920 -0.040369
C17   C     C_2   0.945763 0.571271 0.443155 0.047309
C18   C     C_R   0.503585 0.265801 0.491000 0.894626
C19   C     C_R   0.577396 0.498277 0.299512 0.796325
C20   C     C_R   0.799129 0.498351 0.013937 -0.227205
C21   C     C_R   0.621969 0.501969 0.184375 -0.124200
C22   C     C_R   0.234283 0.556734 0.865774 -0.163454
C23   C     C_R   0.191171 0.572927 0.973114 -0.109516
C24   C     C_R   0.291402 0.567198 0.028707 -0.152499
Cu1   Cu    Cu3+1 0.361370 0.499980 0.499980 0.983766
Cu2   Cu    Cu3+1 0.638630 0.500020 0.500020 1.018312
H1    H     H_    0.406064 0.092006 0.474003 0.154615
H2    H     H_    0.697555 0.880847 0.402608 0.161794
H3    H     H_    0.178603 0.618312 0.378284 0.156950
H4    H     H_    0.080734 0.457225 0.562026 0.190583
H5    H     H_    0.915083 0.637683 0.393746 0.183939
H6    H     H_    0.876048 0.433802 0.543673 0.191781
H7    H     H_    0.848801 0.587001 0.826178 0.141253
H8    H     H_    0.908553 0.484339 0.965168 0.134470
H9    H     H_    0.404861 0.534084 0.184671 0.158975
H10   H     H_    0.152343 0.550293 0.825768 0.153308
H11   H     H_    0.248661 0.571574 0.112213 0.146930
H12   H     H_    0.078888 0.585830 0.014410 0.152965
N1    N     N_2   0.152660 0.501340 0.501130 -0.285147
N2    N     N_2   0.846520 0.501370 0.501160 -0.287340
O1    O     O_R   0.382960 0.678040 0.499980 -0.554558
O2    O     O_R   0.617100 0.678080 0.500020 -0.553298
O3    O     O_R   0.325800 0.499940 0.650950 -0.574695
O4    O     O_R   0.559930 0.499980 0.650990 -0.591378
O5    O     O_R   0.382900 0.321920 0.499980 -0.572663
O6    O     O_R   0.617040 0.321960 0.500020 -0.545700
O7    O     O_R   0.440070 0.500020 0.349010 -0.593560
O8    O     O_R   0.674200 0.500060 0.349050 -0.539472
C25   C     C_2   0.884501 0.445323 0.162679 0.857272
O9    O     O_2   0.932670 0.517164 0.214190 -0.630693
O10   O     O_R   0.948921 0.330998 0.135356 -0.730963
H13   H     H_    0.033176 0.317517 0.164374 0.332896
C26   C     C_2   0.383297 0.917992 0.607939 0.892348
O11   O     O_2   0.261024 0.875517 0.631713 -0.566305
O12   O     O_R   0.417722 0.010721 0.668919 -0.717481
H14   H     H_    0.331727 0.036825 0.728605 0.340469
C27   C     C_2   0.668822 0.694362 0.730214 0.954809
O13   O     O_2   0.577037 0.766589 0.722019 -0.555238
O14   O     O_R   0.807599 0.704423 0.660676 -0.692886
H15   H     H_    0.874470 0.635436 0.665511 0.280293
C28   C     C_2   0.775876 0.112219 0.434760 0.896745
O15   O     O_2   0.861022 0.065862 0.474967 -0.557297
O16   O     O_R   0.821931 0.205550 0.361358 -0.736997
H16   H     H_    0.926127 0.230058 0.351435 0.330620

loop_
_geom_bond_atom_site_label_1
_geom_bond_atom_site_label_2
_ccdc_geom_bond_type
C2    C4    A    
O12   H14   S    
Cu2   N2    S    
C11   C28   S    
C6    C7    A    
C1    C15   S    
Cu1   O5    S    
C23   H12   S    
C22   H10   S    
Cu1   O7    S    
C9    C20   A    
C6    H7    S    
Cu2   O8    S    
C4    C8    A    
C20   H8    S    
Cu1   O3    S    
H6    N2    S    
C24   H11   S    
C16   H3    S    
Cu2   O4    S    
O14   H15   S    
C12   O4    A    
C3    C10   A    
C26   O11   D    
C10   C22   A    
C11   C13   D    
C9    C21   A    
C27   O13   D    
C5    C6    A    
C10   C12   S    
C13   C18   S    
C18   O6    A    
C1    O1    A    
C19   C21   S    
H4    N1    S    
C2    C3    A    
C12   O3    A    
C3    C7    A    
C5    C20   A    
C26   O12   S    
C2    C24   A    
C28   O15   D    
C17   H5    S    
C11   C14   S    
C19   O7    A    
C27   O14   S    
C16   C17   S    
Cu2   O6    S    
C16   N1    D    
O16   H16   S    
C18   O5    A    
C15   C26   S    
C1    O2    A    
C9    C25   S    
Cu2   O2    S    
C25   O9    D    
Cu1   O1    S    
C28   O16   S    
C14   C15   D    
C13   H1    S    
C23   C24   A    
C14   H2    S    
Cu1   Cu2   S    
C19   O8    A    
C17   N2    D    
C7    C27   S    
C22   C23   A    
Cu1   N1    S    
O10   H13   S    
C4    C5    A    
C25   O10   S    
C8    H9    S    
C8    C21   A    
