data_mof_unit_41204.cif
_audit_creation_date              2013-03-05T15:43:18-0500
_audit_creation_method            fapswitch 2.2
_symmetry_space_group_name_H-M    P1
_symmetry_Int_Tables_number       1
_space_group_crystal_system       triclinic
_cell_length_a                    8.402534
_cell_length_b                    15.355282
_cell_length_c                    27.027516
_cell_angle_alpha                 98.218954
_cell_angle_beta                  94.410425
_cell_angle_gamma                 79.396883
_cell_volume                      3387.83983526

loop_
_atom_site_label
_atom_site_type_symbol
_atom_site_description
_atom_site_fract_x
_atom_site_fract_y
_atom_site_fract_z
_atom_type_partial_charge
P1    P     P_3+3 0.070480 0.574800 0.610950 0.472730
O1    O     O_2   0.905540 0.548000 0.618290 -0.354070
O2    O     O_3   0.137550 0.547930 0.558110 -0.443071
O3    O     O_3   0.688580 0.383890 0.587540 -0.377311
O4    O     O_2   0.746706 0.486654 0.673436 -0.382394
O5    O     O_3   0.033143 0.690701 0.626851 -0.519859
O6    O     O_3   0.804983 0.315249 0.677886 -0.472540
H1    H     H_    0.720048 0.219505 0.625200 0.081848
C1    C     C_3   0.839208 0.160755 0.689011 -0.899497
H2    H     H_    0.956972 0.142194 0.671066 0.287595
H3    H     H_    0.860847 0.179323 0.729898 0.259000
P2    P     P_3+3 0.668430 0.292880 0.460530 0.520040
P3    P     P_3+3 0.152929 0.219954 0.557996 0.482215
O7    O     O_2   0.848360 0.279400 0.474970 -0.394018
O8    O     O_3   0.104690 0.337720 0.562900 -0.400836
O9    O     O_2   0.007829 0.180430 0.531233 -0.356157
O10   O     O_3   0.657555 0.283936 0.394466 -0.568230
O11   O     O_3   0.158052 0.189205 0.617868 -0.501385
C2    C     C_3   0.281660 0.224596 0.647260 0.389024
H4    H     H_    0.246950 0.298394 0.655405 0.101252
H5    H     H_    0.398615 0.206819 0.628464 -0.009502
C3    C     C_3   0.304474 0.185118 0.696354 -0.853182
H6    H     H_    0.191472 0.204404 0.717039 0.284212
H7    H     H_    0.334720 0.111075 0.688881 0.250235
C4    C     C_3   0.268841 0.282055 0.337003 0.392147
H8    H     H_    0.214857 0.316216 0.304683 0.113720
H9    H     H_    0.392303 0.297262 0.346222 0.189238
C5    C     C_3   0.285046 0.181881 0.320257 -0.809249
H10   H     H_    0.171681 0.165619 0.300390 0.259520
H11   H     H_    0.384171 0.159738 0.293954 0.271423
H12   H     H_    0.311962 0.144447 0.352967 0.279615
Ba1   Ba    Ba6+2 0.860900 0.457020 0.523210 1.574833
C6    C     C_3   0.959724 0.732988 0.586682 0.428273
H13   H     H_    0.849731 0.705653 0.572664 0.085950
H14   H     H_    0.045247 0.724586 0.556309 0.106483
C7    C     C_3   0.913045 0.831916 0.605967 -0.896248
H15   H     H_    0.829695 0.840887 0.636988 0.281515
H16   H     H_    0.851270 0.869623 0.576133 0.195757
H17   H     H_    0.023355 0.859966 0.619965 0.276629
C8    C     C_3   0.808261 0.274172 0.372801 1.016253
H18   H     H_    0.870322 0.329262 0.389906 -0.020472
C9    C     C_3   0.916612 0.182990 0.377662 -0.802311
H19   H     H_    0.909265 0.159940 0.413890 0.273719
H20   H     H_    0.044317 0.186382 0.375877 0.211150
H21   H     H_    0.888581 0.130752 0.347226 0.275166
P4    P     P_3+3 0.119230 0.425130 0.389040 0.449161
O12   O     O_2   0.284150 0.451970 0.381680 -0.355666
O13   O     O_3   0.052160 0.451990 0.441880 -0.404608
O14   O     O_3   0.501140 0.616030 0.412450 -0.376664
O15   O     O_3   0.174276 0.308165 0.379537 -0.606186
P5    P     P_3+3 0.036807 0.779431 0.442537 0.479052
O16   O     O_3   0.615020 0.608480 0.525380 -0.395533
O17   O     O_3   0.085020 0.662210 0.437090 -0.392900
O18   O     O_2   0.182376 0.820769 0.467550 -0.384017
O19   O     O_3   0.020848 0.807826 0.381765 -0.505417
Ba2   Ba    Ba6+2 0.328940 0.542910 0.476780 1.590017
P6    P     P_3+3 0.673499 0.402537 0.653188 0.459888
C10   C     C_3   0.733806 0.238351 0.666459 0.428367
H22   H     H_    0.614122 0.249761 0.683104 0.013822
H23   H     H_    0.777228 0.101862 0.682786 0.222125
O20   O     O_3   0.574690 0.391440 0.474610 -0.380041
C11   C     C_3   0.498249 0.684688 0.629160 0.210019
H24   H     H_    0.370221 0.676693 0.619728 0.102375
H25   H     H_    0.581644 0.621049 0.617943 0.080439
C12   C     C_3   0.523515 0.707366 0.685758 0.183528
H26   H     H_    0.513941 0.648439 0.704155 0.057373
H27   H     H_    0.646837 0.723579 0.694900 0.110196
P7    P     P_3+3 0.524976 0.721466 0.540472 0.464405
O21   O     O_2   0.341330 0.720570 0.525000 -0.353814
O22   O     O_3   0.535288 0.753094 0.605331 -0.537177
H28   H     H_    0.404507 0.210061 0.719998 0.243967
C13   C     C_3   0.922194 0.753984 0.351887 0.434872
H29   H     H_    0.998682 0.690442 0.336316 0.109276
H30   H     H_    0.824480 0.738378 0.372893 0.014120
C14   C     C_3   0.839711 0.802439 0.308985 -0.894199
H31   H     H_    0.931353 0.816707 0.285235 0.273078
H32   H     H_    0.760352 0.760505 0.285821 0.246597
H33   H     H_    0.762255 0.865886 0.323806 0.274503
P8    P     P_3+3 0.512814 0.601937 0.347131 0.497831
C15   C     C_3   0.415228 0.771564 0.352378 0.415710
H34   H     H_    0.546362 0.775141 0.357374 0.039694
O23   O     O_2   0.431048 0.521451 0.325849 -0.317637
O24   O     O_3   0.387802 0.692003 0.323058 -0.522169
H35   H     H_    0.364592 0.776957 0.389642 0.158443
H36   H     H_    0.327346 0.913562 0.352209 0.260672
C16   C     C_3   0.330758 0.850434 0.326331 -0.803610
H37   H     H_    0.204361 0.842824 0.314331 0.264160
H38   H     H_    0.396551 0.854283 0.292823 0.239080
C17   C     C_R   0.988487 0.434512 0.175945 0.536687
O25   O     O_2   0.995324 0.365876 0.194573 -0.537691
N1    N     N_R   0.941464 0.516598 0.204411 -0.170410
C18   C     C_R   0.934708 0.594262 0.183030 0.522334
C19   C     C_2   0.754732 0.565433 0.272970 -0.176361
C20   C     C_3   0.728448 0.583021 0.328808 0.064026
C21   C     C_1   0.980408 0.477948 0.341164 0.215564
C22   C     C_2   0.022080 0.480320 0.294659 -0.163082
C23   C     C_2   0.900860 0.521403 0.256732 0.162797
C24   C     C_R   0.017852 0.507761 0.102968 -0.062952
C25   C     C_R   0.026969 0.429149 0.125139 -0.077375
C26   C     C_R   0.073765 0.346584 0.095983 -0.069626
C27   C     C_R   0.971465 0.590784 0.132327 -0.049420
C28   C     C_2   0.834380 0.513651 0.356608 -0.236184
H39   H     H_    0.146277 0.456956 0.284292 0.143458
H40   H     H_    0.082201 0.284771 0.111765 0.173340
C29   C     C_2   0.357587 0.496452 0.648116 -0.423748
C30   C     C_R   0.139766 0.414658 0.971045 0.039771
C31   C     C_R   0.082705 0.579278 0.978437 0.040238
C32   C     C_R   0.129765 0.494835 0.949320 0.086936
C33   C     C_R   0.186993 0.332528 0.940231 -0.197872
C34   C     C_R   0.223076 0.329226 0.890416 -0.079569
C35   C     C_R   0.214205 0.407486 0.868545 -0.053725
C36   C     C_R   0.167302 0.490498 0.897867 -0.063369
C37   C     C_R   0.157907 0.569122 0.875683 -0.075423
C38   C     C_R   0.196259 0.563789 0.824871 0.537390
N2    N     N_R   0.242907 0.481688 0.796358 -0.168540
C39   C     C_R   0.251018 0.404031 0.817845 0.531492
C40   C     C_2   0.429462 0.433067 0.727543 -0.178193
C41   C     C_3   0.457476 0.420480 0.671810 0.060872
C42   C     C_1   0.206851 0.525173 0.660385 0.290950
C43   C     C_2   0.162771 0.520958 0.706355 -0.133439
C44   C     C_2   0.282793 0.476935 0.743978 0.140303
O26   O     O_2   0.288857 0.331498 0.792708 -0.614511
C45   C     C_R   0.102473 0.418966 0.022401 0.040707
C46   C     C_R   0.055467 0.503412 0.051522 0.086288
C47   C     C_R   0.045694 0.583589 0.029815 0.040683
C48   C     C_R   0.110542 0.341445 0.046044 -0.195977
H41   H     H_    0.519661 0.400198 0.752927 0.155153
H42   H     H_    0.258508 0.264213 0.868914 0.171822
H43   H     H_    0.197627 0.268642 0.953293 0.131249
H44   H     H_    0.145109 0.274837 0.027078 0.129796
O27   O     O_2   0.898392 0.666826 0.208282 -0.611522
C49   C     C_R   0.963151 0.669043 0.110504 -0.078355
H45   H     H_    0.664248 0.596885 0.247141 0.155012
H46   H     H_    0.928192 0.734069 0.132043 0.170934
C50   C     C_R   0.074303 0.656802 0.954773 -0.197366
C51   C     C_R   0.110980 0.651677 0.904831 -0.060851
O28   O     O_2   0.189911 0.632467 0.806297 -0.540705
C52   C     C_R   0.999080 0.665731 0.060679 -0.199244
H47   H     H_    0.039421 0.723402 0.973711 0.130924
H48   H     H_    0.102286 0.713493 0.889034 0.178439
H49   H     H_    0.042790 0.553276 0.717777 0.164618
H50   H     H_    0.988973 0.729623 0.047666 0.130921
H51   H     H_    0.789326 0.494096 0.389249 0.148512
H52   H     H_    0.406989 0.523521 0.619125 0.113324
C53   C     C_R   0.751115 0.766739 0.483918 -0.543331
C54   C     C_R   0.846531 0.826005 0.473414 0.239209
C55   C     C_R   0.792512 0.918477 0.484296 -0.154394
C56   C     C_R   0.633310 0.952739 0.499752 0.124349
C57   C     C_R   0.542809 0.890519 0.512808 -0.230248
C58   C     C_R   0.606452 0.798623 0.507321 0.300152
C59   C     C_R   0.426618 0.089141 0.529558 -0.364005
C60   C     C_R   0.341543 0.174678 0.524305 0.221591
C61   C     C_R   0.563647 0.202519 0.479165 0.115569
C62   C     C_R   0.618477 0.107395 0.470139 0.367548
C63   C     C_R   0.563399 0.051780 0.501360 -0.031369
C64   C     C_R   0.408563 0.230153 0.497735 -0.245267
H53   H     H_    0.380429 0.051656 0.554374 0.175631
H54   H     H_    0.874444 0.963312 0.480710 0.193319
H55   H     H_    0.424788 0.911656 0.527996 0.161089
H56   H     H_    0.796103 0.695510 0.477617 0.166214
S1    S     S_3+6 0.768142 0.282823 0.307316 -0.049734
O29   O     O_2   0.922617 0.282602 0.282921 -0.317718
O30   O     O_2   0.692489 0.205203 0.282459 -0.278683
O31   O     O_3   0.639737 0.377427 0.299461 -0.543778
H57   H     H_    0.622603 0.376366 0.262692 0.379175
S2    S     S_3+6 0.376072 0.799564 0.710393 0.019616
O32   O     O_2   0.214964 0.770124 0.709810 -0.245109
O33   O     O_2   0.428244 0.830734 0.763392 -0.246312
O34   O     O_3   0.359540 0.884067 0.675934 -0.505139
H58   H     H_    0.269476 0.929652 0.690048 0.360987
S3    S     S_3+6 0.660809 0.055475 0.407877 -0.087293
O35   O     O_2   0.566569 0.980445 0.394727 -0.332129
O36   O     O_2   0.608093 0.120323 0.370967 -0.295968
O37   O     O_3   0.858454 0.011940 0.402201 -0.567468
H59   H     H_    0.868367 0.986802 0.366547 0.384418
C65   C     C_3   0.324793 0.324114 0.496281 -0.137440
C66   C     C_3   0.379465 0.378855 0.545300 -0.563477
H60   H     H_    0.439691 0.334828 0.572915 0.141313
H61   H     H_    0.446302 0.432333 0.542288 0.255711
H62   H     H_    0.281657 0.418496 0.564585 0.233485
H63   H     H_    0.342136 0.348771 0.461421 0.213851
H64   H     H_    0.193634 0.326898 0.488612 0.214263

loop_
_geom_bond_atom_site_label_1
_geom_bond_atom_site_label_2
_geom_bond_distance
_ccdc_geom_bond_type
S3    O35   1.502034 D    
C8    H18   1.102123 S    
C19   C20   1.520564 S    
N2    C44   1.468417 S    
O34   H58   0.990594 S    
C21   C22   1.337627 D    
P2    C61   1.916160 S    
C51   H48   1.083595 S    
C29   H52   1.079660 S    
C38   N2    1.386970 Am   
C45   C46   1.422822 A    
H36   C16   1.108451 S    
C4    C5    1.524073 S    
C65   H64   1.099735 S    
S3    O36   1.495531 D    
C5    H10   1.108405 S    
C39   O26   1.220540 D    
P3    O11   1.744574 S    
C17   C25   1.422328 A    
C26   C48   1.395786 A    
C59   H53   1.079087 S    
C7    H15   1.110951 S    
C2    H5    1.112080 S    
C35   C36   1.408011 A    
Ba1   O20   2.924057 S    
O11   C2    1.400891 S    
C19   H45   1.085475 S    
C15   O24   1.404372 S    
O37   H59   0.989278 S    
C16   H38   1.110675 S    
C48   H44   1.075579 S    
C49   C52   1.394439 A    
N2    C39   1.387743 Am   
C26   H40   1.083597 S    
C6    C7    1.522784 S    
C11   O22   1.399832 S    
O1    Ba1   2.777460 S    
P1    O1    1.550799 D    
P1    C42   1.847479 S    
C38   O28   1.222097 D    
C40   C44   1.364916 D    
C4    O15   1.416026 S    
Ba1   O16   2.809299 S    
C15   C16   1.522048 S    
C55   C56   1.415917 A    
H1    C10   1.113928 S    
C34   C35   1.400854 A    
C64   C65   1.488917 S    
P4    C21   1.847289 S    
C60   C64   1.404301 A    
P7    O21   1.569427 D    
C66   H61   1.091873 S    
C37   C51   1.400475 A    
C30   C45   1.436045 A    
C11   H25   1.110774 S    
C59   C60   1.395882 A    
C35   C39   1.419352 A    
C56   C63   1.521863 S    
C59   C63   1.413482 A    
C17   N1    1.386718 Am   
C1    H2    1.107291 S    
C33   C34   1.394563 A    
O6    C10   1.405185 S    
C53   C58   1.388528 A    
O16   P7    1.763762 S    
C21   C28   1.321406 D    
C15   H35   1.109661 S    
C8    C9    1.539994 S    
P6    C41   1.881698 S    
C61   C62   1.439797 A    
P2    Ba1   3.419905 S    
S2    O33   1.502586 D    
Ba1   O13   2.805278 S    
C9    H20   1.088903 S    
C13   C14   1.520446 S    
C36   C37   1.409938 A    
S1    O30   1.503401 D    
C53   C54   1.388860 A    
C7    H17   1.110928 S    
C65   H63   1.093478 S    
S3    O37   1.682176 S    
P4    O13   1.548258 S    
C54   C55   1.404517 A    
P1    O5    1.745576 S    
C50   C51   1.395658 A    
C18   O27   1.220621 D    
C56   C57   1.421493 A    
C31   C47   1.435936 A    
P8    C20   1.875012 S    
C13   H30   1.112145 S    
C52   H50   1.075567 S    
N1    C18   1.387963 Am   
C53   H56   1.082896 S    
C16   H37   1.108454 S    
C13   H29   1.111567 S    
C45   C48   1.418095 A    
P5    C54   1.837896 S    
C12   H27   1.111196 S    
C10   H22   1.107524 S    
C12   S2    1.787267 S    
P1    Ba1   3.361404 S    
C32   C36   1.439115 A    
P1    O2    1.548268 S    
O10   C8    1.409949 S    
P2    O10   1.767707 S    
C24   C46   1.439110 A    
C14   H31   1.109636 S    
C57   H55   1.078577 S    
C11   H24   1.111212 S    
C40   H41   1.085407 S    
O2    Ba2   2.805993 S    
C25   C26   1.400527 A    
C31   C32   1.422820 A    
C66   H62   1.052935 S    
C22   C23   1.507995 S    
C2    C3    1.520835 S    
C6    H13   1.103332 S    
N1    C23   1.468555 S    
C61   C64   1.402213 A    
C14   H32   1.108945 S    
C20   C28   1.506151 S    
C62   C63   1.437736 A    
O3    Ba1   2.815004 S    
C18   C27   1.419236 A    
C66   H60   1.109277 S    
P7    O22   1.750732 S    
C65   C66   1.550131 S    
O12   Ba2   2.777868 S    
P2    O7    1.515944 D    
Ba2   O21   2.866804 S    
C1    H3    1.110698 S    
C33   H43   1.075580 S    
S2    O32   1.502343 D    
C3    H7    1.110842 S    
C29   C41   1.498694 S    
C22   H39   1.083842 S    
C9    H19   1.097385 S    
O14   Ba2   2.814274 S    
C19   C23   1.360086 D    
C3    H28   1.107891 S    
S1    O31   1.671988 S    
C43   C44   1.515246 S    
C37   C38   1.422228 A    
O17   Ba2   2.747576 S    
O13   Ba2   2.954398 S    
P4    O12   1.551042 D    
O31   H57   0.991358 S    
C11   C12   1.526840 S    
Ba2   O20   2.808766 S    
C31   C50   1.418063 A    
C5    H12   1.108985 S    
C43   H49   1.085310 S    
O19   C13   1.407538 S    
P3    C60   1.860032 S    
O7    Ba1   2.866647 S    
C15   H34   1.110228 S    
O8    Ba1   2.746928 S    
P8    O23   1.542317 D    
C42   C43   1.337028 D    
C47   C52   1.416954 A    
C4    H9    1.107045 S    
C24   C27   1.407931 A    
P4    O15   1.756787 S    
O5    C6    1.389958 S    
O4    P6    1.544249 D    
C1    H23   1.110711 S    
P5    O18   1.546577 D    
C2    H4    1.111115 S    
P3    O8    1.766885 S    
C4    H8    1.107444 S    
C8    S1    1.795233 S    
S1    O29   1.499603 D    
C40   C41   1.521938 S    
P8    O24   1.748401 S    
P2    O20   1.580632 S    
C30   C32   1.424281 A    
C7    H16   1.101513 S    
C6    H14   1.110541 S    
C5    H11   1.110160 S    
C62   S3    1.788298 S    
C50   H47   1.075567 S    
P5    O19   1.747948 S    
C12   H26   1.110866 S    
O2    Ba1   2.953383 S    
C14   H33   1.108311 S    
O6    P6    1.749323 S    
P7    C58   1.836178 S    
C9    H21   1.107532 S    
C27   C49   1.400820 A    
O14   P8    1.755772 S    
C1    C10   1.520468 S    
S2    O34   1.682159 S    
C49   H46   1.083658 S    
C24   C25   1.409888 A    
C28   H51   1.086617 S    
P3    O9    1.545706 D    
P4    Ba2   3.362026 S    
C3    H6    1.110241 S    
C29   C42   1.313712 D    
P5    O17   1.758041 S    
C17   O25   1.221691 D    
C57   C58   1.404909 A    
C55   H54   1.077538 S    
Ba1   Ba2   4.682032 S    
O16   Ba2   2.923061 S    
O3    P6    1.766960 S    
C34   H42   1.083665 S    
C46   C47   1.424262 A    
C30   C33   1.416995 A    
