data_mof_unit_55313.cif
_audit_creation_date              2013-03-05T15:57:38-0500
_audit_creation_method            fapswitch 2.2
_symmetry_space_group_name_H-M    P1
_symmetry_Int_Tables_number       1
_space_group_crystal_system       triclinic
_cell_length_a                    15.013703
_cell_length_b                    13.920752
_cell_length_c                    11.679193
_cell_angle_alpha                 90.127865
_cell_angle_beta                  85.423946
_cell_angle_gamma                 91.233207
_cell_volume                      2432.63013756

loop_
_atom_site_label
_atom_site_type_symbol
_atom_site_description
_atom_site_fract_x
_atom_site_fract_y
_atom_site_fract_z
_atom_type_partial_charge
O1    O     O_R   0.370260 0.582280 0.500020 -0.551111
O2    O     O_R   0.629740 0.417720 0.499980 -0.590874
O3    O     O_R   0.629740 0.582280 0.499980 -0.587263
O4    O     O_R   0.370260 0.417720 0.500020 -0.600192
C1    C     C_R   0.329181 0.499049 0.502204 0.774061
C2    C     C_R   0.670676 0.500842 0.498172 0.777837
O5    O     O_R   0.500010 0.582270 0.337200 -0.593077
O6    O     O_R   0.499990 0.417730 0.662800 -0.584009
O7    O     O_R   0.499990 0.582270 0.662800 -0.576909
O8    O     O_R   0.500010 0.417730 0.337200 -0.578466
C3    C     C_R   0.500402 0.499907 0.284238 0.801010
C4    C     C_R   0.499768 0.500053 0.715745 0.797486
Cu1   Cu    Cu3+1 0.500000 0.597420 0.500000 0.934987
Cu2   Cu    Cu3+1 0.500000 0.402580 0.500000 0.922091
C5    C     C_1   0.500334 0.499689 0.162490 -0.176179
C6    C     C_1   0.499737 0.500094 0.837501 -0.185225
C7    C     C_1   0.500140 0.499692 0.059923 0.003099
C8    C     C_1   0.499863 0.499906 0.940074 0.003370
C9    C     C_R   0.820056 0.505203 0.390154 -0.047950
C10   C     C_R   0.179007 0.474355 0.606223 -0.042081
C11   C     C_R   0.767208 0.502729 0.494959 -0.125701
C12   C     C_R   0.232445 0.497116 0.505098 -0.135092
C13   C     C_R   0.805240 0.497446 0.599260 -0.236956
C14   C     C_R   0.194603 0.518030 0.403475 -0.208556
C15   C     C_R   0.897865 0.493558 0.603370 0.101647
C16   C     C_R   0.101888 0.515648 0.398011 0.102476
C17   C     C_R   0.952868 0.501022 0.498983 0.003306
C18   C     C_R   0.046687 0.499619 0.500866 0.000410
C19   C     C_R   0.914094 0.510352 0.392661 0.077707
C20   C     C_R   0.085270 0.482754 0.605906 0.084951
C21   C     C_R   0.936975 0.484323 0.709145 0.118883
C22   C     C_R   0.062923 0.531142 0.293166 0.136516
C23   C     C_R   0.029713 0.478555 0.708531 -0.176278
C24   C     C_R   0.969944 0.527723 0.292213 -0.181055
H1    H     H_    0.760622 0.494143 0.676606 0.146763
H2    H     H_    0.239379 0.533656 0.328371 0.148224
H3    H     H_    0.058095 0.473713 0.790417 0.187265
H4    H     H_    0.941678 0.541507 0.211769 0.185779
C25   C     C_R   0.435669 0.795209 0.565560 0.309216
C26   C     C_R   0.565173 0.206412 0.434515 0.248619
C27   C     C_R   0.562078 0.795477 0.426371 0.250674
C28   C     C_R   0.430407 0.203334 0.558398 0.234592
N1    N     N_R   0.500000 0.743810 0.500000 -0.199443
N2    N     N_R   0.500000 0.256190 0.500000 -0.200652
C29   C     C_R   0.561688 0.899209 0.422836 -0.127783
C30   C     C_R   0.420465 0.101049 0.539615 -0.074064
C31   C     C_R   0.423254 0.895158 0.542626 -0.070216
C32   C     C_R   0.569529 0.104122 0.443963 -0.130707
C33   C     C_R   0.493450 0.948385 0.486220 0.009661
C34   C     C_R   0.494089 0.051402 0.489634 0.045896
C35   C     C_R   0.628327 0.957038 0.360467 0.015111
C36   C     C_R   0.340429 0.046031 0.569247 -0.079347
C37   C     C_R   0.343088 0.943902 0.575630 -0.042740
C38   C     C_R   0.643362 0.051518 0.397859 -0.036502
C39   C     C_2   0.775252 0.498904 0.280809 0.302851
H5    H     H_    0.712020 0.533602 0.273452 0.048390
O9    O     O_2   0.805596 0.449987 0.200620 -0.548914
C40   C     C_2   0.222415 0.440115 0.708770 0.298614
H6    H     H_    0.288526 0.466247 0.725649 0.038058
O10   O     O_2   0.187393 0.377482 0.771234 -0.537705
C41   C     C_3   0.882791 0.480079 0.824691 -0.414594
C42   C     C_3   0.842471 0.379737 0.848374 -0.734394
H7    H     H_    0.797739 0.357765 0.781369 0.240397
H8    H     H_    0.896513 0.326673 0.850717 0.269309
H9    H     H_    0.802986 0.379223 0.932935 0.262716
H10   H     H_    0.925685 0.498370 0.895347 0.211907
H11   H     H_    0.829954 0.534825 0.829984 0.200145
C43   C     C_3   0.117494 0.550690 0.180045 -0.426097
C44   C     C_3   0.155265 0.458168 0.127154 -0.765851
H12   H     H_    0.200312 0.423468 0.184772 0.245795
H13   H     H_    0.099890 0.406991 0.110639 0.272024
H14   H     H_    0.193871 0.474807 0.044180 0.248760
H15   H     H_    0.075384 0.583318 0.116959 0.203624
H16   H     H_    0.171758 0.604462 0.191308 0.207859
C45   C     C_3   0.404201 0.762727 0.687363 -0.358678
C46   C     C_3   0.322133 0.695226 0.699397 -0.741629
H17   H     H_    0.283474 0.695875 0.622763 0.286114
H18   H     H_    0.342234 0.621095 0.715872 0.230083
H19   H     H_    0.276907 0.716851 0.774529 0.207291
H20   H     H_    0.460546 0.733071 0.730319 0.215328
H21   H     H_    0.387883 0.826813 0.741543 0.151493
C47   C     C_3   0.617205 0.253548 0.330822 -0.334152
C48   C     C_3   0.572598 0.230265 0.220592 -0.778567
H22   H     H_    0.501386 0.251081 0.228942 0.258818
H23   H     H_    0.607517 0.270326 0.147442 0.249473
H24   H     H_    0.576103 0.152199 0.201452 0.250224
H25   H     H_    0.625202 0.331120 0.337433 0.251014
H26   H     H_    0.687123 0.230979 0.318632 0.180035
C49   C     C_3   0.639572 0.745214 0.360219 -0.352603
C50   C     C_3   0.727304 0.758424 0.417649 -0.750547
H27   H     H_    0.752877 0.833553 0.409503 0.276001
H28   H     H_    0.717906 0.739948 0.510300 0.261291
H29   H     H_    0.778747 0.711195 0.375387 0.228381
H30   H     H_    0.626644 0.669843 0.344667 0.238197
H31   H     H_    0.649437 0.767798 0.270194 0.148736
C51   C     C_3   0.370433 0.249535 0.653868 -0.332711
C52   C     C_3   0.384927 0.207517 0.771608 -0.787366
H32   H     H_    0.364339 0.130554 0.776719 0.258557
H33   H     H_    0.456463 0.214995 0.788823 0.246906
H34   H     H_    0.344332 0.246974 0.839307 0.263541
H35   H     H_    0.381183 0.325930 0.661001 0.250367
H36   H     H_    0.299181 0.246597 0.638318 0.204026
C53   C     C_2   0.652504 0.939340 0.236615 0.384166
H37   H     H_    0.608196 0.896309 0.187146 0.042335
O11   O     O_2   0.719341 0.976069 0.186996 -0.482352
C54   C     C_2   0.252243 0.092443 0.569618 0.380013
H38   H     H_    0.241981 0.146592 0.505477 0.079212
O12   O     O_2   0.191704 0.073208 0.642559 -0.527677
C55   C     C_2   0.258339 0.887966 0.595339 0.425093
H39   H     H_    0.217579 0.894705 0.675790 0.113241
O13   O     O_2   0.232257 0.836640 0.519419 -0.539390
C56   C     C_2   0.736300 0.085368 0.413009 0.430997
H40   H     H_    0.748051 0.151325 0.459764 0.049873
O14   O     O_2   0.800596 0.038165 0.378375 -0.481234

loop_
_geom_bond_atom_site_label_1
_geom_bond_atom_site_label_2
_geom_bond_distance
_ccdc_geom_bond_type
C15   C21   1.416743 A    
O5    Cu1   1.912554 S    
C27   C49   1.526229 S    
C39   H5    1.083925 S    
C16   C22   1.417417 A    
C51   H36   1.099140 S    
C17   C19   1.420227 A    
C21   C41   1.519698 S    
C46   H19   1.110949 S    
O3    C2    1.300472 A    
C56   O14   1.221084 D    
C52   H32   1.109084 S    
C31   C33   1.396966 A    
C10   C20   1.414994 A    
C32   C38   1.411694 A    
C14   H2    1.081254 S    
O1    C1    1.300128 A    
C25   C31   1.436382 A    
C9    C11   1.404651 A    
C14   C16   1.398203 A    
C55   O13   1.220895 D    
C54   H38   1.085846 S    
C29   C35   1.425245 A    
C40   O10   1.220981 D    
C47   H25   1.087205 S    
C30   C36   1.430213 A    
C26   C32   1.431769 A    
C28   C30   1.446551 A    
C49   H30   1.080528 S    
C44   H13   1.111491 S    
O7    Cu1   1.913489 S    
C42   H8    1.110934 S    
C3    C5    1.421999 S    
C41   H10   1.112352 S    
C1    C12   1.449742 S    
C4    C6    1.421973 S    
C43   C44   1.527754 S    
C21   C23   1.395822 A    
C25   C45   1.528986 S    
C45   H20   1.105182 S    
C41   C42   1.527328 S    
C42   H9    1.110521 S    
C22   C43   1.519897 S    
C32   C34   1.405548 A    
C36   C54   1.485368 S    
Cu1   Cu2   2.712318 S    
C27   N1    1.404086 A    
O2    C2    1.297898 A    
C28   N2    1.397758 A    
C56   H40   1.085592 S    
C52   H33   1.111006 S    
C26   C47   1.529052 S    
C46   H17   1.105074 S    
O8    Cu2   1.913489 S    
C35   C53   1.484344 S    
C45   H21   1.112866 S    
C25   N1    1.392983 A    
C40   H6    1.082477 S    
C2    C11   1.446469 S    
C19   C24   1.404787 A    
C23   H3    1.080426 S    
C22   C24   1.396678 A    
C49   H31   1.095851 S    
C44   H14   1.110986 S    
O5    C3    1.301444 A    
C45   C46   1.531010 S    
C42   H7    1.109481 S    
C41   H11   1.109910 S    
C50   H28   1.110090 S    
C48   H22   1.110476 S    
C29   C33   1.404692 A    
O6    C4    1.300909 A    
C51   C52   1.528803 S    
C7    C8    1.400082 S    
C38   C56   1.486971 S    
C53   O11   1.220931 D    
C48   H23   1.110769 S    
C10   C12   1.406593 A    
C47   C48   1.528837 S    
C13   H1    1.081285 S    
C39   O9    1.220986 D    
C12   C14   1.390142 A    
O1    Cu1   1.954713 S    
C10   C40   1.492247 S    
C9    C19   1.414776 A    
Cu1   N1    2.037859 S    
C52   H34   1.110808 S    
C36   C37   1.425416 A    
C50   H29   1.109953 S    
Cu2   N2    2.037859 S    
C9    C39   1.491671 S    
C5    C7    1.198139 T    
O6    Cu2   1.912554 S    
C20   C23   1.405149 A    
C24   H4    1.080539 S    
C46   H18   1.103000 S    
O4    C1    1.300086 A    
O3    Cu1   1.963731 S    
C15   C17   1.419607 A    
C30   C34   1.402988 A    
C16   C18   1.419172 A    
C31   C37   1.420411 A    
C28   C51   1.526165 S    
C35   C38   1.404241 A    
C11   C13   1.388712 A    
C43   H15   1.112234 S    
C55   H39   1.084647 S    
C50   H27   1.107971 S    
C54   O12   1.220870 D    
C47   H26   1.100475 S    
C18   C20   1.419932 A    
C13   C15   1.397516 A    
O4    Cu2   1.963733 S    
C44   H12   1.109840 S    
O2    Cu2   1.954712 S    
O7    C4    1.301912 A    
O8    C3    1.301383 A    
C26   N2    1.389224 A    
C48   H24   1.110515 S    
C6    C8    1.198129 T    
C33   C34   1.434383 A    
C53   H37   1.085252 S    
C27   C29   1.444858 A    
C37   C55   1.479780 S    
C49   C50   1.532528 S    
C51   H35   1.076258 S    
C43   H16   1.109856 S    
C17   C18   1.411054 A    
