data_mof_unit_28106.cif
_audit_creation_date              2012-12-10T19:45:47-0500
_audit_creation_method            fapswitch 2.2
_symmetry_space_group_name_H-M    P1
_symmetry_Int_Tables_number       1
_space_group_crystal_system       triclinic
_cell_length_a                    10.832864
_cell_length_b                    14.676326
_cell_length_c                    14.651402
_cell_angle_alpha                 65.259674
_cell_angle_beta                  103.30707
_cell_angle_gamma                 102.789514
_cell_volume                      2038.06214029

loop_
_atom_site_label
_atom_site_type_symbol
_atom_type_description
_atom_site_fract_x
_atom_site_fract_y
_atom_site_fract_z
_atom_type_partial_charge
C1    C     C_R   0.474881 0.119628 0.312183 0.791315
C2    C     C_R   0.579355 0.783421 0.974315 -0.231152
C3    C     C_R   0.384596 0.150103 0.130054 -0.211453
C4    C     C_R   0.572858 0.850069 0.872813 -0.202689
C5    C     C_R   0.480962 0.291661 0.178822 -0.265267
C6    C     C_R   0.495615 0.708388 0.821022 -0.265818
C7    C     C_R   0.447857 0.360993 0.079478 0.088013
C8    C     C_R   0.496587 0.639924 0.922485 0.076123
C9    C     C_R   0.389178 0.322163 0.003625 0.168807
C10   C     C_R   0.541506 0.678953 0.999754 0.166993
C11   C     C_R   0.474654 0.467529 0.053336 0.062789
C12   C     C_R   0.521705 0.880332 0.687906 0.831028
C13   C     C_R   0.456904 0.533900 0.949120 0.065815
C14   C     C_R   0.398192 0.492094 0.875462 -0.223302
C15   C     C_R   0.515645 0.509784 0.128156 -0.223785
C16   C     C_R   0.262998 0.998999 0.502821 0.840132
C17   C     C_R   0.737313 0.000463 0.498105 0.798685
C18   C     C_R   0.363817 0.388302 0.902721 -0.234506
C19   C     C_R   0.547902 0.613517 0.101527 -0.226937
C20   C     C_R   0.703097 0.279936 0.676231 -0.324564
C21   C     C_R   0.296113 0.719857 0.324064 -0.320572
C22   C     C_R   0.674752 0.200526 0.643153 0.084186
C23   C     C_R   0.871036 0.999536 0.497894 -0.066148
C24   C     C_R   0.326736 0.800245 0.355830 0.083655
C25   C     C_R   0.520228 0.285995 0.507673 0.026364
C26   C     C_R   0.475632 0.712075 0.494845 0.021832
C27   C     C_R   0.545574 0.370196 0.536681 -0.020086
C28   C     C_R   0.448307 0.627051 0.466918 -0.029490
C29   C     C_R   0.638174 0.364490 0.623964 0.164952
C30   C     C_R   0.357297 0.633535 0.378628 0.163545
C31   C     C_R   0.481621 0.458203 0.483855 0.063352
C32   C     C_R   0.510575 0.538223 0.520753 0.058365
C33   C     C_R   0.601479 0.527083 0.609614 -0.242044
C34   C     C_R   0.129826 0.998485 0.505350 -0.057910
C35   C     C_R   0.390626 0.469292 0.395045 -0.246273
C36   C     C_R   0.664350 0.442371 0.659410 -0.202046
C37   C     C_R   0.329549 0.554892 0.344138 -0.203195
C38   C     C_R   0.349541 0.071240 0.778489 -0.198298
C39   C     C_R   0.683968 0.929104 0.210224 -0.247823
C40   C     C_R   0.258752 0.026331 0.718475 0.499485
C41   C     C_R   0.768391 0.974612 0.273957 0.495779
C42   C     C_R   0.186939 0.087875 0.628996 0.032348
C43   C     C_R   0.815830 0.911175 0.373617 0.058619
C44   C     C_R   0.202914 0.192843 0.603664 -0.219343
C45   C     C_R   0.907856 0.954475 0.441834 0.056006
C46   C     C_R   0.780498 0.805745 0.407851 -0.210472
C47   C     C_R   0.291465 0.236413 0.665159 -0.136551
C48   C     C_R   0.696658 0.762697 0.344204 -0.124142
C49   C     C_R   0.365385 0.175839 0.751979 -0.195686
C50   C     C_R   0.646736 0.824336 0.246395 -0.172332
C51   C     C_R   0.964092 0.043633 0.557022 -0.263209
C52   C     C_R   0.036866 0.954160 0.446669 -0.226118
C53   C     C_3   0.167882 0.872232 0.823978 0.017746
C54   C     C_3   0.244755 0.799339 0.916553 -0.305466
C55   C     C_3   0.166066 0.739231 0.002668 -0.939424
C56   C     C_R   0.093519 0.043178 0.562092 0.042922
C57   C     C_3   0.731888 0.141834 0.166374 0.056981
C58   C     C_3   0.774227 0.182210 0.061928 -0.349099
C59   C     C_3   0.679253 0.246623 0.978645 -0.913852
C60   C     C_R   0.447778 0.187276 0.204974 -0.065938
C61   C     C_R   0.530992 0.812634 0.795725 -0.024736
C62   C     C_R   0.357004 0.217229 0.029573 -0.208614
Cu1   Cu    Cu3+1 0.466270 0.918260 0.475690 0.944017
Cu2   Cu    Cu3+1 0.533730 0.081740 0.524310 0.949045
H1    H     H_    0.435009 0.210028 0.798708 0.150453
H2    H     H_    0.447599 0.281701 0.445199 0.123536
H3    H     H_    0.281018 0.867556 0.312870 0.118391
H4    H     H_    0.723030 0.134362 0.684532 0.115207
H5    H     H_    0.774356 0.274747 0.742982 0.133443
H6    H     H_    0.226306 0.725738 0.256371 0.139075
H7    H     H_    0.626548 0.582739 0.643158 0.133381
H8    H     H_    0.364861 0.413287 0.361926 0.135974
H9    H     H_    0.407364 0.024934 0.845863 0.127779
H10   H     H_    0.647901 0.973162 0.132089 0.125010
H11   H     H_    0.147638 0.240989 0.535700 0.153021
H12   H     H_    0.580320 0.790656 0.197897 0.135394
H13   H     H_    0.818217 0.756977 0.483925 0.142297
H14   H     H_    0.303760 0.317411 0.644909 0.151003
H15   H     H_    0.670533 0.681335 0.370615 0.149107
H16   H     H_    0.935986 0.076760 0.601543 0.152492
H17   H     H_    0.064694 0.921270 0.401787 0.153307
H18   H     H_    0.318419 0.359566 0.844029 0.143766
H19   H     H_    0.579383 0.642449 0.161324 0.142074
H20   H     H_    0.469786 0.682144 0.759882 0.151115
H21   H     H_    0.535826 0.317185 0.237111 0.152117
H22   H     H_    0.601113 0.930494 0.854786 0.147117
H23   H     H_    0.310731 0.187160 0.972056 0.132994
H24   H     H_    0.357663 0.069452 0.148910 0.148073
H25   H     H_    0.082143 0.827820 0.796068 0.169246
H26   H     H_    0.131816 0.923457 0.847811 0.119040
H27   H     H_    0.276059 0.745618 0.894001 0.242203
H28   H     H_    0.331037 0.843076 0.944588 0.215293
H29   H     H_    0.135951 0.791271 0.028144 0.251049
H30   H     H_    0.225136 0.687157 0.068132 0.256966
H31   H     H_    0.079823 0.693555 0.977141 0.260880
H32   H     H_    0.736660 0.207390 0.187028 0.167987
H33   H     H_    0.629961 0.106443 0.164014 0.136965
H34   H     H_    0.613533 0.813743 0.032864 0.133002
H35   H     H_    0.869949 0.229013 0.064015 0.228198
H36   H     H_    0.782961 0.118277 0.043119 0.210218
H37   H     H_    0.584847 0.199537 0.971606 0.255808
H38   H     H_    0.714998 0.277793 0.904741 0.246247
H39   H     H_    0.667640 0.310692 0.996116 0.268620
H40   H     H_    0.373362 0.537524 0.795953 0.145839
H41   H     H_    0.520229 0.464817 0.208517 0.143425
H42   H     H_    0.734034 0.437604 0.726952 0.141528
H43   H     H_    0.260711 0.560077 0.276067 0.144813
H44   H     H_    0.547023 0.715538 0.558255 0.120456
N1    N     N_R   0.584450 0.204570 0.560790 -0.176449
N2    N     N_R   0.415550 0.795430 0.439210 -0.174008
O1    O     O_R   0.455540 0.022090 0.338120 -0.593166
O2    O     O_3   0.817540 0.077535 0.240910 -0.632467
O3    O     O_R   0.544460 0.977910 0.661880 -0.586662
O4    O     O_R   0.512510 0.160150 0.379180 -0.591115
O5    O     O_R   0.487490 0.839850 0.620820 -0.597407
O6    O     O_R   0.291160 0.930970 0.479480 -0.589693
O7    O     O_R   0.708840 0.069030 0.520520 -0.588091
O8    O     O_R   0.348130 0.069020 0.520540 -0.578069
O9    O     O_R   0.651870 0.930980 0.479460 -0.583372
O10   O     O_3   0.243519 0.922793 0.745015 -0.633966

loop_
_geom_bond_atom_site_label_1
_geom_bond_atom_site_label_2
_ccdc_geom_bond_type
C34   C56   A    
C8    C13   A    
C23   C45   A    
C27   C29   A    
C14   C18   A    
C55   H29   S    
Cu2   N1    S    
C53   O10   S    
C39   C41   A    
C38   C49   A    
C53   C54   S    
C15   C19   A    
C29   C36   A    
C17   C23   S    
C49   H1    S    
C48   H15   S    
C35   C37   A    
C37   H43   S    
C16   O8    A    
C57   O2    S    
C4    H22   S    
C33   C36   A    
Cu2   O8    S    
C51   C56   A    
C39   H10   S    
C51   H16   S    
C24   H3    S    
C16   C34   S    
C23   C51   A    
C41   O2    S    
C26   N2    A    
C44   C47   A    
C25   N1    A    
C12   O5    A    
C5    H21   S    
C3    C60   A    
C40   C42   A    
C13   C14   A    
C41   C43   A    
C42   C44   A    
C55   H30   S    
C19   H19   S    
C16   O6    A    
C7    C11   A    
C20   C29   A    
C46   C48   A    
C6    H20   S    
C58   H35   S    
C27   C31   A    
C9    C62   A    
C59   H37   S    
C28   C32   A    
C24   N2    A    
C55   H31   S    
C1    C60   S    
C26   H44   S    
C5    C7    A    
C33   H7    S    
C6    C8    A    
C45   C52   A    
C58   C59   S    
C36   H42   S    
C4    C61   A    
C57   H32   S    
Cu2   O7    S    
C30   C37   A    
C44   H11   S    
C2    C4    A    
C54   H28   S    
C50   H12   S    
Cu1   O9    S    
C14   H40   S    
C31   C32   A    
C10   C19   A    
C22   N1    A    
C57   H33   S    
C58   H36   S    
C42   C56   S    
C43   C45   S    
C22   H4    S    
Cu1   O6    S    
C40   O10   S    
C20   C22   A    
C35   H8    S    
C11   C15   A    
C53   H25   S    
C31   C35   A    
C20   H5    S    
C25   C27   A    
C1    O4    A    
C2    C10   A    
C6    C61   A    
C12   O3    A    
C62   H23   S    
C3    C62   A    
C7    C9    A    
C54   C55   S    
Cu2   O3    S    
C5    C60   A    
C3    H24   S    
C59   H38   S    
C26   C28   A    
C25   H2    S    
C46   H13   S    
C17   O7    A    
C47   C49   A    
C21   C30   A    
C34   C52   A    
C21   H6    S    
C59   H39   S    
C32   C33   A    
C15   H41   S    
Cu1   N2    S    
C28   C30   A    
Cu1   O5    S    
C54   H27   S    
C1    O1    A    
C38   C40   A    
C12   C61   S    
C11   C13   A    
C57   C58   S    
C48   C50   A    
C18   H18   S    
Cu1   O1    S    
C52   H17   S    
C43   C46   A    
C17   O9    A    
Cu1   Cu2   S    
C9    C18   A    
C39   C50   A    
C2    H34   S    
Cu2   O4    S    
C8    C10   A    
C21   C24   A    
C53   H26   S    
C47   H14   S    
C38   H9    S    
