data_mof_unit_18216.cif
_audit_creation_date              2012-12-11T19:41:59-0500
_audit_creation_method            fapswitch 2.2
_symmetry_space_group_name_H-M    P1
_symmetry_Int_Tables_number       1
_space_group_crystal_system       triclinic
_cell_length_a                    8.330817
_cell_length_b                    15.173216
_cell_length_c                    26.841565
_cell_angle_alpha                 98.266039
_cell_angle_beta                  93.119847
_cell_angle_gamma                 80.618622
_cell_volume                      3311.09012033

loop_
_atom_site_label
_atom_site_type_symbol
_atom_type_description
_atom_site_fract_x
_atom_site_fract_y
_atom_site_fract_z
_atom_type_partial_charge
Ba1   Ba    Ba6+2 0.860050 0.456430 0.522530 1.724849
Ba2   Ba    Ba6+2 0.329780 0.543490 0.477460 1.783157
C1    C     C_3   0.778126 0.126708 0.640012 0.230303
C2    C     C_3   0.717708 0.220650 0.625601 0.453207
C3    C     C_3   0.476792 0.674871 0.632298 0.279998
C4    C     C_3   0.445691 0.705408 0.687971 -0.329879
C5    C     C_3   0.113130 0.771643 0.346515 0.318855
C6    C     C_3   0.054928 0.807378 0.296203 0.555617
C7    C     C_3   0.578890 0.753237 0.342077 0.562894
C8    C     C_3   0.522661 0.838709 0.317428 0.683017
C9    C     C_R   0.026468 0.427392 0.177481 0.690885
C10   C     C_R   0.858293 0.571376 0.177496 0.795238
C11   C     C_2   0.725723 0.501194 0.268724 0.338796
C12   C     C_3   0.249645 0.196823 0.651069 0.196334
C13   C     C_3   0.691160 0.508138 0.324881 -0.158299
C14   C     C_1   0.982528 0.482453 0.341981 0.025562
C15   C     C_2   0.016284 0.486099 0.294496 -0.150885
C16   C     C_2   0.882248 0.496882 0.254617 0.146191
C17   C     C_R   0.007737 0.502324 0.101959 -0.122450
C18   C     C_R   0.074411 0.429756 0.128151 -0.047024
C19   C     C_R   0.187817 0.360029 0.104487 0.002239
C20   C     C_R   0.893298 0.573315 0.126051 -0.106399
C21   C     C_2   0.840214 0.522070 0.358100 0.099346
C22   C     C_2   0.348344 0.469537 0.640245 -0.269387
C23   C     C_3   0.204074 0.180081 0.703181 0.700070
C24   C     C_R   0.198830 0.426279 0.975168 0.033751
C25   C     C_R   0.047640 0.580176 0.975927 0.032638
C26   C     C_R   0.142460 0.502364 0.949998 0.000636
C27   C     C_R   0.288127 0.349314 0.947301 -0.089446
C28   C     C_R   0.325043 0.348153 0.897244 -0.017473
C29   C     C_R   0.273998 0.423360 0.872318 -0.024418
C30   C     C_R   0.182848 0.500722 0.898616 -0.089056
C31   C     C_R   0.133557 0.576523 0.873627 -0.071808
C32   C     C_R   0.171734 0.573179 0.822352 0.616739
C33   C     C_R   0.312614 0.422358 0.821543 0.607374
C34   C     C_3   0.288446 0.260177 0.369063 0.669698
C35   C     C_2   0.456414 0.471997 0.728999 -0.055789
C36   C     C_3   0.496766 0.475849 0.674921 -0.082628
C37   C     C_1   0.206443 0.513097 0.656461 0.057898
C38   C     C_2   0.168305 0.514973 0.704289 -0.079569
C39   C     C_2   0.299521 0.493566 0.743803 0.186054
C40   C     C_R   0.163422 0.429017 0.026957 0.033835
C41   C     C_R   0.055042 0.502824 0.051348 0.052273
C42   C     C_R   0.991624 0.576135 0.025157 0.001983
C43   C     C_R   0.231815 0.359695 0.055265 -0.079746
C44   C     C_R   0.817895 0.641895 0.097134 0.370630
C45   C     C_3   0.309562 0.173901 0.393181 -0.204367
C46   C     C_R   0.016527 0.659684 0.951958 0.385748
C47   C     C_R   0.053513 0.655578 0.900958 -0.106251
C48   C     C_R   0.865515 0.640200 0.047648 -0.075406
C49   C     C_R   0.866344 0.834797 0.480017 0.022817
C50   C     C_R   0.800811 0.928040 0.484199 -0.069368
C51   C     C_R   0.656315 0.113257 0.487148 -0.044452
C52   C     C_R   0.803114 0.078677 0.462711 0.038413
C53   C     C_R   0.877896 0.989585 0.463683 -0.002399
C54   C     C_R   0.584132 0.205882 0.489820 0.001306
C55   C     C_R   0.437813 0.235095 0.514697 -0.278069
C56   C     C_3   0.003292 0.745500 0.596698 0.279509
C57   C     C_R   0.627744 0.805671 0.520316 -0.014413
C58   C     C_R   0.563010 0.898420 0.525679 -0.056611
C59   C     C_R   0.648311 0.959774 0.506892 0.054071
C60   C     C_R   0.412553 0.931086 0.547921 -0.008536
C61   C     C_R   0.344088 0.021086 0.550282 -0.068472
C62   C     C_R   0.424857 0.083229 0.531666 -0.001064
C63   C     C_R   0.577862 0.052557 0.509299 0.074257
C64   C     C_R   0.355947 0.175041 0.534504 -0.015310
C65   C     C_R   0.777380 0.775132 0.497203 0.114955
C66   C     C_3   0.047180 0.838831 0.613898 -0.352471
C67   C     C_3   0.721296 0.328927 0.370086 0.281482
C68   C     C_3   0.782941 0.290113 0.317604 -0.231081
H1    H     H_    0.811449 0.235305 0.601563 0.051217
H2    H     H_    0.239358 0.124093 0.371746 0.197120
H3    H     H_    0.440042 0.144313 0.395155 0.154992
H4    H     H_    0.262815 0.188813 0.431809 0.003592
H5    H     H_    0.869485 0.753587 0.591392 -0.021444
H6    H     H_    0.067871 0.717770 0.561436 0.051215
H7    H     H_    0.980742 0.870532 0.648348 0.136015
H8    H     H_    0.013358 0.882232 0.583798 0.027791
H9    H     H_    0.179998 0.833796 0.622263 0.124375
H10   H     H_    0.820932 0.357017 0.392659 0.041941
H11   H     H_    0.615641 0.382914 0.367355 0.028568
H12   H     H_    0.853266 0.085983 0.609167 -0.021258
H13   H     H_    0.838370 0.218112 0.316418 0.197371
H14   H     H_    0.877133 0.326846 0.306923 0.059135
H15   H     H_    0.681806 0.296556 0.289152 0.178599
H16   H     H_    0.601800 0.220250 0.603427 -0.060128
H17   H     H_    0.361907 0.658295 0.613328 0.020785
H18   H     H_    0.572208 0.614197 0.628123 0.029290
H19   H     H_    0.361286 0.770491 0.692860 0.155403
H20   H     H_    0.389319 0.655227 0.704187 0.069351
H21   H     H_    0.562128 0.714248 0.708802 0.131558
H22   H     H_    0.854919 0.131965 0.675128 0.103314
H23   H     H_    0.234223 0.788496 0.358967 -0.002293
H24   H     H_    0.117382 0.697395 0.341764 0.038107
H25   H     H_    0.924797 0.802363 0.291798 0.065838
H26   H     H_    0.555163 0.768290 0.383066 0.003329
H27   H     H_    0.389450 0.848473 0.314975 0.083229
H28   H     H_    0.296477 0.262147 0.654038 0.009002
H29   H     H_    0.141026 0.479788 0.283840 0.208292
H30   H     H_    0.243786 0.304617 0.124113 0.159752
H31   H     H_    0.554959 0.459330 0.756482 0.111469
H32   H     H_    0.394188 0.287291 0.877987 0.166489
H33   H     H_    0.328601 0.287455 0.962728 0.088840
H34   H     H_    0.322480 0.304321 0.040719 0.089205
H35   H     H_    0.345547 0.141289 0.636294 0.065973
H36   H     H_    0.024112 0.716074 0.883058 0.129448
H37   H     H_    0.042436 0.532571 0.715200 0.125887
H38   H     H_    0.794339 0.687005 0.025534 0.170752
H39   H     H_    0.358479 0.431895 0.602656 0.065327
H40   H     H_    0.863731 0.119525 0.442543 0.107383
H41   H     H_    0.993861 0.968703 0.446041 0.125957
H42   H     H_    0.226288 0.040754 0.566949 0.072071
H43   H     H_    0.343621 0.887582 0.563216 0.078052
H44   H     H_    0.381992 0.304970 0.516242 0.066405
H45   H     H_    0.133108 0.123358 0.698014 0.017327
H46   H     H_    0.382620 0.299354 0.385890 -0.035152
N1    N     N_R   0.921835 0.498176 0.202105 -0.409669
N2    N     N_R   0.259586 0.496197 0.796572 -0.432568
O1    O     O_2   0.906480 0.548660 0.619050 -0.471484
O2    O     O_3   0.670090 0.260695 0.391868 -0.618601
O3    O     O_3   0.109923 0.196989 0.619473 -0.646263
O4    O     O_2   0.283210 0.451310 0.380920 -0.480450
O5    O     O_3   0.051220 0.451340 0.441120 -0.410228
O6    O     O_3   0.503410 0.617620 0.414290 -0.445974
O7    O     O_3   0.131313 0.305966 0.378852 -0.680295
O8    O     O_3   0.617150 0.609960 0.527100 -0.433516
O9    O     O_3   0.088210 0.664420 0.439670 -0.400965
O10   O     O_2   0.205429 0.822665 0.460298 -0.506709
O11   O     O_3   0.998032 0.812171 0.382395 -0.560040
O12   O     O_3   0.138490 0.548590 0.558870 -0.499347
O13   O     O_3   0.572560 0.389960 0.472890 -0.487833
O14   O     O_2   0.345660 0.723580 0.528500 -0.492576
O15   O     O_3   0.529743 0.745152 0.612543 -0.642637
O16   O     O_2   0.353395 0.556319 0.330461 -0.450824
O17   O     O_3   0.485835 0.688758 0.318588 -0.611780
O18   O     O_2   0.076323 0.361332 0.198336 -0.492110
O19   O     O_2   0.393389 0.355234 0.799498 -0.530960
O20   O     O_2   0.775085 0.635720 0.201055 -0.450026
O21   O     O_2   0.128968 0.639464 0.801005 -0.581380
O22   O     O_3   0.686300 0.382310 0.585700 -0.505047
O23   O     O_2   0.839824 0.425754 0.671532 -0.462449
O24   O     O_3   0.047117 0.691858 0.634791 -0.623415
O25   O     O_3   0.693813 0.285518 0.668850 -0.560403
O26   O     O_2   0.844040 0.276390 0.471470 -0.453336
O27   O     O_3   0.101510 0.335500 0.560330 -0.453750
O28   O     O_2   0.023257 0.177346 0.525335 -0.501558
P1    P     P_3+3 0.071950 0.575820 0.612140 0.987251
P2    P     P_3+3 0.664370 0.290050 0.457240 0.983010
P3    P     P_3+3 0.152037 0.219806 0.559950 0.940335
P4    P     P_3+3 0.117760 0.424110 0.387850 1.075730
P5    P     P_3+3 0.048610 0.782726 0.442750 1.057633
P6    P     P_3+3 0.678442 0.393901 0.651121 1.004185
P7    P     P_3+3 0.529434 0.722221 0.546830 0.969088
P8    P     P_3+3 0.512140 0.592067 0.348089 1.061607
O29   O     O_3   0.646594 0.083572 0.646889 -0.705851
H47   H     H_    0.693957 0.021552 0.653042 0.322407
S1    S     S_3+6 0.379182 0.145839 0.741595 -0.030335
O30   O     O_2   0.332144 0.158808 0.795731 -0.246088
O31   O     O_2   0.441273 0.047743 0.725430 -0.298079
O32   O     O_3   0.525860 0.207063 0.735440 -0.459669
H48   H     H_    0.619303 0.181817 0.756228 0.383980
S2    S     S_3+6 0.140625 0.739313 0.240935 0.002724
O33   O     O_2   0.045136 0.767926 0.195326 -0.177649
O34   O     O_2   0.314916 0.748537 0.235416 -0.162161
O35   O     O_3   0.126586 0.631337 0.243623 -0.594591
H49   H     H_    0.239187 0.601416 0.248880 0.393579
S3    S     S_3+6 0.067684 0.924989 0.296382 0.037291
O36   O     O_2   0.194353 0.937222 0.261260 -0.150889
O37   O     O_2   0.905767 0.972036 0.278968 -0.255269
O38   O     O_3   0.113895 0.972285 0.354901 -0.515832
H50   H     H_    0.029104 0.025842 0.362336 0.354953
O39   O     O_3   0.745628 0.723641 0.335121 -0.789904
H51   H     H_    0.758692 0.692007 0.300237 0.333892
S4    S     S_3+6 0.566312 0.939920 0.353911 -0.074294
O40   O     O_2   0.478371 0.955493 0.402526 -0.330464
O41   O     O_2   0.745288 0.936069 0.364377 -0.295810
O42   O     O_3   0.498493 0.024097 0.320400 -0.426931
H52   H     H_    0.561524 0.009708 0.289266 0.390518
O43   O     O_3   0.576233 0.828805 0.267858 -0.600415
H53   H     H_    0.679010 0.853503 0.268496 0.344478
S5    S     S_3+6 0.574650 0.471734 0.222994 -0.057875
O44   O     O_2   0.650487 0.401411 0.182126 -0.297657
O45   O     O_2   0.447019 0.434402 0.247059 -0.275766
O46   O     O_3   0.486883 0.562814 0.197298 -0.428606
H54   H     H_    0.409737 0.540033 0.171052 0.368170
S6    S     S_3+6 0.655081 0.728814 0.118244 0.064899
O47   O     O_2   0.517895 0.687644 0.134507 -0.149935
O48   O     O_2   0.712105 0.790889 0.161982 -0.159986
O49   O     O_3   0.582711 0.790417 0.072170 -0.478851
H55   H     H_    0.659462 0.833770 0.071753 0.358696
O50   O     O_3   0.964332 0.742553 0.979672 -0.710311
H56   H     H_    0.950981 0.790502 0.957592 0.322120
O51   O     O_3   0.828921 0.568619 0.405725 -0.641404
H57   H     H_    0.787022 0.631687 0.401292 0.337402
O52   O     O_3   0.106109 0.256283 0.727812 -0.689669
H58   H     H_    0.170604 0.306492 0.732254 0.322003
O53   O     O_3   0.835607 0.684685 0.488588 -0.682989
H59   H     H_    0.856678 0.662000 0.521224 0.294218
S7    S     S_3+6 0.310277 0.232934 0.302453 -0.005121
O54   O     O_2   0.192067 0.171337 0.280900 -0.215143
O55   O     O_2   0.275748 0.317825 0.278892 -0.257279
O56   O     O_3   0.500680 0.182640 0.289389 -0.504657
H60   H     H_    0.502699 0.171468 0.252131 0.385915

loop_
_geom_bond_atom_site_label_1
_geom_bond_atom_site_label_2
_ccdc_geom_bond_type
C25   C46   A    
C8    S4    S    
Ba2   P4    S    
O35   H49   S    
O6    P8    S    
Ba1   O27   S    
C17   C18   A    
C34   S7    S    
C55   C64   A    
O26   P2    D    
C2    O25   S    
C57   P7    S    
C56   H6    S    
C5    C6    S    
S3    O37   D    
Ba2   O5    S    
O46   H54   S    
C3    O15   S    
C3    C4    S    
C27   H33   S    
S1    O30   D    
O17   P8    S    
C11   C16   D    
O15   P7    S    
C8    O43   S    
O4    P4    D    
C43   H34   S    
C35   C36   S    
O11   P5    S    
C50   C59   A    
C23   H45   S    
C28   C29   A    
C51   C54   A    
C2    H16   S    
O38   H50   S    
O1    P1    D    
C4    H21   S    
O28   P3    D    
C10   C20   A    
C32   O21   D    
C22   C37   D    
C54   C55   A    
C52   H40   S    
C34   C45   S    
C58   C60   A    
Ba1   Ba2   S    
Ba1   O1    S    
C61   H42   S    
S4    O40   D    
C13   P8    S    
C57   C65   A    
C3    H18   S    
C25   C42   A    
C12   H35   S    
C34   O7    S    
O3    P3    S    
C14   C15   D    
C46   O50   S    
S7    O56   S    
Ba2   O14   S    
C39   N2    S    
C68   H14   S    
C7    C8    S    
O22   P6    S    
S2    O34   D    
C23   O52   S    
C50   C53   A    
O9    P5    S    
Ba2   O9    S    
C66   H9    S    
S5    O45   D    
O5    P4    S    
C49   P5    S    
S7    O54   D    
S1    O31   D    
C12   O3    S    
C48   H38   S    
C21   O51   S    
O53   H59   S    
C6    H25   S    
C1    H12   S    
C36   P6    S    
C17   C41   A    
C56   H5    S    
C12   H28   S    
S3    O38   S    
C19   C43   A    
Ba2   O4    S    
C66   H8    S    
C5    H23   S    
C9    C18   A    
Ba2   O13   S    
O56   H60   S    
O50   H56   S    
C26   C30   A    
C17   C20   A    
Ba1   O8    S    
C45   H3    S    
C60   H43   S    
Ba1   O12   S    
S3    O36   D    
C19   H30   S    
Ba1   O13   S    
S5    O44   D    
C32   N2    Am   
O49   H55   S    
C49   C50   A    
C58   C59   A    
C40   C43   A    
C62   C64   A    
C54   P2    S    
C8    H27   S    
C41   C42   A    
Ba1   O5    S    
C27   C28   A    
C6    S3    S    
S2    O35   S    
C56   O24   S    
O10   P5    D    
C22   C36   S    
C29   C30   A    
C7    H26   S    
C28   H32   S    
C60   C61   A    
C1    O29   S    
C15   C16   S    
O13   P2    S    
C49   C65   A    
C44   S6    S    
C68   H13   S    
C15   H29   S    
C16   N1    S    
Ba1   P2    S    
C47   H36   S    
Ba1   O22   S    
S4    O42   S    
C64   P3    S    
C38   H37   S    
Ba2   O8    S    
C56   C66   S    
O25   P6    S    
C20   C44   A    
O14   P7    D    
O2    P2    S    
C14   C21   D    
C11   S5    S    
C11   C13   S    
C23   S1    S    
C10   O20   D    
Ba1   P1    S    
C40   C41   A    
C33   N2    Am   
S6    O48   D    
C1    C2    S    
C34   H46   S    
C7    O17   S    
C37   C38   D    
C51   C63   A    
O39   H51   S    
C24   C40   A    
S7    O55   D    
S2    O33   D    
S5    O46   S    
C42   C48   A    
C66   H7    S    
C5    H24   S    
C52   C53   A    
C46   C47   A    
C53   H41   S    
O12   P1    S    
O24   P1    S    
C22   H39   S    
C45   H4    S    
C61   C62   A    
C65   O53   S    
C14   P4    S    
C51   C52   A    
C55   H44   S    
Ba2   O6    S    
O43   H53   S    
S1    O32   S    
C4    H19   S    
C44   C48   A    
C67   O2    S    
C24   C26   A    
C30   C31   A    
S6    O49   S    
Ba1   O26   S    
C4    H20   S    
C9    O18   D    
C33   O19   D    
C35   H31   S    
O16   P8    D    
C62   C63   A    
C13   C21   S    
Ba2   O12   S    
C31   C32   A    
C29   C33   A    
C12   C23   S    
C35   C39   D    
C67   C68   S    
O32   H48   S    
S4    O41   D    
C45   H2    S    
C5    O11   S    
C67   H11   S    
O7    P4    S    
O42   H52   S    
O52   H58   S    
C3    H17   S    
O8    P7    S    
C59   C63   A    
C57   C58   A    
C18   C19   A    
C24   C27   A    
O51   H57   S    
C37   P1    S    
O29   H47   S    
C6    S2    S    
C1    H22   S    
C7    O39   S    
C38   C39   S    
C10   N1    Am   
S6    O47   D    
C68   H15   S    
C31   C47   A    
C2    H1    S    
O27   P3    S    
O23   P6    D    
C67   H10   S    
C25   C26   A    
C9    N1    Am   
