data_mof_unit_32499.cif
_audit_creation_date              2012-12-10T20:27:16-0500
_audit_creation_method            fapswitch 2.2
_symmetry_space_group_name_H-M    P1
_symmetry_Int_Tables_number       1
_space_group_crystal_system       triclinic
_cell_length_a                    10.669421
_cell_length_b                    10.657336
_cell_length_c                    9.899907
_cell_angle_alpha                 89.850045
_cell_angle_beta                  103.464651
_cell_angle_gamma                 90.576242
_cell_volume                      1094.69818563

loop_
_atom_site_label
_atom_site_type_symbol
_atom_type_description
_atom_site_fract_x
_atom_site_fract_y
_atom_site_fract_z
_atom_type_partial_charge
C1    C     C_R   0.505927 0.260082 0.501628 0.872917
C2    C     C_R   0.612214 0.493340 0.099867 -0.158283
C3    C     C_R   0.612153 0.492700 0.956288 -0.118956
C4    C     C_R   0.258647 0.504700 0.442151 0.936613
C5    C     C_R   0.388749 0.517964 0.900929 0.104301
C6    C     C_3   0.266432 0.443520 0.861014 -0.524692
C7    C     C_3   0.266383 0.438194 0.015135 0.636995
C8    C     C_R   0.504950 0.740084 0.501063 0.876320
C9    C     C_R   0.741610 0.505964 0.557442 0.932478
C10   C     C_2   0.121265 0.522952 0.408739 -0.329387
C11   C     C_2   0.068142 0.573685 0.504353 -0.178262
C12   C     C_R   0.531324 0.129199 0.508466 -0.100243
C13   C     C_2   0.879006 0.530038 0.588003 -0.362242
C14   C     C_2   0.930831 0.568340 0.484433 -0.151548
C15   C     C_R   0.535946 0.063843 0.631350 0.140289
C16   C     C_3   0.270459 0.305297 0.079702 -0.357115
C17   C     C_3   0.370922 0.215913 0.047469 -0.963649
C18   C     C_R   0.555083 0.065888 0.392986 -0.232023
C19   C     C_R   0.553219 0.935961 0.392037 -0.218919
C20   C     C_R   0.529077 0.871543 0.507322 -0.104084
C21   C     C_R   0.534526 0.935894 0.630737 0.136833
C22   C     C_3   0.449312 0.928296 0.730925 -0.464617
C23   C     C_3   0.451842 0.070584 0.732275 -0.499073
C24   C     C_R   0.388536 0.515072 0.042695 0.190666
F1    F     F_    0.166415 0.507486 0.043661 -0.685175
H1    H     H_    0.873094 0.581378 0.379367 0.183705
H2    H     H_    0.565282 0.115492 0.300556 0.178251
H3    H     H_    0.561093 0.887324 0.298462 0.176514
H4    H     H_    0.352557 0.887778 0.683832 0.205940
H5    H     H_    0.499102 0.886233 0.831808 0.210744
H6    H     H_    0.356425 0.113041 0.687088 0.203564
H7    H     H_    0.342790 0.184989 0.937964 0.257836
H8    H     H_    0.468296 0.259357 0.069590 0.273261
H9    H     H_    0.374430 0.130514 0.112555 0.266330
H10   H     H_    0.286285 0.313463 0.193732 0.238809
H11   H     H_    0.173941 0.260857 0.042489 0.207879
H12   H     H_    0.504964 0.110521 0.833204 0.213729
H13   H     H_    0.702702 0.485757 0.175772 0.157527
H14   H     H_    0.702501 0.484651 0.925488 0.162668
H15   H     H_    0.186077 0.500235 0.801102 0.202222
H16   H     H_    0.279094 0.353420 0.810362 0.191332
H17   H     H_    0.125816 0.606893 0.603093 0.181504
H18   H     H_    0.937442 0.515697 0.692453 0.169861
H19   H     H_    0.063385 0.492028 0.308721 0.182548
N1    N     N_R   0.499160 0.499140 0.142600 -0.131590
N2    N     N_R   0.499160 0.499180 0.856960 -0.096702
O1    O     O_R   0.500020 0.316790 0.614700 -0.611044
O2    O     O_R   0.500000 0.316760 0.385350 -0.624670
O3    O     O_R   0.317820 0.500020 0.571850 -0.615387
O4    O     O_R   0.317800 0.499980 0.342510 -0.590237
O5    O     O_R   0.500000 0.683240 0.614650 -0.613541
O6    O     O_R   0.499980 0.683210 0.385300 -0.613873
O7    O     O_R   0.682200 0.500020 0.657490 -0.617536
O8    O     O_R   0.682180 0.499980 0.428150 -0.623723
Zn1   Zn    Zn3+2 0.500010 0.500020 0.653140 0.943076
Zn2   Zn    Zn3+2 0.499990 0.499980 0.346860 0.951859

loop_
_geom_bond_atom_site_label_1
_geom_bond_atom_site_label_2
_ccdc_geom_bond_type
N2    Zn1   S    
C1    O2    A    
C6    C7    S    
C22   H4    S    
O4    Zn2   S    
C5    N2    A    
C8    O6    A    
C3    N2    A    
C19   C20   A    
C7    F1    S    
C12   C15   A    
C13   H18   S    
C4    O3    A    
C15   C23   S    
C2    C3    A    
C3    H14   S    
C16   H10   S    
O3    Zn1   S    
C13   C14   D    
C14   H1    S    
C19   H3    S    
C5    C24   A    
C8    O5    A    
C8    C20   S    
C1    C12   S    
C17   H8    S    
C24   N1    A    
C21   C22   S    
C7    C16   S    
O5    Zn1   S    
O7    Zn1   S    
C2    N1    A    
C5    C6    S    
C11   C14   S    
O8    Zn2   S    
C9    O7    A    
C10   C11   D    
C10   H19   S    
C7    C24   S    
C15   C21   A    
C6    H15   S    
C20   C21   A    
C11   H17   S    
O1    Zn1   S    
C18   C19   A    
C17   H9    S    
C12   C18   A    
O2    Zn2   S    
C17   H7    S    
C2    H13   S    
C22   C23   S    
C1    O1    A    
C9    C13   S    
C9    O8    A    
C22   H5    S    
C23   H12   S    
C4    C10   S    
C16   H11   S    
C18   H2    S    
O6    Zn2   S    
N1    Zn2   S    
C4    O4    A    
C16   C17   S    
C6    H16   S    
C23   H6    S    
