data_mof_unit_11864.cif
_audit_creation_date              2012-12-11T16:18:14-0500
_audit_creation_method            fapswitch 2.2
_symmetry_space_group_name_H-M    P1
_symmetry_Int_Tables_number       1
_space_group_crystal_system       triclinic
_cell_length_a                    14.02848
_cell_length_b                    14.035806
_cell_length_c                    30.168568
_cell_angle_alpha                 97.198448
_cell_angle_beta                  97.208689
_cell_angle_gamma                 61.254604
_cell_volume                      5152.58547365

loop_
_atom_site_label
_atom_site_type_symbol
_atom_type_description
_atom_site_fract_x
_atom_site_fract_y
_atom_site_fract_z
_atom_type_partial_charge
C1    C     C_R   0.387081 0.706975 0.440896 0.557718
C2    C     C_R   0.772931 0.273437 0.374081 0.036119
C3    C     C_R   0.790664 0.257727 0.328235 -0.043969
C4    C     C_R   0.398734 0.381150 0.426468 0.546204
C5    C     C_R   0.801340 0.336343 0.307906 0.020795
C6    C     C_R   0.806780 0.424044 0.333570 0.091619
C7    C     C_R   0.790098 0.440063 0.379544 0.068498
C8    C     C_R   0.803437 0.412136 0.153805 0.109629
C9    C     C_R   0.836577 0.399289 0.110155 0.073058
C10   C     C_R   0.890143 0.205059 0.107009 0.052926
C11   C     C_R   0.856076 0.219736 0.149925 -0.149915
C12   C     C_R   0.413359 0.269339 0.221552 0.146877
C13   C     C_R   0.818387 0.320708 0.173838 0.033748
C14   C     C_1   0.807800 0.326219 0.220637 0.051709
C15   C     C_1   0.804345 0.329744 0.260266 0.055122
C16   C     C_R   0.710228 0.405470 0.442175 0.584671
C17   C     C_R   0.887220 0.293737 0.087662 0.074865
C18   C     C_R   0.371496 0.749258 0.396461 0.026608
C19   C     C_R   0.429835 0.802478 0.386703 0.055167
C20   C     C_R   0.431380 0.821095 0.342132 0.108552
C21   C     C_R   0.375225 0.787214 0.307639 0.066147
C22   C     C_R   0.312171 0.740628 0.316910 0.073055
C23   C     C_R   0.422822 0.274167 0.268374 0.148962
C24   C     C_R   0.309586 0.721666 0.361234 0.068118
C25   C     C_R   0.270572 0.820465 0.150995 0.096510
C26   C     C_R   0.242438 0.855763 0.107598 -0.115898
C27   C     C_R   0.401025 0.884139 0.112461 -0.143876
C28   C     C_R   0.389721 0.711633 0.568246 0.545561
C29   C     C_R   0.429855 0.849620 0.155756 -0.038802
C30   C     C_R   0.361943 0.822202 0.175678 0.043614
C31   C     C_1   0.376839 0.808137 0.222640 0.046124
C32   C     C_1   0.380518 0.799365 0.261816 0.088997
C33   C     C_R   0.304376 0.892614 0.089039 -0.013370
C34   C     C_R   0.332882 0.347824 0.292712 -0.026518
C35   C     C_R   0.362898 0.363152 0.592749 -0.038233
C36   C     C_R   0.426992 0.265686 0.614908 -0.037992
C37   C     C_R   0.412292 0.262601 0.659889 -0.021943
C38   C     C_R   0.332463 0.355135 0.682402 -0.012988
C39   C     C_R   0.257909 0.445413 0.658892 -0.024693
C40   C     C_R   0.401372 0.382745 0.552375 0.535580
C41   C     C_R   0.270996 0.448674 0.613765 -0.043950
C42   C     C_R   0.228627 0.423516 0.838154 -0.008499
C43   C     C_R   0.216059 0.401789 0.880719 0.050847
C44   C     C_R   0.401924 0.250354 0.882574 0.054608
C45   C     C_R   0.314099 0.338791 0.198709 -0.023091
C46   C     C_R   0.413110 0.272043 0.839794 -0.013525
C47   C     C_R   0.324021 0.353855 0.816674 -0.016383
C48   C     C_1   0.326628 0.358712 0.769583 0.018627
C49   C     C_1   0.328506 0.358079 0.729965 0.010605
C50   C     C_R   0.299954 0.309509 0.901705 0.072764
C51   C     C_1   0.761972 0.376428 0.612485 0.022074
C52   C     C_R   0.712927 0.407824 0.568570 0.549493
C53   C     C_R   0.906089 0.344412 0.721645 -0.015180
C54   C     C_R   0.925816 0.331349 0.768076 0.096031
C55   C     C_R   0.772971 0.294101 0.766021 -0.112991
C56   C     C_1   0.302350 0.324703 0.150544 -0.053348
C57   C     C_R   0.751852 0.307819 0.719852 0.106019
C58   C     C_R   0.818620 0.333302 0.697627 0.035424
C59   C     C_R   0.858620 0.306543 0.790029 0.043416
C60   C     C_1   0.879197 0.293264 0.837452 0.003979
C61   C     C_1   0.792027 0.354493 0.650793 -0.000596
C62   C     C_1   0.905868 0.282475 0.876790 0.016104
C63   C     C_1   0.376171 0.758257 0.613512 0.026998
C64   C     C_1   0.366040 0.364707 0.380717 -0.005614
C65   C     C_R   0.329240 0.912853 0.721362 -0.016543
C66   C     C_R   0.317821 0.932841 0.767912 0.088702
C67   C     C_1   0.346869 0.355694 0.340939 -0.063099
C68   C     C_R   0.364283 0.742851 0.772995 -0.014911
C69   C     C_R   0.376771 0.722610 0.726530 0.092319
C70   C     C_R   0.358196 0.807852 0.700757 0.036460
C71   C     C_R   0.334446 0.848076 0.793541 0.034564
C72   C     C_1   0.315332 0.872684 0.840632 0.015257
C73   C     C_1   0.367299 0.785543 0.652901 0.019112
C74   C     C_1   0.294181 0.901978 0.879071 0.021405
C75   C     C_R   0.949459 0.273375 0.047987 0.583288
C76   C     C_R   0.233783 0.418395 0.270091 -0.041200
C77   C     C_R   0.275430 0.270329 0.065370 0.545059
C78   C     C_1   0.291472 0.304859 0.110906 -0.001311
C79   C     C_R   0.261469 0.953352 0.048603 0.544641
C80   C     C_R   0.951952 0.269227 0.922124 0.544253
C81   C     C_R   0.277178 0.267466 0.939924 0.589486
C82   C     C_R   0.261652 0.950622 0.922938 0.547095
C83   C     C_R   0.224176 0.413499 0.222881 -0.032601
C84   C     C_1   0.142337 0.496005 0.295307 0.205025
C85   C     C_1   0.794436 0.162405 0.301868 0.192955
C86   C     C_1   0.525717 0.849054 0.180040 0.189996
C87   C     C_1   0.121744 0.483952 0.199215 0.224820
C88   C     C_1   0.141598 0.515677 0.816082 0.201741
C89   C     C_R   0.764082 0.369465 0.399218 0.064214
C90   C     C_1   0.169803 0.536891 0.681583 0.231560
C91   C     C_1   0.189668 0.541140 0.589884 0.253714
C92   C     C_1   0.508535 0.168275 0.592153 0.261977
C93   C     C_1   0.515523 0.207497 0.819186 0.196574
C94   C     C_1   0.481405 0.165141 0.683420 0.234430
C95   C     C_1   0.975270 0.369965 0.699022 0.206803
C96   C     C_1   0.309495 0.000754 0.694907 0.202852
C97   C     C_1   0.380608 0.655714 0.799175 0.195722
Cr1   Cr    Cr6+3 0.581000 0.584320 0.508140 1.052506
Cr2   Cr    Cr6+3 0.339110 0.576430 0.496080 1.082358
Cr3   Cr    Cr6+3 0.579910 0.339270 0.495810 1.075133
Cr4   Cr    Cr6+3 0.082090 0.079210 0.982490 1.057202
Cr5   Cr    Cr6+3 0.082460 0.324610 0.994920 1.069914
Cr6   Cr    Cr6+3 0.323630 0.087860 0.996130 1.044204
H1    H     H_    0.865001 0.150114 0.165589 0.136638
H2    H     H_    0.170304 0.750631 0.286186 0.255014
H3    H     H_    0.166756 0.716360 0.359450 0.248913
H4    H     H_    0.278898 0.592683 0.352352 0.232317
H5    H     H_    0.437795 0.880411 0.447483 0.244012
H6    H     H_    0.557739 0.770644 0.433090 0.262206
H7    H     H_    0.462680 0.948894 0.348857 0.260776
H8    H     H_    0.573868 0.825069 0.342853 0.252010
H9    H     H_    0.106555 0.550770 0.905970 0.236856
H10   H     H_    0.051518 0.470921 0.881261 0.255010
H11   H     H_    0.517932 0.092580 0.886722 0.250021
H12   H     H_    0.169048 0.859978 0.089377 0.130853
H13   H     H_    0.557363 0.185578 0.910510 0.237701
H14   H     H_    0.525155 0.234468 0.177317 0.229002
H15   H     H_    0.483785 0.138936 0.177013 0.240820
H16   H     H_    0.085999 0.290775 0.779535 0.235945
H17   H     H_    0.998323 0.424312 0.790685 0.250018
H18   H     H_    0.624750 0.272655 0.716190 0.243741
H19   H     H_    0.604672 0.372383 0.685074 0.227107
H20   H     H_    0.212253 0.094283 0.774717 0.239274
H21   H     H_    0.345631 0.062520 0.784100 0.246972
H22   H     H_    0.349535 0.592684 0.710299 0.244917
H23   H     H_    0.450852 0.910507 0.098174 0.142201
H24   H     H_    0.482689 0.561175 0.719986 0.231823
H25   H     H_    0.512484 0.155624 0.310808 0.239905
H26   H     H_    0.553191 0.251772 0.311623 0.222714
H27   H     H_    0.863387 0.528766 0.108846 0.257004
H28   H     H_    0.738264 0.548176 0.086820 0.226977
H29   H     H_    0.688500 0.570868 0.160884 0.232015
H30   H     H_    0.815932 0.545033 0.182236 0.263325
H31   H     H_    0.895890 0.500259 0.327686 0.254999
H32   H     H_    0.759315 0.576483 0.315922 0.241223
H33   H     H_    0.874182 0.521526 0.404659 0.240898
H34   H     H_    0.722068 0.274668 0.783362 0.140505
H35   H     H_    0.738473 0.602499 0.392578 0.231878
H36   H     H_    0.695433 0.184888 0.378484 0.242671
H37   H     H_    0.832161 0.118770 0.391349 0.242445
H38   H     H_    0.999131 0.044670 0.104618 0.234602
H39   H     H_    0.872870 0.073600 0.081427 0.230003
H40   H     H_    0.135870 0.797916 0.149430 0.229215
H41   H     H_    0.249257 0.706167 0.176190 0.246236
H42   H     H_    0.281314 0.625945 0.279489 0.230834
N1    N     N_1   0.069441 0.558007 0.315436 -0.297464
N2    N     N_3   0.492320 0.872012 0.331493 -0.602524
N3    N     N_3   0.116864 0.471367 0.902041 -0.587397
N4    N     N_1   0.071965 0.589454 0.798615 -0.252754
N5    N     N_1   0.099578 0.610008 0.699522 -0.223762
N6    N     N_1   0.124542 0.614953 0.570986 -0.247329
N7    N     N_1   0.573555 0.090368 0.574118 -0.247112
N8    N     N_1   0.597398 0.156092 0.802831 -0.281981
N9    N     N_3   0.493183 0.166483 0.906193 -0.589084
N10   N     N_1   0.536412 0.087350 0.702080 -0.238558
N11   N     N_1   0.030685 0.390223 0.680974 -0.262791
N12   N     N_3   0.933121 0.098108 0.084499 -0.586344
N13   N     N_3   0.505629 0.192120 0.197618 -0.554190
N14   N     N_3   0.012615 0.345017 0.793521 -0.625844
N15   N     N_3   0.662937 0.295851 0.695314 -0.598537
N16   N     N_1   0.293503 0.071097 0.673795 -0.275763
N17   N     N_3   0.287527 0.039620 0.789550 -0.618436
N18   N     N_1   0.393576 0.586015 0.820015 -0.296333
N19   N     N_3   0.407584 0.615685 0.704949 -0.628136
N20   N     N_3   0.525253 0.203547 0.290809 -0.551703
N21   N     N_3   0.821336 0.492288 0.089056 -0.598789
N22   N     N_3   0.758817 0.516425 0.178748 -0.599780
N23   N     N_1   0.797474 0.086325 0.280788 -0.247923
N24   N     N_3   0.825769 0.498600 0.312143 -0.596040
N25   N     N_3   0.796521 0.529606 0.405962 -0.591716
N26   N     N_3   0.761375 0.193391 0.394970 -0.586243
N27   N     N_3   0.203204 0.789209 0.171246 -0.597517
N28   N     N_3   0.253149 0.709930 0.280599 -0.619170
N29   N     N_3   0.248661 0.668992 0.370123 -0.573308
N30   N     N_3   0.488061 0.838409 0.421275 -0.630021
N31   N     N_1   0.602461 0.848585 0.199502 -0.253380
N32   N     N_1   0.040034 0.540087 0.180324 -0.297308
O1    O     O_R   0.688580 0.499770 0.460490 -0.479844
O2    O     O_R   0.346150 0.177650 0.050510 -0.512524
O3    O     O_R   0.314200 0.996600 0.036060 -0.504676
O4    O     O_R   0.480400 0.672610 0.462660 -0.518123
O5    O     O_R   0.168690 0.969990 0.933130 -0.499385
O6    O     O_R   0.991920 0.175870 0.937430 -0.494681
O7    O     O_R   0.974010 0.342590 0.941330 -0.494858
O8    O     O_R   0.182630 0.317940 0.955040 -0.466631
O9    O     O_R   0.347320 0.174720 0.953250 -0.476046
O10   O     O_R   0.315290 0.993890 0.945900 -0.492588
O11   O     O_3   0.162730 0.163890 0.991180 -0.265817
O12   O     O_R   0.348600 0.476260 0.536540 -0.489160
O13   O     O_R   0.315310 0.685650 0.451800 -0.460712
O14   O     O_R   0.346220 0.474990 0.446280 -0.480135
O15   O     O_R   0.492270 0.312460 0.441630 -0.504064
O16   O     O_R   0.669740 0.350480 0.455640 -0.468310
O17   O     O_R   0.691150 0.501150 0.557860 -0.495372
O18   O     O_R   0.482790 0.673890 0.552920 -0.492985
O19   O     O_R   0.317880 0.687030 0.549170 -0.489596
O20   O     O_R   0.494840 0.313840 0.539010 -0.491586
O21   O     O_R   0.672120 0.351750 0.545910 -0.486665
O22   O     O_3   0.500010 0.500010 0.500010 -0.271459
O23   O     O_R   0.167510 0.972920 0.030390 -0.502752
O24   O     O_R   0.990840 0.178580 0.027590 -0.466235
O25   O     O_R   0.972840 0.345510 0.038590 -0.477628
O26   O     O_R   0.181550 0.320660 0.045200 -0.490372

loop_
_geom_bond_atom_site_label_1
_geom_bond_atom_site_label_2
_ccdc_geom_bond_type
C83   C87   S    
C8    C13   A    
C55   C59   A    
C27   C29   A    
C88   N4    T    
C4    O15   A    
C35   C36   A    
C51   C61   T    
C69   N19   S    
C90   N5    T    
C24   N29   S    
C76   C84   S    
C75   O24   A    
Cr4   O23   S    
H24   N19   S    
C39   C41   A    
C38   C49   S    
C45   C83   A    
C77   C78   S    
C27   C33   A    
C12   C23   A    
C66   N17   S    
C1    C18   S    
C29   C30   A    
Cr1   O22   S    
C18   C24   A    
H10   N3    S    
C62   C80   S    
C36   C37   A    
H40   N27   S    
Cr6   O3    S    
H30   N22   S    
C30   C31   S    
C27   H23   S    
H41   N27   S    
H35   N25   S    
C40   O20   A    
C10   C17   A    
C44   C50   A    
C65   C70   A    
C7    C89   A    
H5    N30   S    
C28   O18   A    
C56   C78   T    
C96   N16   T    
Cr1   O17   S    
C60   C62   T    
C95   N11   T    
C80   O6    A    
C68   C97   S    
C16   O16   A    
C54   N14   S    
C23   N20   S    
C65   C96   S    
C40   O12   A    
C66   C71   A    
H28   N21   S    
C16   O1    A    
C8    C9    A    
C97   N18   T    
H18   N15   S    
C92   N7    T    
H17   N14   S    
H29   N22   S    
H36   N26   S    
C11   H1    S    
C43   N3    S    
Cr1   O1    S    
Cr4   O11   S    
C39   C90   S    
H13   N9    S    
Cr4   O6    S    
C2    N26   S    
C1    O13   A    
C36   C92   S    
C58   C61   S    
C80   O7    A    
C59   C60   S    
H2    N28   S    
C13   C14   S    
C4    O14   A    
Cr3   O15   S    
Cr6   O9    S    
C74   C82   S    
C77   O26   A    
C76   C83   A    
C81   O8    A    
C75   O25   A    
C44   C46   A    
H21   N17   S    
C54   C59   A    
C38   C39   A    
C21   C32   S    
Cr5   O8    S    
C51   C52   S    
C64   C67   T    
C26   H12   S    
Cr6   O10   S    
C45   C56   S    
C72   C74   T    
Cr2   O12   S    
H20   N17   S    
C1    O4    A    
C94   N10   T    
C63   C73   T    
C3    C5    A    
C25   C26   A    
C53   C54   A    
Cr2   O19   S    
H31   N24   S    
Cr5   O11   S    
H9    N3    S    
C2    C89   A    
Cr5   O26   S    
C28   C63   S    
C37   C38   A    
C8    N22   S    
H8    N2    S    
C53   C95   S    
C87   N32   T    
H27   N21   S    
C26   C33   A    
C31   C32   T    
C23   C34   A    
C70   C73   S    
H3    N29   S    
C20   N2    S    
C52   O17   A    
C77   O2    A    
C86   N31   T    
C10   N12   S    
C29   C86   S    
Cr2   O14   S    
C25   N27   S    
C9    C17   A    
C48   C49   T    
C41   C91   S    
C57   N15   S    
H42   N28   S    
H37   N26   S    
C37   C94   S    
C55   C57   A    
H25   N20   S    
C22   C24   A    
C3    C85   S    
H15   N13   S    
H22   N19   S    
C42   C88   S    
C42   C43   A    
H39   N12   S    
H7    N2    S    
C81   O9    A    
C22   N28   S    
H38   N12   S    
C25   C30   A    
C82   O5    A    
C46   C47   A    
C9    N21   S    
C79   O23   A    
H14   N13   S    
C79   O3    A    
C85   N23   T    
C68   C69   A    
C33   C79   S    
Cr6   O11   S    
H33   N25   S    
C12   C45   A    
C47   C48   S    
C34   C67   S    
Cr2   O13   S    
C53   C58   A    
H6    N30   S    
C43   C50   A    
C6    C7    A    
H4    N29   S    
C84   N1    T    
C4    C64   S    
C55   H34   S    
H26   N20   S    
C82   O10   A    
C44   N9    S    
C19   C20   A    
C93   N8    T    
C35   C40   S    
Cr5   O25   S    
Cr5   O7    S    
C71   C72   S    
Cr4   O24   S    
Cr3   O20   S    
C91   N6    T    
C11   C13   A    
C57   C58   A    
C5    C6    A    
C46   C93   S    
Cr1   O4    S    
C68   C71   A    
C28   O19   A    
Cr1   O18   S    
C2    C3    A    
Cr6   O2    S    
C42   C47   A    
H32   N24   S    
C69   C70   A    
C35   C41   A    
C19   N30   S    
C5    C15   S    
C10   C11   A    
Cr3   O22   S    
Cr3   O16   S    
C16   C89   S    
C52   O21   A    
C20   C21   A    
H16   N14   S    
C65   C66   A    
C7    N25   S    
Cr2   O22   S    
C17   C75   S    
C18   C19   A    
H19   N15   S    
C14   C15   T    
C12   N13   S    
C21   C22   A    
H11   N9    S    
Cr4   O5    S    
C50   C81   S    
C34   C76   A    
C6    N24   S    
Cr3   O21   S    
