data_mof_unit_23070.cif
_audit_creation_date              2012-12-11T17:41:20-0500
_audit_creation_method            fapswitch 2.2
_symmetry_space_group_name_H-M    P1
_symmetry_Int_Tables_number       1
_space_group_crystal_system       triclinic
_cell_length_a                    15.480348
_cell_length_b                    14.898673
_cell_length_c                    15.084467
_cell_angle_alpha                 109.701645
_cell_angle_beta                  121.417104
_cell_angle_gamma                 59.222373
_cell_volume                      2539.05388266

loop_
_atom_site_label
_atom_site_type_symbol
_atom_type_description
_atom_site_fract_x
_atom_site_fract_y
_atom_site_fract_z
_atom_type_partial_charge
C1    C     C_R   0.801942 0.938833 0.773885 -0.129535
C2    C     C_R   0.243460 0.007373 0.209193 -0.124199
C3    C     C_R   0.136424 0.273422 0.480400 0.152493
C4    C     C_R   0.788304 0.699955 0.434579 0.151933
C5    C     C_R   0.506821 0.323935 0.552832 0.053891
C6    C     C_R   0.497636 0.700688 0.567467 0.071538
C7    C     C_R   0.502046 0.028621 0.825329 0.049527
C8    C     C_R   0.504599 0.065037 0.204567 0.052892
C9    C     C_R   0.627253 0.673514 0.872359 -0.102214
C10   C     C_R   0.388604 0.395934 0.254007 -0.109826
C11   C     C_R   0.571429 0.780386 0.897483 -0.154565
C12   C     C_R   0.444350 0.297000 0.212142 -0.137957
C13   C     C_R   0.627952 0.845454 0.945421 0.142924
C14   C     C_R   0.393477 0.263320 0.105824 0.129296
C15   C     C_R   0.742130 0.801552 0.971320 -0.177182
C16   C     C_R   0.287399 0.332799 0.041988 -0.164538
C17   C     C_R   0.797261 0.695024 0.944134 -0.122262
C18   C     C_R   0.232014 0.431788 0.084142 -0.115918
C19   C     C_R   0.739863 0.630995 0.894747 -0.102688
C20   C     C_R   0.282317 0.463116 0.190144 -0.093446
C21   C     C_R   0.573889 0.969286 0.078752 -0.237673
C22   C     C_R   0.449043 0.142179 0.964167 -0.244253
C23   C     C_R   0.198595 0.273960 0.440052 -0.131583
C24   C     C_R   0.756539 0.709545 0.509428 -0.121171
C25   C     C_R   0.512091 0.067139 0.115686 0.058982
C26   C     C_R   0.507356 0.042107 0.925589 0.070064
C27   C     C_R   0.451445 0.156586 0.061553 0.020752
C28   C     C_R   0.571830 0.955028 0.983830 0.005953
C29   C     C_2   0.021215 0.346199 0.461510 -0.222865
C30   C     C_2   0.849543 0.601941 0.386954 -0.216722
C31   C     C_2   0.960149 0.415940 0.391340 -0.107779
C32   C     C_2   0.865424 0.509811 0.400999 -0.107550
C33   C     C_2   0.982780 0.954319 0.845661 -0.231510
C34   C     C_2   0.150403 0.882232 0.101565 -0.216746
C35   C     C_R   0.195469 0.883439 0.637335 -0.204579
C36   C     C_R   0.912239 0.272610 0.697422 -0.207959
C37   C     C_R   0.295776 0.796559 0.645605 -0.190517
C38   C     C_R   0.796814 0.324795 0.643052 -0.214093
C39   C     C_R   0.296493 0.707100 0.573844 0.129074
C40   C     C_R   0.727104 0.358081 0.691570 0.111165
C41   C     C_R   0.194594 0.706239 0.493285 -0.224425
C42   C     C_R   0.774107 0.331952 0.792853 -0.206652
C43   C     C_R   0.094136 0.793125 0.485049 -0.157822
C44   C     C_R   0.890001 0.280061 0.847611 -0.169773
C45   C     C_R   0.596301 0.228652 0.556446 -0.141065
C46   C     C_R   0.406431 0.782353 0.509618 -0.148308
C47   C     C_R   0.093788 0.882220 0.557239 0.327468
C48   C     C_R   0.960128 0.253721 0.801642 0.311754
C49   C     C_R   0.410864 0.515495 0.583864 -0.251408
C50   C     C_R   0.603099 0.535208 0.644563 -0.253336
C51   C     C_R   0.511942 0.425754 0.601065 0.061535
C52   C     C_R   0.499811 0.619038 0.603414 0.054743
C53   C     C_R   0.611517 0.438990 0.646058 0.031956
C54   C     C_R   0.403374 0.613674 0.585981 0.030379
C55   C     C_2   0.041469 0.884743 0.915725 -0.105610
C56   C     C_2   0.136693 0.894405 0.010493 -0.111105
C57   C     C_R   0.407395 0.043398 0.731804 -0.137213
C58   C     C_R   0.594835 0.013174 0.287944 -0.159992
C59   C     C_R   0.410889 0.306042 0.483610 -0.122734
C60   C     C_R   0.590582 0.711658 0.588906 -0.128432
C61   C     C_R   0.594120 0.973303 0.805579 -0.107399
C62   C     C_R   0.410008 0.086116 0.209881 -0.127183
C63   C     C_R   0.198487 0.184087 0.531953 -0.157310
C64   C     C_R   0.757638 0.800328 0.417758 -0.155061
C65   C     C_R   0.804337 0.029641 0.685230 -0.157204
C66   C     C_R   0.242193 0.915337 0.299351 -0.143525
C67   C     C_R   0.866283 0.976723 0.773443 0.159702
C68   C     C_R   0.211691 0.931338 0.199488 0.147691
H1    H     H_    0.828769 0.882223 0.822612 0.082052
H2    H     H_    0.230495 0.040903 0.147759 0.092392
H3    H     H_    0.105027 0.846777 0.103369 0.127965
H4    H     H_    0.016033 0.004339 0.848798 0.147982
H5    H     H_    0.783079 0.548191 0.875330 0.114672
H6    H     H_    0.239245 0.539688 0.222664 0.098704
H7    H     H_    0.583543 0.623439 0.836935 0.125050
H8    H     H_    0.428022 0.420614 0.335973 0.119995
H9    H     H_    0.485433 0.811955 0.883473 0.108109
H10   H     H_    0.527504 0.247135 0.262846 0.112906
H11   H     H_    0.788359 0.849657 0.013106 0.103873
H12   H     H_    0.246883 0.310219 0.959747 0.103826
H13   H     H_    0.884930 0.661719 0.963106 0.101443
H14   H     H_    0.149908 0.484196 0.034534 0.101199
H15   H     H_    0.618481 0.900977 0.121225 0.139118
H16   H     H_    0.403592 0.208228 0.918800 0.131504
H17   H     H_    0.823287 0.505856 0.437886 0.127158
H18   H     H_    0.990212 0.414126 0.339643 0.125482
H19   H     H_    0.893008 0.604889 0.350733 0.128603
H20   H     H_    0.990205 0.349420 0.513229 0.127525
H21   H     H_    0.170629 0.324486 0.384639 0.083082
H22   H     H_    0.769273 0.647747 0.542891 0.088997
H23   H     H_    0.197332 0.951574 0.693416 0.118824
H24   H     H_    0.964392 0.252697 0.660079 0.118125
H25   H     H_    0.373125 0.799230 0.707390 0.129136
H26   H     H_    0.762047 0.345190 0.565256 0.129560
H27   H     H_    0.192815 0.638469 0.436602 0.119142
H28   H     H_    0.721928 0.358592 0.832117 0.131188
H29   H     H_    0.016443 0.790649 0.422895 0.114076
H30   H     H_    0.925296 0.266610 0.928074 0.126375
H31   H     H_    0.336369 0.508637 0.564049 0.130410
H32   H     H_    0.679746 0.540890 0.670751 0.132010
H33   H     H_    0.683456 0.209184 0.598775 0.127573
H34   H     H_    0.319680 0.805403 0.485644 0.118965
H35   H     H_    0.321668 0.079180 0.719785 0.100289
H36   H     H_    0.681398 0.992604 0.311638 0.104932
H37   H     H_    0.325302 0.362948 0.459456 0.093712
H38   H     H_    0.675526 0.672759 0.644233 0.091105
H39   H     H_    0.680419 0.947784 0.861106 0.098596
H40   H     H_    0.324844 0.133209 0.160177 0.104805
H41   H     H_    0.168372 0.152469 0.559490 0.093299
H42   H     H_    0.770968 0.820902 0.365098 0.098050
H43   H     H_    0.836176 0.056042 0.654711 0.103932
H44   H     H_    0.228524 0.862106 0.319445 0.101183
H45   H     H_    0.181216 0.930073 0.007784 0.135819
H46   H     H_    0.008723 0.834447 0.913660 0.124281
N1    N     N_R   0.705410 0.966550 0.689210 -0.044108
N2    N     N_R   0.294590 0.033450 0.310790 -0.045609
N3    N     N_R   0.294590 0.188320 0.465660 -0.043547
N4    N     N_R   0.705410 0.811680 0.534340 -0.045470
N5    N     N_R   0.556610 0.157790 0.497330 -0.041282
N6    N     N_R   0.443390 0.842210 0.502670 -0.039533
N7    N     N_R   0.443390 0.997080 0.657540 -0.038100
N8    N     N_R   0.556610 0.002920 0.342460 -0.034644
N9    N     N_R   0.443390 0.203250 0.451380 -0.038868
N10   N     N_R   0.556610 0.796750 0.548620 -0.040698
N11   N     N_R   0.556610 0.951620 0.703500 -0.040843
N12   N     N_R   0.443390 0.048380 0.296500 -0.039263
N13   N     N_R   0.294590 0.131500 0.522480 -0.039369
N14   N     N_R   0.705410 0.868500 0.477520 -0.041983
N15   N     N_R   0.705410 0.023370 0.632390 -0.042162
N16   N     N_R   0.294590 0.976630 0.367610 -0.042346
Ni1   Ni    Ni4+2 0.629830 0.882720 0.617850 0.213016
Ni2   Ni    Ni4+2 0.370170 0.117280 0.382150 0.213452
Ni3   Ni    Ni4+2 0.629830 0.013030 0.487540 0.208709
Ni4   Ni    Ni4+2 0.370170 0.986970 0.512460 0.217482
C69   C     C_3   0.985213 0.974394 0.549977 -0.427169
C70   C     C_3   0.933129 0.036566 0.459109 -0.913551
H47   H     H_    0.990813 0.066140 0.468881 0.260229
H48   H     H_    0.913948 0.986700 0.383883 0.254476
H49   H     H_    0.854321 0.104699 0.457019 0.254057
H50   H     H_    0.926521 0.945689 0.539460 0.190089
H51   H     H_    0.998214 0.027977 0.623243 0.195202
C71   C     C_3   0.084150 0.219332 0.866970 -0.408390
C72   C     C_3   0.142592 0.110407 0.902312 -0.956118
H52   H     H_    0.112011 0.109875 0.954208 0.252167
H53   H     H_    0.128685 0.051920 0.833547 0.255805
H54   H     H_    0.233638 0.088446 0.946975 0.264115
H55   H     H_    0.123468 0.219200 0.822737 0.183824
H56   H     H_    0.098365 0.276700 0.936866 0.192579

loop_
_geom_bond_atom_site_label_1
_geom_bond_atom_site_label_2
_ccdc_geom_bond_type
C33   C55   D    
C72   H54   S    
C66   C68   A    
C55   C56   S    
C34   C56   D    
N9    Ni2   S    
C3    C23   A    
N13   Ni4   S    
C35   C47   A    
C49   C51   A    
C4    C30   S    
C69   C70   S    
C39   C41   A    
N1    Ni1   S    
C46   H34   S    
N5    Ni3   S    
C7    C26   S    
N4    N14   A    
C42   H28   S    
C35   C37   A    
C2    C68   A    
C4    C24   A    
C39   C54   S    
C62   H40   S    
C49   C54   A    
C18   C20   A    
C72   H53   S    
C3    C29   S    
N3    Ni2   S    
C65   H43   S    
C29   H20   S    
N4    Ni1   S    
C11   H9    S    
C33   H4    S    
C8    C58   A    
C2    N2    A    
C9    C19   A    
C15   H11   S    
C21   H15   S    
C10   C20   A    
C65   C67   A    
C12   H10   S    
C50   C52   A    
C56   H45   S    
C23   H21   S    
C13   C28   S    
C14   C27   S    
N6    Ni4   S    
C36   H24   S    
C40   C42   A    
C31   H18   S    
C8    C25   S    
C41   C43   A    
N16   Ni4   S    
C42   C44   A    
C70   H49   S    
C10   C12   A    
C52   C54   A    
C59   N9    A    
C69   H50   S    
C57   H35   S    
C58   N8    A    
C50   C53   A    
C5    C59   A    
C69   H51   S    
C46   N6    A    
C71   H56   S    
C19   H5    S    
C70   H48   S    
C34   C68   S    
C62   N12   A    
C64   N14   A    
C5    C45   A    
C1    H1    S    
C1    C67   A    
N10   Ni1   S    
C16   H12   S    
C22   H16   S    
N8    N12   A    
N8    Ni3   S    
N7    N11   A    
C6    C60   A    
C49   H31   S    
C9    C11   A    
N11   Ni1   S    
C64   H42   S    
C31   C32   S    
N2    Ni2   S    
N12   Ni2   S    
C38   H26   S    
C37   H25   S    
C59   H37   S    
N3    N13   A    
C45   H33   S    
N15   Ni3   S    
C16   C18   A    
C21   C28   A    
C12   C14   A    
C18   H14   S    
C3    C63   A    
C22   C27   A    
C13   C15   A    
N7    Ni4   S    
C14   C16   A    
C58   H36   S    
C60   H38   S    
C33   C67   S    
N1    N15   A    
C15   C17   A    
C21   C25   A    
C44   H30   S    
C6    C46   A    
C47   C69   S    
C10   H8    S    
C71   H55   S    
C43   H29   S    
C70   H47   S    
C24   H22   S    
C23   N3    A    
C65   N15   A    
C60   N10   A    
C20   H6    S    
C55   H46   S    
N5    N9    A    
C25   C27   A    
C9    H7    S    
C4    C64   A    
C26   C28   A    
C6    C52   S    
C36   C38   A    
C29   C31   D    
C44   C48   A    
N14   Ni3   S    
C30   C32   D    
C11   C13   A    
C45   N5    A    
C41   H27   S    
C38   C40   A    
C32   H17   S    
C24   N4    A    
C17   C19   A    
C36   C48   A    
C17   H13   S    
C61   H39   S    
C63   N13   A    
C50   H32   S    
C51   C53   A    
C57   N7    A    
N6    N10   A    
C48   C71   S    
N2    N16   A    
C37   C39   A    
C40   C53   S    
C22   C26   A    
C71   C72   S    
C5    C51   S    
C61   N11   A    
C1    N1    A    
C66   H44   S    
C30   H19   S    
C2    H2    S    
C43   C47   A    
C34   H3    S    
C7    C57   A    
C7    C61   A    
C72   H52   S    
C8    C62   A    
C63   H41   S    
C66   N16   A    
C35   H23   S    
