data_mof_unit_9521.cif
_audit_creation_date              2012-12-10T17:23:14-0500
_audit_creation_method            fapswitch 2.2
_symmetry_space_group_name_H-M    P1
_symmetry_Int_Tables_number       1
_space_group_crystal_system       triclinic
_cell_length_a                    15.855497
_cell_length_b                    10.81677
_cell_length_c                    9.618555
_cell_angle_alpha                 90.329835
_cell_angle_beta                  90.961602
_cell_angle_gamma                 94.799527
_cell_volume                      1643.57450373

loop_
_atom_site_label
_atom_site_type_symbol
_atom_type_description
_atom_site_fract_x
_atom_site_fract_y
_atom_site_fract_z
_atom_type_partial_charge
C1    C     C_R   0.507753 0.263665 0.500757 0.801194
C2    C     C_R   0.528292 0.060224 0.885839 -0.187461
C3    C     C_R   0.478624 0.948109 0.883866 -0.152851
C4    C     C_R   0.339940 0.498886 0.498841 0.824517
C5    C     C_R   0.461020 0.886133 0.758009 -0.156897
C6    C     C_R   0.489884 0.939028 0.631328 0.087144
C7    C     C_R   0.520961 0.064795 0.631915 0.057741
C8    C     C_R   0.517667 0.130244 0.504021 -0.120173
C9    C     C_R   0.508502 0.064186 0.378350 -0.183216
C10   C     C_R   0.498898 0.936139 0.378447 -0.195200
C11   C     C_R   0.489845 0.871812 0.504022 -0.100736
C12   C     C_3   0.082697 0.495290 0.496727 0.024651
C13   C     C_R   0.609918 0.693385 0.136270 -0.032608
C14   C     C_R   0.648869 0.786943 0.053219 -0.291223
C15   C     C_R   0.649193 0.775347 0.912153 -0.035395
C16   C     C_R   0.493694 0.736960 0.500869 0.797462
C17   C     C_R   0.606018 0.673697 0.850788 -0.154658
C18   C     C_R   0.552693 0.587341 0.925002 0.177050
C19   C     C_R   0.553568 0.591033 0.075437 0.142301
C20   C     C_R   0.449474 0.417057 0.071149 0.037346
C21   C     C_R   0.449821 0.417377 0.923737 -0.082804
C22   C     C_R   0.659671 0.495951 0.501332 0.833882
C23   C     C_3   0.978405 0.582728 0.592363 -0.224068
C24   C     C_3   0.967128 0.381927 0.545243 -0.169775
C25   C     C_3   0.019565 0.406115 0.413338 0.360751
C26   C     C_1   0.250138 0.497649 0.496001 -0.155302
C27   C     C_1   0.749174 0.494105 0.504642 -0.123462
C28   C     C_3   0.030074 0.471466 0.628261 -0.027731
C29   C     C_3   0.977995 0.242087 0.264964 0.052324
C30   C     C_3   0.004532 0.176992 0.133238 -0.315802
C31   C     C_3   0.932364 0.089374 0.073139 -0.894332
C32   C     C_1   0.392433 0.327383 0.139232 0.295930
C33   C     C_1   0.644546 0.715431 0.274117 0.366472
C34   C     C_3   0.916193 0.492728 0.507345 0.023216
C35   C     C_1   0.697286 0.866275 0.829481 0.252623
C36   C     C_1   0.930181 0.262460 0.597603 0.246786
C37   C     C_3   0.991652 0.573942 0.146205 0.087689
C38   C     C_3   0.986972 0.710773 0.109838 -0.358445
C39   C     C_3   0.050558 0.751992 0.998535 -0.889246
C40   C     C_1   0.066482 0.447701 0.765895 0.246879
C41   C     C_1   0.619882 0.215404 0.768032 0.279003
C42   C     C_3   0.032142 0.607554 0.459568 -0.292045
C43   C     C_3   0.969364 0.517158 0.376490 0.423513
C44   C     C_1   0.174496 0.496477 0.494744 0.025278
C45   C     C_1   0.824608 0.493179 0.507084 0.032451
C46   C     C_R   0.551847 0.117873 0.760879 0.008474
Cu1   Cu    Cu3+1 0.499990 0.499990 0.640660 0.946844
Cu2   Cu    Cu3+1 0.500010 0.500010 0.359340 0.966096
H1    H     H_    0.458184 0.905398 0.980498 0.144592
H2    H     H_    0.549654 0.100922 0.984866 0.133287
H3    H     H_    0.922726 0.295190 0.238276 0.165675
H4    H     H_    0.958800 0.170256 0.342979 0.161567
H5    H     H_    0.023935 0.247717 0.054145 0.244765
H6    H     H_    0.059554 0.123048 0.157520 0.234037
H7    H     H_    0.913404 0.015612 0.149077 0.252986
H8    H     H_    0.953460 0.044893 0.976877 0.268555
H9    H     H_    0.876837 0.141483 0.046783 0.269554
H10   H     H_    0.975756 0.517046 0.051435 0.182132
H11   H     H_    0.057823 0.556686 0.177218 0.157396
H12   H     H_    0.423226 0.798376 0.761385 0.165957
H13   H     H_    0.922091 0.725419 0.071248 0.236152
H14   H     H_    0.000241 0.769029 0.204408 0.218160
H15   H     H_    0.116046 0.739807 0.035656 0.261908
H16   H     H_    0.045749 0.851544 0.974998 0.258929
H17   H     H_    0.037191 0.697097 0.901619 0.258252
H18   H     H_    0.497136 0.887733 0.279395 0.157928
H19   H     H_    0.686179 0.866794 0.098752 0.157842
H20   H     H_    0.615879 0.668116 0.743043 0.212649
H21   H     H_    0.408621 0.349834 0.865921 0.147091
H22   H     H_    0.060382 0.699176 0.424514 0.156043
H23   H     H_    0.959774 0.653860 0.666908 0.163974
H24   H     H_    0.508405 0.111355 0.279290 0.163539
N1    N     N_R   0.500800 0.501210 0.147910 -0.217878
N2    N     N_R   0.500830 0.501290 0.852040 -0.199599
N3    N     N_1   0.346293 0.255044 0.193322 -0.284439
N4    N     N_1   0.675600 0.742135 0.381266 -0.319163
N5    N     N_1   0.735760 0.939142 0.763116 -0.258407
N6    N     N_1   0.901017 0.168459 0.639063 -0.260019
N7    N     N_1   0.095696 0.429003 0.873980 -0.318626
N8    N     N_1   0.675068 0.292364 0.775156 -0.266160
O1    O     O_R   0.499990 0.319640 0.618810 -0.584585
O2    O     O_3   0.930434 0.539028 0.246913 -0.620960
O3    O     O_R   0.500000 0.319660 0.381240 -0.579628
O4    O     O_R   0.379070 0.499980 0.618770 -0.577050
O5    O     O_R   0.379080 0.500000 0.381190 -0.565889
O6    O     O_R   0.500000 0.680340 0.618760 -0.614696
O7    O     O_R   0.500010 0.680360 0.381190 -0.590628
O8    O     O_R   0.620920 0.500000 0.618810 -0.587973
O9    O     O_R   0.620930 0.500020 0.381230 -0.578933
O10   O     O_3   0.047504 0.319489 0.317592 -0.602526

loop_
_geom_bond_atom_site_label_1
_geom_bond_atom_site_label_2
_ccdc_geom_bond_type
C1    C8    S    
C9    H24   S    
C25   C43   S    
C32   N3    T    
C3    H1    S    
C26   C44   T    
C7    C8    A    
C2    C46   A    
C39   H16   S    
C30   H6    S    
C25   O10   S    
C29   C30   S    
C23   C42   S    
C12   C28   S    
C5    C6    A    
C20   C32   S    
C38   C39   S    
C28   C40   S    
C1    O1    A    
C42   H22   S    
C18   C19   A    
C12   C42   S    
C2    H2    S    
C8    C9    A    
C16   O7    A    
C14   H19   S    
C22   O8    A    
C31   H8    S    
C9    C10   A    
C37   H10   S    
C38   H13   S    
C27   C45   T    
C18   N2    A    
C13   C14   A    
C16   O6    A    
C39   H17   S    
C41   N8    T    
C15   C35   S    
C29   O10   S    
C10   H18   S    
C30   H5    S    
Cu2   O7    S    
C13   C19   A    
C7    C46   A    
C23   H23   S    
C19   N1    A    
C24   C25   S    
C6    C11   A    
C4    O5    A    
C23   C28   S    
C21   N2    A    
C35   N5    T    
C24   C34   S    
C21   H21   S    
Cu1   O6    S    
C13   C33   S    
C37   C38   S    
C11   C16   S    
C33   N4    T    
Cu1   Cu2   S    
C4    O4    A    
C41   C46   S    
C23   C34   S    
C17   C18   A    
C40   N7    T    
C34   C45   S    
C24   C36   S    
Cu1   O4    S    
C37   H11   S    
C22   C27   S    
C37   O2    S    
C42   C43   S    
C29   H3    S    
C15   C17   A    
C17   H20   S    
C5    H12   S    
C14   C15   A    
Cu2   N1    S    
C34   C43   S    
C24   C28   S    
Cu1   N2    S    
C3    C5    A    
C4    C26   S    
C6    C7    A    
C1    O3    A    
C39   H15   S    
Cu2   O3    S    
C12   C25   S    
Cu2   O9    S    
Cu1   O8    S    
C31   H9    S    
C2    C3    A    
C12   C44   S    
C36   N6    T    
C30   C31   S    
C22   O9    A    
C20   N1    A    
Cu1   O1    S    
C10   C11   A    
C20   C21   A    
C43   O2    S    
Cu2   O5    S    
C31   H7    S    
C38   H14   S    
C29   H4    S    
