data_mof_unit_22877.cif
_audit_creation_date              2012-10-26T18:27:33-0400
_audit_creation_method            fapswitch 2.2
_symmetry_space_group_name_H-M    P1
_symmetry_Int_Tables_number       1
_space_group_crystal_system       triclinic
_cell_length_a                    10.779099
_cell_length_b                    10.8922
_cell_length_c                    9.84003
_cell_angle_alpha                 110.874373
_cell_angle_beta                  98.920541
_cell_angle_gamma                 90.012902
_cell_volume                      1064.48524055

loop_
_atom_site_label
_atom_site_type_symbol
_atom_type_description
_atom_site_fract_x
_atom_site_fract_y
_atom_site_fract_z
_atom_type_partial_charge
C1    C     C_R   0.488357 0.252983 0.441162 0.549461
C2    C     C_2   0.419131 0.934009 0.496936 -0.011683
C3    C     C_2   0.506408 0.516387 0.085182 -0.015349
C4    C     C_R   0.262472 0.496806 0.499841 0.536831
C5    C     C_2   0.489320 0.492655 0.922279 0.063450
C6    C     C_R   0.503270 0.746928 0.558758 0.570649
C7    C     C_R   0.737142 0.494474 0.498156 0.538396
C8    C     C_R   0.145508 0.314553 0.606713 -0.128259
C9    C     C_R   0.088914 0.228387 0.657755 -0.108942
C10   C     C_R   0.959132 0.225392 0.655602 0.012765
C11   C     C_R   0.886162 0.310316 0.602665 -0.100540
C12   C     C_R   0.073666 0.402050 0.554521 0.022719
C13   C     C_R   0.942278 0.400157 0.552616 0.006162
C14   C     C_3   0.501511 0.014109 0.267355 -0.393005
C15   C     C_3   0.765770 0.595804 0.986686 -0.286428
C16   C     C_3   0.897154 0.129445 0.705469 -0.412297
C17   C     C_3   0.316157 0.847754 0.378450 -0.365564
C18   C     C_3   0.581032 0.983097 0.724154 -0.418564
C19   C     C_R   0.128549 0.487897 0.498333 0.007962
C20   C     C_R   0.054298 0.564410 0.434482 -0.154476
C21   C     C_R   0.926210 0.563052 0.433008 -0.156240
C22   C     C_R   0.870378 0.484714 0.494865 -0.000798
C23   C     C_2   0.471661 0.111503 0.410393 -0.021178
C24   C     C_2   0.431012 0.073028 0.512828 -0.123660
C25   C     C_2   0.497185 0.889017 0.589202 -0.001528
Cu1   Cu    Cu3+1 0.521920 0.521810 0.644910 0.923268
Cu2   Cu    Cu3+1 0.478080 0.478190 0.355090 0.911840
H1    H     H_    0.096072 0.627516 0.387976 0.114382
H2    H     H_    0.545605 0.064519 0.205087 0.141109
H3    H     H_    0.568638 0.943726 0.290141 0.138268
H4    H     H_    0.414027 0.959417 0.196480 0.134638
H5    H     H_    0.656741 0.724402 0.917100 0.276337
H6    H     H_    0.831480 0.675843 0.068512 0.114462
H7    H     H_    0.807646 0.552828 0.884968 0.174681
H8    H     H_    0.754256 0.518574 0.033698 0.144089
H9    H     H_    0.967063 0.071439 0.748098 0.129642
H10   H     H_    0.844048 0.183330 0.794786 0.130612
H11   H     H_    0.831747 0.060021 0.610700 0.128816
H12   H     H_    0.417465 0.418641 0.849764 0.097232
H13   H     H_    0.249644 0.908585 0.335767 0.120920
H14   H     H_    0.356237 0.780073 0.283970 0.160421
H15   H     H_    0.261430 0.790588 0.424872 0.125787
H16   H     H_    0.645108 0.930082 0.780939 0.136245
H17   H     H_    0.639587 0.048508 0.692249 0.128427
H18   H     H_    0.522249 0.044280 0.803109 0.126181
H19   H     H_    0.572397 0.594430 0.162038 0.179825
H20   H     H_    0.383453 0.370915 0.062919 0.199987
H21   H     H_    0.245353 0.309094 0.605525 0.124013
H22   H     H_    0.146535 0.162096 0.696345 0.104239
H23   H     H_    0.785408 0.302721 0.597991 0.138513
H24   H     H_    0.870642 0.625927 0.386477 0.117971
H25   H     H_    0.413360 0.145495 0.616194 0.115586
N1    N     N_2   0.445130 0.445430 0.137370 -0.370203
N2    N     N_2   0.554930 0.554500 0.862630 -0.132066
N3    N     N_2   0.646102 0.648814 0.954885 -0.439598
O1    O     O_R   0.511700 0.332330 0.577400 -0.523212
O2    O     O_R   0.474680 0.295500 0.332650 -0.483844
O3    O     O_R   0.338160 0.518420 0.622400 -0.508923
O4    O     O_R   0.301140 0.481590 0.377650 -0.491530
O5    O     O_R   0.525320 0.704500 0.667350 -0.495265
O6    O     O_R   0.488300 0.667670 0.422600 -0.502718
O7    O     O_R   0.698860 0.518410 0.622350 -0.504411
O8    O     O_R   0.661840 0.481580 0.377600 -0.495605

loop_
_geom_bond_atom_site_label_1
_geom_bond_atom_site_label_2
_ccdc_geom_bond_type
C14   C23   S    
C24   H25   S    
C23   C24   D    
Cu2   N1    S    
C7    O7    A    
C18   H17   S    
C7    C22   S    
C11   C13   A    
C9    C10   A    
C16   H10   S    
C15   H7    S    
C19   C20   A    
C8    C12   A    
C14   H4    S    
H20   N1    S    
C21   C22   A    
C20   C21   A    
C8    H21   S    
Cu1   O7    S    
C11   H23   S    
Cu2   O4    S    
C18   H16   S    
C16   H9    S    
C2    C17   S    
C3    N1    D    
C3    H19   S    
C7    O8    A    
Cu1   Cu2   S    
C18   C25   S    
Cu2   O8    S    
C14   H3    S    
H5    N3    S    
Cu1   N2    S    
C6    O6    A    
C15   H8    S    
C1    O1    A    
C12   C19   A    
C13   C22   A    
C1    C23   S    
C2    C25   D    
C1    O2    A    
C5    H12   S    
C2    C24   S    
Cu1   O1    S    
C17   H14   S    
C6    C25   S    
C10   C11   A    
C14   H2    S    
Cu1   O3    S    
C18   H18   S    
C6    O5    A    
C5    N2    D    
C21   H24   S    
C9    H22   S    
C12   C13   A    
C4    O4    A    
Cu2   O2    S    
C4    O3    A    
C17   H15   S    
C10   C16   S    
C20   H1    S    
C16   H11   S    
N2    N3    S    
C4    C19   S    
Cu1   O5    S    
C15   H6    S    
C15   N3    S    
C8    C9    A    
C3    C5    S    
C17   H13   S    
Cu2   O6    S    
