data_mof_unit_64408.cif
_audit_creation_date              2012-12-10T19:58:47-0500
_audit_creation_method            fapswitch 2.2
_symmetry_space_group_name_H-M    P1
_symmetry_Int_Tables_number       1
_space_group_crystal_system       triclinic
_cell_length_a                    38.920281
_cell_length_b                    32.075124
_cell_length_c                    21.765869
_cell_angle_alpha                 89.997234
_cell_angle_beta                  124.450636
_cell_angle_gamma                 90.002339
_cell_volume                      22406.3420345

loop_
_atom_site_label
_atom_site_type_symbol
_atom_type_description
_atom_site_fract_x
_atom_site_fract_y
_atom_site_fract_z
_atom_type_partial_charge
Br1   Br    Br    0.080586 0.028322 0.756856 -0.449949
Br2   Br    Br    0.079583 0.931218 0.459250 -0.373011
Br3   Br    Br    0.420400 0.431241 0.540762 -0.372903
Br4   Br    Br    0.579585 0.431223 0.459244 -0.372846
Br5   Br    Br    0.831105 0.962777 0.514663 -0.302680
Br6   Br    Br    0.168885 0.962657 0.485291 -0.302125
Br7   Br    Br    0.331102 0.462812 0.514630 -0.302637
Br8   Br    Br    0.668889 0.462699 0.485325 -0.301955
Br9   Br    Br    0.937748 0.915617 0.809258 -0.457084
Br10  Br    Br    0.062188 0.915582 0.190687 -0.457165
Br11  Br    Br    0.437706 0.415650 0.809221 -0.457473
Br12  Br    Br    0.919437 0.028371 0.243164 -0.449852
Br13  Br    Br    0.562232 0.415616 0.190726 -0.457532
Br14  Br    Br    0.697468 0.939009 0.102306 -0.299203
Br15  Br    Br    0.302546 0.939504 0.898394 -0.299375
Br16  Br    Br    0.197463 0.439059 0.102232 -0.299220
Br17  Br    Br    0.802551 0.439580 0.898503 -0.299403
Br18  Br    Br    0.580596 0.528299 0.756866 -0.450042
Br19  Br    Br    0.419426 0.528347 0.243153 -0.449892
Br20  Br    Br    0.411646 0.800012 0.940895 -0.398668
Br21  Br    Br    0.588359 0.800018 0.059120 -0.398444
Br22  Br    Br    0.911668 0.300012 0.941056 -0.398693
Br23  Br    Br    0.088337 0.300018 0.058957 -0.398460
Br24  Br    Br    0.920400 0.931239 0.540755 -0.373041
C1    C     C_R   0.919353 0.000017 0.418724 0.935816
C2    C     C_R   0.968829 0.009239 0.251521 0.253024
C3    C     C_1   0.499998 0.337880 0.999990 -0.034630
C4    C     C_1   0.999996 0.875158 0.999989 -0.071716
C5    C     C_1   0.499999 0.375157 0.999992 -0.071728
C6    C     C_1   0.500001 0.124682 0.999996 -0.138520
C7    C     C_1   0.999999 0.624683 0.999994 -0.138524
C8    C     C_R   0.462984 0.771695 0.975242 0.259163
C9    C     C_R   0.537020 0.771698 0.024771 0.259151
C10   C     C_R   0.962994 0.271695 0.975309 0.259159
C11   C     C_R   0.037011 0.271698 0.024704 0.259147
C12   C     C_R   0.921387 0.969220 0.609575 0.075612
C13   C     C_R   0.531188 0.509206 0.748495 0.252990
C14   C     C_R   0.078605 0.969179 0.390410 0.075555
C15   C     C_R   0.421385 0.469237 0.609564 0.075593
C16   C     C_R   0.578608 0.469198 0.390422 0.075533
C17   C     C_R   0.500002 0.793508 0.000007 -0.022722
C18   C     C_R   0.000002 0.293508 0.000006 -0.022719
C19   C     C_R   0.036812 0.228243 0.024569 -0.184281
C20   C     C_R   0.963193 0.228240 0.975442 -0.184271
C21   C     C_R   0.536821 0.728242 0.024636 -0.184280
C22   C     C_R   0.463184 0.728240 0.975375 -0.184270
C23   C     C_R   0.000003 0.206673 0.000005 0.040841
C24   C     C_R   0.468824 0.509229 0.251516 0.253019
C25   C     C_R   0.500002 0.706673 0.000005 0.040839
C26   C     C_1   0.500002 0.838036 0.000006 0.100098
C27   C     C_1   0.000002 0.338036 0.000005 0.100096
C28   C     C_1   0.000002 0.162248 0.000003 0.013786
C29   C     C_1   0.500002 0.662248 0.000003 0.013786
C30   C     C_R   0.884871 0.966943 0.607790 0.280239
C31   C     C_R   0.115117 0.966873 0.392180 0.280260
C32   C     C_R   0.384864 0.466975 0.607766 0.280231
C33   C     C_R   0.615124 0.466908 0.392205 0.280272
C34   C     C_R   0.888081 0.960534 0.674067 0.384856
C35   C     C_R   0.032586 0.006828 0.812991 -0.206156
C36   C     C_R   0.111895 0.960468 0.325893 0.384838
C37   C     C_R   0.388066 0.460575 0.674037 0.384896
C38   C     C_R   0.611911 0.460512 0.325924 0.384855
C39   C     C_R   0.927958 0.959344 0.740770 0.125793
C40   C     C_R   0.072015 0.959305 0.259198 0.125759
C41   C     C_R   0.427940 0.459376 0.740746 0.125860
C42   C     C_R   0.572034 0.459338 0.259223 0.125830
C43   C     C_R   0.961938 0.978089 0.743897 -0.024327
C44   C     C_R   0.038052 0.978072 0.256091 -0.024330
C45   C     C_R   0.461930 0.478104 0.743887 -0.024297
C46   C     C_R   0.967423 0.006852 0.187018 -0.206210
C47   C     C_R   0.538060 0.478087 0.256102 -0.024299
C48   C     C_R   0.959477 0.981581 0.676845 -0.081955
C49   C     C_R   0.040519 0.981563 0.323150 -0.081933
C50   C     C_R   0.459475 0.481592 0.676839 -0.081968
C51   C     C_R   0.540522 0.481575 0.323156 -0.081950
C52   C     C_R   0.532589 0.506818 0.812994 -0.206147
C53   C     C_R   0.467419 0.506842 0.187014 -0.206200
C54   C     C_R   0.998292 0.992493 0.811412 -0.104120
C55   C     C_R   0.001706 0.992496 0.188586 -0.104086
C56   C     C_R   0.498289 0.492495 0.811409 -0.104129
C57   C     C_R   0.080647 0.000018 0.581276 0.935753
C58   C     C_R   0.501709 0.492498 0.188589 -0.104095
C59   C     C_R   0.727579 0.973971 0.189618 0.279061
C60   C     C_R   0.272428 0.974199 0.810725 0.279080
C61   C     C_R   0.227576 0.473996 0.189577 0.279063
C62   C     C_R   0.772430 0.474242 0.810790 0.279086
C63   C     C_R   0.706360 0.999704 0.209817 -0.264588
C64   C     C_R   0.293641 0.999727 0.790238 -0.264617
C65   C     C_R   0.206359 0.499707 0.209807 -0.264594
C66   C     C_R   0.793642 0.499736 0.790256 -0.264627
C67   C     C_R   0.728567 0.025052 0.274185 0.429467
C68   C     C_R   0.419353 0.500017 0.418724 0.935803
C69   C     C_R   0.271429 0.024888 0.725622 0.429464
C70   C     C_R   0.228568 0.525039 0.274197 0.429466
C71   C     C_R   0.771428 0.524875 0.725611 0.429470
C72   C     C_R   0.772085 0.024655 0.317641 0.458921
C73   C     C_R   0.227911 0.024507 0.682202 0.458967
C74   C     C_R   0.272087 0.524646 0.317644 0.458950
C75   C     C_R   0.727910 0.524505 0.682209 0.458991
C76   C     C_R   0.793468 0.998985 0.296614 -0.247916
C77   C     C_R   0.206533 0.999028 0.703494 -0.248058
C78   C     C_R   0.293468 0.498995 0.296588 -0.247932
C79   C     C_R   0.580647 0.500018 0.581276 0.935741
C80   C     C_R   0.706534 0.499054 0.703541 -0.248086
C81   C     C_R   0.771052 0.973276 0.232562 0.403168
C82   C     C_R   0.228955 0.973517 0.767815 0.403102
C83   C     C_R   0.271050 0.473305 0.232509 0.403161
C84   C     C_R   0.728957 0.473571 0.767899 0.403098
C85   C     C_R   0.995817 0.999657 0.615599 0.933994
C86   C     C_R   0.004189 0.999658 0.384408 0.933959
C87   C     C_R   0.495820 0.499657 0.615602 0.933990
C88   C     C_R   0.504186 0.499658 0.384405 0.933956
C89   C     C_1   0.661826 0.999831 0.163852 0.085034
C90   C     C_R   0.994787 0.997562 0.680446 -0.105930
C91   C     C_1   0.338175 0.999845 0.836170 0.085024
C92   C     C_1   0.161825 0.499833 0.163849 0.085024
C93   C     C_1   0.838176 0.499848 0.836177 0.085014
C94   C     C_1   0.838014 0.999567 0.339660 0.032697
C95   C     C_1   0.161986 0.999587 0.660409 0.032587
C96   C     C_1   0.338014 0.499571 0.339643 0.032692
C97   C     C_1   0.661986 0.499599 0.660437 0.032557
C98   C     C_1   0.875241 0.999930 0.375661 -0.089080
C99   C     C_1   0.124758 0.999935 0.624372 -0.089091
C100  C     C_1   0.375241 0.499930 0.375653 -0.089069
C101  C     C_R   0.005220 0.997566 0.319561 -0.105961
C102  C     C_1   0.624758 0.499938 0.624385 -0.089091
C103  C     C_1   0.624568 0.999911 0.125512 -0.113345
C104  C     C_1   0.375433 0.999918 0.874493 -0.113320
C105  C     C_1   0.124568 0.499912 0.125512 -0.113351
C106  C     C_1   0.875433 0.499919 0.874494 -0.113326
C107  C     C_1   0.500001 0.875349 0.000005 -0.081158
C108  C     C_1   0.000001 0.375349 0.000004 -0.081163
C109  C     C_R   0.999999 0.919337 0.999995 0.970136
C110  C     C_R   0.499999 0.419336 0.999996 0.970027
C111  C     C_R   0.999658 0.997210 0.879184 0.920891
C112  C     C_R   0.494789 0.497562 0.680447 -0.105905
C113  C     C_R   0.000341 0.997213 0.120816 0.920926
C114  C     C_R   0.499658 0.497211 0.879183 0.920865
C115  C     C_R   0.500342 0.497213 0.120817 0.920901
C116  C     C_R   0.000000 0.080685 0.000000 0.903234
C117  C     C_R   0.500000 0.580685 0.000000 0.903220
C118  C     C_R   0.500000 0.919584 0.000001 0.897308
C119  C     C_R   1.000000 0.419584 0.000001 0.897295
C120  C     C_R   0.580421 0.999984 0.080618 0.887805
C121  C     C_R   0.419579 0.999985 0.919382 0.887812
C122  C     C_R   0.080421 0.499984 0.080618 0.887792
C123  C     C_R   0.505217 0.497566 0.319559 -0.105938
C124  C     C_R   0.919579 0.499984 0.919383 0.887797
C125  C     C_1   0.000001 0.124935 0.000002 -0.149513
C126  C     C_1   0.500001 0.624935 0.000002 -0.149511
C127  C     C_R   0.500000 0.080491 0.999999 0.880574
C128  C     C_R   0.000000 0.580491 0.999999 0.880530
C129  C     C_R   0.469838 0.227792 0.936068 -0.144893
C130  C     C_R   0.530163 0.227792 0.063917 -0.144876
C131  C     C_R   0.969170 0.727795 0.936732 -0.144941
C132  C     C_R   0.030815 0.727797 0.063242 -0.144922
C133  C     C_R   0.500001 0.206335 0.999993 -0.052088
C134  C     C_R   0.031184 0.009215 0.748490 0.252993
C135  C     C_R   0.999994 0.706338 0.999988 -0.052018
C136  C     C_R   0.031356 0.771211 0.064334 0.448862
C137  C     C_R   0.968625 0.771210 0.935639 0.448860
C138  C     C_R   0.530697 0.271206 0.065017 0.448670
C139  C     C_R   0.469303 0.271206 0.934965 0.448659
C140  C     C_R   0.999990 0.793293 0.999985 -0.117810
C141  C     C_R   0.499999 0.293290 0.999990 -0.117919
C142  C     C_1   0.500001 0.161960 0.999995 0.028013
C143  C     C_1   0.999996 0.661962 0.999991 0.028064
C144  C     C_1   0.999992 0.837882 0.999984 -0.034383
H1    H     H_    0.446517 0.210727 0.886651 0.192699
H2    H     H_    0.939571 0.017521 0.135489 0.200636
H3    H     H_    0.560450 0.517462 0.864532 0.200671
H4    H     H_    0.439564 0.517501 0.135482 0.200643
H5    H     H_    0.822661 0.046372 0.408681 0.348397
H6    H     H_    0.177326 0.046120 0.591048 0.348375
H7    H     H_    0.322665 0.546362 0.408683 0.348397
H8    H     H_    0.677321 0.546153 0.591100 0.348351
H9    H     H_    0.939355 0.820889 0.875951 0.374406
H10   H     H_    0.060610 0.820891 0.124034 0.374422
H11   H     H_    0.440635 0.320884 0.874656 0.374726
H12   H     H_    0.553484 0.210727 0.113335 0.192712
H13   H     H_    0.559366 0.320884 0.125322 0.374735
H14   H     H_    0.859351 0.951287 0.722225 0.366323
H15   H     H_    0.140611 0.951204 0.277713 0.366336
H16   H     H_    0.359324 0.451352 0.722181 0.366333
H17   H     H_    0.640638 0.451271 0.277760 0.366345
H18   H     H_    0.820655 0.947873 0.244977 0.362860
H19   H     H_    0.179356 0.948344 0.755752 0.362882
H20   H     H_    0.320652 0.447946 0.244859 0.362866
H21   H     H_    0.679356 0.448487 0.755961 0.362890
H22   H     H_    0.678696 0.048493 0.263209 0.340672
H23   H     H_    0.945339 0.710730 0.887832 0.192631
H24   H     H_    0.321295 0.048123 0.736314 0.340711
H25   H     H_    0.178699 0.548450 0.263264 0.340675
H26   H     H_    0.821292 0.548069 0.736246 0.340714
H27   H     H_    0.054648 0.710733 0.112144 0.192647
H28   H     H_    0.934717 0.211339 0.956439 0.190475
H29   H     H_    0.065288 0.211343 0.043571 0.190481
H30   H     H_    0.434700 0.711339 0.956320 0.190477
H31   H     H_    0.565304 0.711343 0.043691 0.190481
H32   H     H_    0.060444 0.017480 0.864525 0.200665
O1    O     O_R   0.939010 0.034430 0.439030 -0.612622
O2    O     O_R   0.439000 0.999980 0.990770 -0.594079
O3    O     O_R   0.061000 0.499980 0.009230 -0.594146
O4    O     O_R   0.939000 0.499980 0.990770 -0.594070
O5    O     O_R   0.499990 0.061030 0.051640 -0.607918
O6    O     O_R   0.500010 0.061030 0.948360 -0.607934
O7    O     O_R   0.999990 0.561030 0.051640 -0.607885
O8    O     O_R   0.000010 0.561030 0.948360 -0.607900
O9    O     O_R   0.939020 0.965580 0.438990 -0.575802
O10   O     O_R   0.060980 0.965580 0.561010 -0.575746
O11   O     O_R   0.439020 0.465580 0.438990 -0.575792
O12   O     O_R   0.060990 0.034430 0.560970 -0.612664
O13   O     O_R   0.560980 0.465580 0.561010 -0.575720
O14   O     O_R   0.999990 0.034430 0.591600 -0.603834
O15   O     O_R   0.000010 0.034430 0.408400 -0.603812
O16   O     O_R   0.499990 0.534430 0.591600 -0.603849
O17   O     O_R   0.500010 0.534430 0.408400 -0.603829
O18   O     O_R   0.000000 0.965580 0.591570 -0.573080
O19   O     O_R   0.000000 0.965580 0.408430 -0.573073
O20   O     O_R   0.500000 0.465580 0.591570 -0.573075
O21   O     O_R   0.500000 0.465580 0.408430 -0.573067
O22   O     O_R   0.034430 0.939010 0.034360 -0.588614
O23   O     O_R   0.439010 0.534430 0.439030 -0.612632
O24   O     O_R   0.965570 0.939010 0.965640 -0.588607
O25   O     O_R   0.534430 0.439010 0.034360 -0.588499
O26   O     O_R   0.465570 0.439010 0.965640 -0.588478
O27   O     O_R   0.034440 0.999990 0.942790 -0.622241
O28   O     O_R   0.965560 0.999990 0.057210 -0.622233
O29   O     O_R   0.534440 0.499990 0.942790 -0.622251
O30   O     O_R   0.465560 0.499990 0.057210 -0.622241
O31   O     O_R   0.965580 0.000000 0.873950 -0.606079
O32   O     O_R   0.034420 0.000000 0.126050 -0.606089
O33   O     O_R   0.465580 0.500000 0.873950 -0.606046
O34   O     O_R   0.560990 0.534430 0.560970 -0.612690
O35   O     O_R   0.534420 0.500000 0.126050 -0.606057
O36   O     O_R   0.034440 0.060980 0.034440 -0.609028
O37   O     O_R   0.965560 0.060980 0.965560 -0.609042
O38   O     O_R   0.534440 0.560980 0.034440 -0.609031
O39   O     O_R   0.465560 0.560980 0.965560 -0.609045
O40   O     O_R   0.500010 0.939050 0.051750 -0.599762
O41   O     O_R   0.499990 0.939050 0.948250 -0.599769
O42   O     O_R   0.000010 0.439050 0.051750 -0.599762
O43   O     O_R   0.999990 0.439050 0.948250 -0.599768
O44   O     O_3   0.792149 0.050185 0.379913 -0.647943
O45   O     O_R   0.560990 0.000040 0.112660 -0.611098
O46   O     O_3   0.207844 0.049856 0.619690 -0.647839
O47   O     O_3   0.292151 0.550161 0.379937 -0.647910
O48   O     O_3   0.707842 0.549834 0.619669 -0.647797
O49   O     O_3   0.937004 0.790234 0.870783 -0.700524
O50   O     O_3   0.062975 0.790236 0.129190 -0.700497
O51   O     O_3   0.438354 0.290230 0.869426 -0.700325
O52   O     O_3   0.561645 0.290230 0.130554 -0.700299
O53   O     O_3   0.852715 0.950303 0.671061 -0.657652
O54   O     O_3   0.147250 0.950214 0.328880 -0.657621
O55   O     O_3   0.352693 0.450361 0.671019 -0.657647
O56   O     O_R   0.439010 0.000040 0.887340 -0.611150
O57   O     O_3   0.647273 0.450275 0.328924 -0.657623
O58   O     O_3   0.790041 0.947247 0.209395 -0.661115
O59   O     O_3   0.209973 0.947693 0.791272 -0.661106
O60   O     O_3   0.290036 0.447298 0.209308 -0.661110
O61   O     O_3   0.709978 0.447781 0.791407 -0.661106
O62   O     O_3   0.709328 0.050855 0.297147 -0.655356
O63   O     O_3   0.290662 0.050488 0.702381 -0.655287
O64   O     O_3   0.209332 0.550821 0.297190 -0.655340
O65   O     O_3   0.790660 0.550443 0.702326 -0.655269
O66   O     O_R   0.060990 0.500040 0.112660 -0.611105
O67   O     O_R   0.939010 0.500040 0.887340 -0.611159
O68   O     O_R   0.561000 0.999980 0.009230 -0.594154
Zn1   Zn    Zn3+2 0.000000 0.045980 0.500000 1.072853
Zn2   Zn    Zn3+2 0.500000 0.000050 0.930960 1.058798
Zn3   Zn    Zn3+2 0.000000 0.500050 0.069040 1.058911
Zn4   Zn    Zn3+2 0.000000 0.500050 0.930960 1.058815
Zn5   Zn    Zn3+2 0.500000 0.545980 0.500000 1.072826
Zn6   Zn    Zn3+2 0.000000 0.954030 0.500000 1.144848
Zn7   Zn    Zn3+2 0.500000 0.454030 0.500000 1.144918
Zn8   Zn    Zn3+2 0.045980 0.999990 0.045940 1.052093
Zn9   Zn    Zn3+2 0.954020 0.999990 0.954060 1.052080
Zn10  Zn    Zn3+2 0.545980 0.499990 0.045940 1.052147
Zn11  Zn    Zn3+2 0.454020 0.499990 0.954060 1.052142
Zn12  Zn    Zn3+2 0.500000 0.000050 0.069040 1.058892

loop_
_geom_bond_atom_site_label_1
_geom_bond_atom_site_label_2
_ccdc_geom_bond_type
C70   O64   S    
C79   C102  S    
C117  O38   A    
C32   C37   A    
C63   C67   A    
C3    C5    T    
C9    C21   A    
C88   O21   A    
O32   Zn8   S    
C128  O7    A    
C59   C63   A    
C10   C18   A    
H15   O54   S    
Br6   C31   S    
C14   C31   A    
C5    C110  S    
O39   Zn11  S    
C66   C71   A    
H8    O48   S    
C131  C137  A    
O17   Zn5   S    
H26   O65   S    
C22   C25   A    
H19   O59   S    
C76   C81   A    
Br24  C12   S    
O34   Zn5   S    
C111  O27   A    
C57   C99   S    
O11   Zn7   S    
C40   C44   A    
C124  O67   A    
Br1   C134  S    
C139  C141  A    
Br18  C13   S    
C113  O28   A    
C1    O1    A    
O66   Zn3   S    
C68   C100  S    
C30   C34   A    
C121  O2    A    
C35   C134  A    
C71   C75   A    
C104  C121  S    
C71   O65   S    
Br21  C9    S    
C70   C74   A    
C136  C140  A    
C24   C123  A    
C48   C90   A    
O29   Zn10  S    
C34   C39   A    
C109  O24   A    
O41   Zn2   S    
C34   O53   S    
C43   C48   A    
C94   C98   T    
H16   O55   S    
C65   C70   A    
C122  O66   A    
C11   C18   A    
O12   Zn1   S    
O43   Zn4   S    
C72   O44   S    
C27   C108  T    
C138  O52   S    
C85   O18   A    
C68   O11   A    
C67   C72   A    
C68   O23   A    
C90   C134  A    
C92   C105  T    
Br4   C16   S    
C28   C125  T    
O8    Zn4   S    
C50   C112  A    
C60   C82   A    
C88   O17   A    
O40   Zn12  S    
C121  O56   A    
O45   Zn12  S    
C11   C19   A    
C1    C98   S    
C79   O13   A    
C20   C23   A    
C18   C27   S    
O26   Zn11  S    
C47   C58   A    
C31   C36   A    
C108  C119  S    
H7    O47   S    
C57   O10   A    
C45   C56   A    
Br3   C15   S    
C37   O55   S    
C12   C30   A    
C111  O31   A    
C120  O45   A    
O20   Zn7   S    
C82   O59   S    
C120  O68   A    
C43   C54   A    
Br14  C59   S    
C113  O32   A    
Br22  C10   S    
C35   C54   A    
C75   C80   A    
C130  C138  A    
C117  C126  S    
Br13  C42   S    
C114  O29   A    
C45   C50   A    
O33   Zn11  S    
C39   C43   A    
C20   H28   S    
H25   O64   S    
O31   Zn9   S    
C131  C135  A    
C4    C109  S    
C77   C95   S    
C66   C93   S    
O13   Zn7   S    
Br5   C30   S    
C132  C136  A    
C132  H27   S    
C10   C20   A    
C87   O16   A    
C6    C142  T    
C130  C133  A    
C85   O14   A    
C62   C66   A    
C73   O46   S    
C38   C42   A    
Br19  C24   S    
C80   C97   S    
C51   C123  A    
C130  H12   S    
C74   C78   A    
C106  C124  S    
O19   Zn6   S    
O15   Zn1   S    
C91   C104  T    
C59   C81   A    
O14   Zn1   S    
Br12  C2    S    
C83   O60   S    
O36   Zn8   S    
C2    C101  A    
C24   C53   A    
Br11  C41   S    
C52   H3    S    
C118  O40   A    
O27   Zn8   S    
C110  O25   A    
C122  O3    A    
C93   C106  T    
C136  O50   S    
Br8   C33   S    
C138  C141  A    
H11   O51   S    
O67   Zn4   S    
Br2   C14   S    
C42   C47   A    
H10   O50   S    
C21   C25   A    
C35   H32   S    
O16   Zn5   S    
H9    O49   S    
H20   O60   S    
C58   C115  S    
C36   O54   S    
C109  O22   A    
C119  O42   A    
H21   O61   S    
C78   C83   A    
C19   H29   S    
C15   C32   A    
O1    Zn1   S    
C127  O5    A    
C1    O9    A    
C86   O19   A    
C107  C118  S    
C38   O57   S    
C105  C122  S    
C23   C28   S    
C67   O62   S    
C131  H23   S    
C85   C90   S    
C3    C141  S    
H6    O46   S    
C140  C144  S    
H17   O57   S    
C55   C113  S    
C13   C52   A    
O68   Zn2   S    
C79   O34   A    
Br23  C11   S    
O23   Zn5   S    
O6    Zn2   S    
C81   O58   S    
C115  O35   A    
C29   C126  T    
C2    C46   A    
C54   C111  S    
C119  O43   A    
C65   C92   S    
C76   C94   S    
C87   O20   A    
C33   C38   A    
C8    C17   A    
C49   C101  A    
C69   C73   A    
C17   C26   S    
C80   C84   A    
C137  C140  A    
C78   C96   S    
C124  O4    A    
Br20  C8    S    
C77   C82   A    
C41   C45   A    
O25   Zn10  S    
C64   C69   A    
C61   C65   A    
C16   C33   A    
C46   C55   A    
Br9   C39   S    
O35   Zn10  S    
C8    C22   A    
C128  O8    A    
C132  C135  A    
Br10  C40   S    
C60   C64   A    
O18   Zn6   S    
C7    C143  T    
C19   C23   A    
O38   Zn10  S    
H13   O52   S    
C26   C107  T    
C133  C142  S    
C137  O49   S    
C37   C41   A    
C52   C56   A    
C16   C51   A    
Br15  C60   S    
C89   C103  T    
C95   C99   T    
O28   Zn9   S    
C21   H31   S    
C118  O41   A    
C13   C112  A    
C56   C114  S    
C88   C123  S    
O30   Zn11  S    
C36   C40   A    
O22   Zn8   S    
C9    C17   A    
O42   Zn3   S    
H22   O62   S    
C64   C91   S    
C139  O51   S    
C86   O15   A    
C44   C49   A    
H24   O63   S    
C97   C102  T    
C110  O26   A    
C129  C139  A    
C47   C51   A    
C7    C128  S    
H5    O44   S    
O2    Zn12  S    
C6    C127  S    
Br16  C61   S    
O56   Zn2   S    
C53   C58   A    
H18   O58   S    
C53   H4    S    
C25   C29   S    
O24   Zn9   S    
C72   C76   A    
O5    Zn12  S    
C116  O37   A    
O10   Zn6   S    
C135  C143  S    
O21   Zn7   S    
C115  O30   A    
Br7   C32   S    
C103  C120  S    
C15   C50   A    
C127  O6    A    
C129  C133  A    
Br17  C62   S    
C87   C112  S    
H14   O53   S    
C63   C89   S    
C22   H30   S    
O3    Zn4   S    
C4    C144  T    
C86   C101  S    
O4    Zn3   S    
C12   C48   A    
C74   O47   S    
C57   O12   A    
C84   O61   S    
C44   C55   A    
C117  O39   A    
O9    Zn6   S    
C46   H2    S    
C129  H1    S    
C116  O36   A    
O37   Zn9   S    
C114  O33   A    
C75   O48   S    
C62   C84   A    
C61   C83   A    
O7    Zn3   S    
C116  C125  S    
C73   C77   A    
C96   C100  T    
C69   O63   S    
C14   C49   A    
