data_mof_unit_62201.cif
_audit_creation_date              2012-10-26T17:42:38-0400
_audit_creation_method            fapswitch 2.2
_symmetry_space_group_name_H-M    P1
_symmetry_Int_Tables_number       1
_space_group_crystal_system       triclinic
_cell_length_a                    30.704431
_cell_length_b                    30.703198
_cell_length_c                    23.554005
_cell_angle_alpha                 89.99216
_cell_angle_beta                  130.788339
_cell_angle_gamma                 89.99961
_cell_volume                      16811.9753555

loop_
_atom_site_label
_atom_site_type_symbol
_atom_type_description
_atom_site_fract_x
_atom_site_fract_y
_atom_site_fract_z
_atom_type_partial_charge
C1    C     C_R   0.808820 0.809295 0.499251 0.555416
C2    C     C_1   0.516221 0.743391 0.034239 -0.034943
C3    C     C_R   0.907799 0.094270 0.498771 0.001213
C4    C     C_R   0.650761 0.599831 0.562685 0.041139
C5    C     C_R   0.349237 0.599868 0.437275 0.041136
C6    C     C_R   0.152677 0.093064 0.554465 0.039483
C7    C     C_R   0.849024 0.099387 0.437648 0.040978
C8    C     C_3   0.700532 0.568380 0.605958 0.022407
C9    C     C_3   0.299448 0.568443 0.393950 0.022368
C10   C     C_3   0.195695 0.058009 0.577103 0.015617
C11   C     C_3   0.799549 0.067672 0.395380 0.022106
C12   C     C_3   0.735215 0.603458 0.603008 -0.102883
C13   C     C_1   0.982883 0.245201 0.966229 -0.035010
C14   C     C_3   0.264763 0.603528 0.396885 -0.102966
C15   C     C_3   0.231059 0.093852 0.576960 -0.097321
C16   C     C_3   0.764839 0.102787 0.398233 -0.102411
C17   C     C_R   0.440272 0.559540 0.499781 0.556732
C18   C     C_R   0.559723 0.559539 0.500211 0.556722
C19   C     C_R   0.940260 0.059516 0.499779 0.555697
C20   C     C_R   0.059802 0.059317 0.500181 0.554959
C21   C     C_R   0.940496 0.940381 0.500080 0.542849
C22   C     C_R   0.059576 0.940514 0.500042 0.546657
C23   C     C_R   0.440481 0.440393 0.500078 0.549972
C24   C     C_1   0.017089 0.245203 0.033774 -0.035007
C25   C     C_R   0.559522 0.440392 0.499929 0.549952
C26   C     C_R   0.822290 0.749960 0.644511 0.539248
C27   C     C_R   0.177700 0.749957 0.355485 0.540524
C28   C     C_R   0.322302 0.249955 0.644506 0.542485
C29   C     C_R   0.677721 0.249947 0.355495 0.539591
C30   C     C_R   0.445237 0.779965 0.850696 -0.092378
C31   C     C_R   0.563357 0.784236 0.150493 -0.092748
C32   C     C_R   0.936172 0.285265 0.849298 -0.092656
C33   C     C_R   0.063789 0.285268 0.150681 -0.092681
C34   C     C_R   0.406780 0.783040 0.772129 -0.008728
C35   C     C_R   0.817719 0.868751 0.438546 -0.002282
C36   C     C_R   0.602801 0.787237 0.229086 -0.009429
C37   C     C_R   0.897080 0.287813 0.770639 -0.009053
C38   C     C_R   0.102889 0.287817 0.229339 -0.009108
C39   C     C_R   0.364462 0.749919 0.728289 0.021583
C40   C     C_R   0.636188 0.750115 0.272364 0.024474
C41   C     C_R   0.863446 0.250651 0.727787 0.023556
C42   C     C_R   0.136542 0.250657 0.272212 0.023793
C43   C     C_R   0.362428 0.715131 0.765611 -0.144360
C44   C     C_R   0.629469 0.711478 0.235143 -0.145773
C45   C     C_R   0.869572 0.212474 0.765585 -0.145755
C46   C     C_R   0.102039 0.849620 0.439532 0.000538
C47   C     C_R   0.130431 0.212481 0.234434 -0.145468
C48   C     C_R   0.401120 0.712719 0.843758 -0.122856
C49   C     C_R   0.589969 0.709104 0.157015 -0.123050
C50   C     C_R   0.908751 0.210551 0.843795 -0.122634
C51   C     C_R   0.091245 0.210558 0.156227 -0.122567
C52   C     C_3   0.797805 0.811058 0.346268 -0.417536
C53   C     C_3   0.034515 0.807639 0.319325 -0.416914
C54   C     C_3   0.294057 0.312797 0.344006 -0.416068
C55   C     C_3   0.705923 0.312744 0.655988 -0.416102
C56   C     C_3   0.000866 0.687282 0.116311 -0.408910
C57   C     C_R   0.317311 0.369542 0.439441 -0.001637
C58   C     C_3   0.996061 0.685168 0.886786 -0.404027
C59   C     C_3   0.505174 0.183747 0.116205 -0.408173
C60   C     C_3   0.495502 0.184137 0.883691 -0.408683
C61   C     C_3   0.720272 0.558032 0.683684 -0.369713
C62   C     C_3   0.279738 0.558125 0.316236 -0.369599
C63   C     C_3   0.222070 0.037573 0.653269 -0.370121
C64   C     C_3   0.779386 0.056828 0.317581 -0.369426
C65   C     C_3   0.690161 0.526991 0.561739 -0.393195
C66   C     C_3   0.309777 0.527038 0.438131 -0.393187
C67   C     C_3   0.172462 0.023395 0.515997 -0.392653
C68   C     C_R   0.682692 0.369521 0.560581 -0.001657
C69   C     C_3   0.810606 0.026537 0.440504 -0.392671
C70   C     C_3   0.786594 0.624489 0.677083 -0.408143
C71   C     C_3   0.213418 0.624601 0.322808 -0.408219
C72   C     C_3   0.289281 0.106401 0.652484 -0.409252
C73   C     C_3   0.713029 0.123382 0.323979 -0.408658
C74   C     C_3   0.411990 0.822080 0.738018 -0.385379
C75   C     C_3   0.609071 0.830360 0.264430 -0.386620
C76   C     C_3   0.891558 0.330532 0.734804 -0.386342
C77   C     C_3   0.108399 0.330534 0.265152 -0.386510
C78   C     C_3   0.924752 0.828946 0.640756 -0.388291
C79   C     C_R   0.842707 0.842915 0.501779 0.036329
C80   C     C_3   0.250545 0.870842 0.628809 -0.391915
C81   C     C_3   0.425980 0.327496 0.640062 -0.388639
C82   C     C_3   0.574037 0.327540 0.359943 -0.388461
C83   C     C_3   0.784392 0.930837 0.306613 -0.419262
C84   C     C_3   0.995762 0.841471 0.435213 -0.419388
C85   C     C_3   0.283047 0.432879 0.308186 -0.420701
C86   C     C_3   0.716942 0.432814 0.691847 -0.420747
C87   C     C_R   0.159586 0.843359 0.502576 0.024726
C88   C     C_R   0.342767 0.342960 0.501998 0.036401
C89   C     C_R   0.191414 0.809377 0.501265 0.558859
C90   C     C_R   0.657240 0.342960 0.498017 0.036363
C91   C     C_R   0.898305 0.853221 0.569110 -0.035678
C92   C     C_R   0.187148 0.873788 0.562139 -0.030026
C93   C     C_R   0.398938 0.352519 0.568870 -0.035394
C94   C     C_R   0.601074 0.352539 0.431141 -0.035510
C95   C     C_R   0.929754 0.886084 0.568306 -0.137242
C96   C     C_R   0.153913 0.906146 0.560473 -0.144908
C97   C     C_R   0.430345 0.385395 0.568012 -0.136800
C98   C     C_R   0.569667 0.385413 0.432001 -0.136819
C99   C     C_R   0.906359 0.908269 0.501341 -0.022035
C100  C     C_R   0.308894 0.309303 0.499414 0.555475
C101  C     C_R   0.094366 0.908702 0.499934 -0.007853
C102  C     C_R   0.406391 0.408259 0.501404 -0.018438
C103  C     C_R   0.593615 0.408256 0.498613 -0.018453
C104  C     C_R   0.848933 0.900879 0.438233 0.013386
C105  C     C_R   0.069902 0.881599 0.438152 0.022650
C106  C     C_R   0.348543 0.401584 0.438985 0.012098
C107  C     C_R   0.651459 0.401563 0.561038 0.012100
C108  C     C_3   0.820758 0.892411 0.358110 -0.100007
C109  C     C_3   0.016676 0.853824 0.393424 -0.115223
C110  C     C_3   0.318968 0.393885 0.358164 -0.100245
C111  C     C_R   0.691111 0.309302 0.500595 0.555337
C112  C     C_3   0.681021 0.393836 0.641852 -0.100234
C113  C     C_3   0.785593 0.857035 0.358061 -0.135423
C114  C     C_3   0.052884 0.818256 0.395776 -0.123543
C115  C     C_3   0.283633 0.358752 0.358253 -0.136157
C116  C     C_3   0.716357 0.358704 0.641763 -0.136144
C117  C     C_R   0.678027 0.750418 0.355501 0.539736
C118  C     C_R   0.322307 0.750268 0.644732 0.542335
C119  C     C_R   0.178088 0.250519 0.355454 0.540174
C120  C     C_R   0.821909 0.250516 0.644545 0.539227
C121  C     C_R   0.049387 0.719791 0.154523 0.016602
C122  C     C_R   0.442568 0.745067 0.886252 0.022936
C123  C     C_R   0.948666 0.718635 0.845839 0.014655
C124  C     C_R   0.551526 0.218094 0.154496 0.016105
C125  C     C_R   0.448917 0.218309 0.845457 0.016020
C126  C     C_R   0.089440 0.720440 0.233192 -0.127583
C127  C     C_R   0.908874 0.719113 0.767086 -0.119757
C128  C     C_R   0.591428 0.218807 0.233169 -0.123243
C129  C     C_R   0.408878 0.218979 0.766784 -0.120798
C130  C     C_R   0.135899 0.749753 0.272516 -0.009190
C131  C     C_R   0.863981 0.749807 0.727473 -0.007976
C132  C     C_R   0.636020 0.249710 0.272547 -0.007541
C133  C     C_R   0.556737 0.745386 0.114711 0.022781
C134  C     C_R   0.364111 0.249755 0.727459 -0.005664
C135  C     C_R   0.141906 0.778736 0.231923 -0.138235
C136  C     C_R   0.859335 0.780258 0.767765 -0.140571
C137  C     C_R   0.640306 0.280236 0.232032 -0.140582
C138  C     C_R   0.359794 0.280200 0.768029 -0.140526
C139  C     C_R   0.102271 0.778459 0.153655 -0.131174
C140  C     C_R   0.898800 0.780123 0.846034 -0.131050
C141  C     C_R   0.600739 0.279960 0.153766 -0.130648
C142  C     C_R   0.399464 0.279938 0.846298 -0.130270
C143  C     C_R   0.056015 0.749251 0.114518 0.053840
C144  C     C_R   0.942254 0.246846 0.885658 0.022956
C145  C     C_R   0.943442 0.749558 0.885369 0.050458
C146  C     C_R   0.556328 0.249174 0.114563 0.053694
C147  C     C_R   0.444033 0.249267 0.885446 0.053712
C148  C     C_1   0.016398 0.749998 0.033726 -0.036873
C149  C     C_1   0.983179 0.750112 0.966182 -0.037686
C150  C     C_1   0.516755 0.249956 0.033779 -0.038803
C151  C     C_1   0.483630 0.249989 0.966232 -0.038576
C152  C     C_R   0.682399 0.631084 0.561400 0.001480
C153  C     C_R   0.317600 0.631123 0.438558 0.001394
C154  C     C_R   0.184402 0.124796 0.554187 0.003628
C155  C     C_R   0.057721 0.246850 0.114343 0.022978
C156  C     C_R   0.817380 0.130659 0.438882 0.001383
C157  C     C_R   0.656688 0.658176 0.499606 0.005940
C158  C     C_R   0.343305 0.658182 0.500374 0.006284
C159  C     C_R   0.157176 0.158009 0.500935 0.001514
C160  C     C_R   0.843244 0.158151 0.500250 0.005713
C161  C     C_R   0.596668 0.657098 0.442159 -0.157304
C162  C     C_R   0.403322 0.657080 0.557836 -0.157083
C163  C     C_R   0.097018 0.161849 0.453213 -0.156731
C164  C     C_R   0.903337 0.157392 0.557190 -0.157171
C165  C     C_R   0.690254 0.690720 0.499249 0.558333
C166  C     C_1   0.482376 0.743255 0.966738 -0.034833
C167  C     C_R   0.309741 0.690721 0.500741 0.558542
C168  C     C_R   0.190422 0.190658 0.499704 0.558571
C169  C     C_R   0.809703 0.190712 0.500660 0.558469
C170  C     C_R   0.564520 0.624818 0.442316 -0.159291
C171  C     C_R   0.435469 0.624802 0.557676 -0.159176
C172  C     C_R   0.064732 0.129349 0.452605 -0.159964
C173  C     C_R   0.935494 0.125094 0.557095 -0.159664
C174  C     C_R   0.592138 0.594338 0.501178 0.001408
C175  C     C_R   0.407854 0.594345 0.498799 0.001459
C176  C     C_R   0.092627 0.093541 0.501245 0.006090
Cu1   Cu    Cu3+1 0.780910 0.719080 0.500000 0.892572
Cu2   Cu    Cu3+1 0.537290 0.500000 0.574530 0.888661
Cu3   Cu    Cu3+1 0.962710 1.000000 0.425470 0.885995
Cu4   Cu    Cu3+1 0.037290 1.000000 0.574530 0.903439
Cu5   Cu    Cu3+1 0.219090 0.719080 0.500000 0.896622
Cu6   Cu    Cu3+1 0.280910 0.219080 0.500000 0.889839
Cu7   Cu    Cu3+1 0.719090 0.219080 0.500000 0.893309
Cu8   Cu    Cu3+1 0.719070 0.780890 0.500010 0.910890
Cu9   Cu    Cu3+1 0.280930 0.780890 0.499990 0.904876
Cu10  Cu    Cu3+1 0.219070 0.280890 0.500010 0.910049
Cu11  Cu    Cu3+1 0.780930 0.280890 0.499990 0.910676
Cu12  Cu    Cu3+1 0.462710 0.500000 0.425470 0.888808
H1    H     H_    0.084195 0.697783 0.263632 0.125710
H2    H     H_    0.585305 0.678934 0.129634 0.113393
H3    H     H_    0.584645 0.856603 0.221874 0.105229
H4    H     H_    0.592213 0.827794 0.294020 0.157996
H5    H     H_    0.654960 0.840269 0.304464 0.135670
H6    H     H_    0.916100 0.356931 0.776988 0.104614
H7    H     H_    0.908760 0.327211 0.705722 0.157758
H8    H     H_    0.845804 0.340742 0.694268 0.136550
H9    H     H_    0.083837 0.356932 0.222951 0.104565
H10   H     H_    0.091213 0.327209 0.294253 0.157483
H11   H     H_    0.154149 0.340748 0.305666 0.136549
H12   H     H_    0.745662 0.594374 0.567315 0.143408
H13   H     H_    0.913024 0.180689 0.871585 0.113160
H14   H     H_    0.254277 0.594431 0.432534 0.143442
H15   H     H_    0.233624 0.089841 0.532234 0.144421
H16   H     H_    0.754846 0.093921 0.434490 0.143494
H17   H     H_    0.331005 0.689334 0.734299 0.131268
H18   H     H_    0.654348 0.682713 0.266644 0.127332
H19   H     H_    0.844505 0.183694 0.734492 0.127574
H20   H     H_    0.155513 0.183703 0.265543 0.127156
H21   H     H_    0.928633 0.793847 0.633410 0.150214
H22   H     H_    0.968315 0.841466 0.688257 0.119264
H23   H     H_    0.897231 0.832589 0.655564 0.140286
H24   H     H_    0.086984 0.180697 0.128454 0.113092
H25   H     H_    0.275505 0.876837 0.610691 0.146979
H26   H     H_    0.264052 0.895361 0.672316 0.113976
H27   H     H_    0.261087 0.837996 0.654591 0.134818
H28   H     H_    0.429211 0.292497 0.631432 0.150433
H29   H     H_    0.469893 0.339579 0.687294 0.118091
H30   H     H_    0.399232 0.330910 0.656096 0.139669
H31   H     H_    0.570799 0.292538 0.368560 0.150661
H32   H     H_    0.530129 0.339639 0.312709 0.118161
H33   H     H_    0.600794 0.330959 0.343922 0.139839
H34   H     H_    0.973251 0.893026 0.619162 0.138865
H35   H     H_    0.851502 0.880200 0.351710 0.147663
H36   H     H_    0.174185 0.928686 0.606947 0.125830
H37   H     H_    0.474225 0.391797 0.618446 0.136721
H38   H     H_    0.525790 0.391830 0.381563 0.136775
H39   H     H_    0.812904 0.956723 0.314072 0.153677
H40   H     H_    0.755539 0.919894 0.247308 0.124901
H41   H     H_    0.757814 0.944570 0.318906 0.132907
H42   H     H_    0.974775 0.869947 0.437665 0.152567
H43   H     H_    0.963650 0.814827 0.404671 0.124660
H44   H     H_    0.032010 0.830423 0.493291 0.142455
H45   H     H_    0.311838 0.458574 0.315875 0.153624
H46   H     H_    0.982044 0.867551 0.336659 0.147844
H47   H     H_    0.253478 0.422576 0.248527 0.125727
H48   H     H_    0.257243 0.446560 0.321719 0.132822
H49   H     H_    0.688151 0.458504 0.684175 0.153579
H50   H     H_    0.746515 0.422488 0.751501 0.125626
H51   H     H_    0.742741 0.446510 0.678313 0.132870
H52   H     H_    0.348726 0.381506 0.350162 0.152255
H53   H     H_    0.651253 0.381453 0.649837 0.152192
H54   H     H_    0.738875 0.864352 0.321755 0.138817
H55   H     H_    0.060517 0.788773 0.428752 0.157366
H56   H     H_    0.237219 0.366733 0.323429 0.139018
H57   H     H_    0.912825 0.695332 0.736702 0.123579
H58   H     H_    0.762773 0.366675 0.676602 0.139023
H59   H     H_    0.477573 0.804945 0.884661 0.106363
H60   H     H_    0.537618 0.812286 0.116827 0.106627
H61   H     H_    0.962151 0.313324 0.882579 0.105761
H62   H     H_    0.037796 0.313325 0.117384 0.105702
H63   H     H_    0.844617 0.803663 0.387006 0.143293
H64   H     H_    0.774623 0.786812 0.352927 0.161413
H65   H     H_    0.782064 0.808213 0.288524 0.130298
H66   H     H_    0.029471 0.837708 0.289199 0.141193
H67   H     H_    0.067421 0.786537 0.327072 0.156215
H68   H     H_    0.587634 0.194887 0.263575 0.125623
H69   H     H_    0.992938 0.789876 0.284643 0.129606
H70   H     H_    0.340659 0.304675 0.383354 0.146022
H71   H     H_    0.270884 0.288684 0.350882 0.159974
H72   H     H_    0.277153 0.310572 0.285630 0.131758
H73   H     H_    0.659320 0.304634 0.616628 0.146002
H74   H     H_    0.729098 0.288634 0.649115 0.159977
H75   H     H_    0.722818 0.310499 0.714359 0.131657
H76   H     H_    0.971390 0.689007 0.054294 0.139400
H77   H     H_    0.018862 0.653807 0.133507 0.121851
H78   H     H_    0.975188 0.693251 0.133428 0.125172
H79   H     H_    0.412722 0.195135 0.736340 0.125017
H80   H     H_    0.992484 0.664786 0.922528 0.132534
H81   H     H_    0.993922 0.663361 0.847398 0.116404
H82   H     H_    0.038508 0.701747 0.922725 0.137615
H83   H     H_    0.475693 0.185533 0.054193 0.141096
H84   H     H_    0.525326 0.150952 0.133515 0.121598
H85   H     H_    0.479063 0.187512 0.133139 0.127082
H86   H     H_    0.525106 0.185968 0.945707 0.140662
H87   H     H_    0.475581 0.151266 0.866552 0.122013
H88   H     H_    0.521448 0.188074 0.866538 0.126258
H89   H     H_    0.177204 0.801717 0.260586 0.132725
H90   H     H_    0.518567 0.623130 0.395925 0.135388
H91   H     H_    0.825282 0.804323 0.738850 0.132068
H92   H     H_    0.674135 0.304476 0.260764 0.131972
H93   H     H_    0.325843 0.304348 0.739339 0.131982
H94   H     H_    0.107776 0.801134 0.123499 0.111000
H95   H     H_    0.894430 0.803929 0.876003 0.111201
H96   H     H_    0.604859 0.303868 0.123665 0.111487
H97   H     H_    0.395289 0.303758 0.876446 0.111776
H98   H     H_    0.575183 0.679820 0.395768 0.123099
H99   H     H_    0.424804 0.679783 0.604240 0.122221
H100  H     H_    0.074962 0.188771 0.414167 0.129012
H101  H     H_    0.481419 0.623095 0.604081 0.135210
H102  H     H_    0.924904 0.180388 0.603193 0.123620
H103  H     H_    0.762995 0.541867 0.719274 0.119065
H104  H     H_    0.722864 0.587855 0.712404 0.128887
H105  H     H_    0.689098 0.535815 0.677860 0.146901
H106  H     H_    0.237007 0.541981 0.280611 0.119086
H107  H     H_    0.277177 0.587959 0.287547 0.129112
H108  H     H_    0.310912 0.535900 0.322073 0.146914
H109  H     H_    0.261555 0.019119 0.675709 0.120195
H110  H     H_    0.232870 0.062638 0.694721 0.130352
H111  H     H_    0.190928 0.014656 0.646406 0.148296
H112  H     H_    0.018244 0.131759 0.413509 0.130352
H113  H     H_    0.736687 0.040656 0.282540 0.118925
H114  H     H_    0.776569 0.086438 0.288274 0.129011
H115  H     H_    0.810419 0.034419 0.323406 0.147181
H116  H     H_    0.672310 0.535149 0.504067 0.126033
H117  H     H_    0.731367 0.509281 0.590854 0.123502
H118  H     H_    0.659401 0.505065 0.557508 0.154051
H119  H     H_    0.327607 0.535174 0.495797 0.126248
H120  H     H_    0.268559 0.509347 0.408979 0.123439
H121  H     H_    0.340540 0.505105 0.442377 0.154041
H122  H     H_    0.151118 0.038810 0.460670 0.127710
H123  H     H_    0.981534 0.123670 0.603120 0.135593
H124  H     H_    0.208389 0.002744 0.531065 0.130068
H125  H     H_    0.140622 0.002218 0.510556 0.142635
H126  H     H_    0.828632 0.035027 0.498138 0.126038
H127  H     H_    0.769643 0.008587 0.411984 0.124197
H128  H     H_    0.841463 0.004685 0.444816 0.154033
H129  H     H_    0.820314 0.599628 0.713715 0.128016
H130  H     H_    0.805127 0.650197 0.665235 0.151756
H131  H     H_    0.773956 0.639897 0.707105 0.141347
H132  H     H_    0.179696 0.599758 0.286129 0.127556
H133  H     H_    0.194860 0.650303 0.334628 0.152385
H134  H     H_    0.398681 0.685586 0.871000 0.113431
H135  H     H_    0.226101 0.640024 0.292844 0.141506
H136  H     H_    0.319475 0.078501 0.675100 0.125416
H137  H     H_    0.307771 0.134156 0.644134 0.154945
H138  H     H_    0.285143 0.116518 0.694038 0.139864
H139  H     H_    0.679407 0.098334 0.288098 0.127175
H140  H     H_    0.694583 0.149250 0.335702 0.151739
H141  H     H_    0.725176 0.138493 0.293202 0.141515
H142  H     H_    0.444996 0.845465 0.781412 0.104688
H143  H     H_    0.425090 0.811552 0.705994 0.156229
H144  H     H_    0.370470 0.839804 0.700900 0.140148
O1    O     O_R   0.821190 0.768980 0.500000 -0.514263
O2    O     O_R   0.076580 0.954920 0.562940 -0.519795
O3    O     O_R   0.423420 0.454920 0.437060 -0.519112
O4    O     O_R   0.576580 0.454920 0.562940 -0.519117
O5    O     O_R   0.986330 0.954940 0.562940 -0.510881
O6    O     O_R   0.013670 0.954940 0.437060 -0.507819
O7    O     O_R   0.486330 0.454940 0.562940 -0.513280
O8    O     O_R   0.513670 0.454940 0.437060 -0.513298
O9    O     O_R   0.768960 0.821170 0.500020 -0.510065
O10   O     O_R   0.231040 0.821170 0.499980 -0.510887
O11   O     O_R   0.268960 0.321170 0.500020 -0.510182
O12   O     O_R   0.178810 0.768980 0.500000 -0.513341
O13   O     O_R   0.731040 0.321170 0.499980 -0.510263
O14   O     O_R   0.721730 0.723890 0.391250 -0.516842
O15   O     O_R   0.278270 0.723890 0.608750 -0.511624
O16   O     O_R   0.221730 0.223890 0.391250 -0.516297
O17   O     O_R   0.778270 0.223890 0.608750 -0.516276
O18   O     O_R   0.669500 0.776090 0.391270 -0.512626
O19   O     O_R   0.330500 0.776090 0.608730 -0.517978
O20   O     O_R   0.169500 0.276090 0.391270 -0.512590
O21   O     O_R   0.830500 0.276090 0.608730 -0.512767
O22   O     O_R   0.731010 0.678810 0.499990 -0.514251
O23   O     O_R   0.321190 0.268980 0.500000 -0.513962
O24   O     O_R   0.268990 0.678810 0.500010 -0.513988
O25   O     O_R   0.231010 0.178810 0.499990 -0.515566
O26   O     O_R   0.768990 0.178810 0.500010 -0.514091
O27   O     O_R   0.678790 0.731000 0.500010 -0.502432
O28   O     O_R   0.321210 0.731000 0.499990 -0.503427
O29   O     O_R   0.178790 0.231000 0.500010 -0.504184
O30   O     O_R   0.821210 0.231000 0.499990 -0.502581
O31   O     O_R   0.830470 0.723890 0.608750 -0.519800
O32   O     O_R   0.169530 0.723890 0.391250 -0.522535
O33   O     O_R   0.330470 0.223890 0.608750 -0.520663
O34   O     O_R   0.678810 0.268980 0.500000 -0.513930
O35   O     O_R   0.669530 0.223890 0.391250 -0.520177
O36   O     O_R   0.778250 0.776080 0.608760 -0.507508
O37   O     O_R   0.221750 0.776080 0.391240 -0.505032
O38   O     O_R   0.278250 0.276080 0.608760 -0.507108
O39   O     O_R   0.721750 0.276080 0.391240 -0.507306
O40   O     O_R   0.423360 0.545090 0.437020 -0.515108
O41   O     O_R   0.576640 0.545090 0.562980 -0.515144
O42   O     O_R   0.923360 0.045090 0.437020 -0.515009
O43   O     O_R   0.076640 0.045090 0.562980 -0.510926
O44   O     O_R   0.486270 0.545120 0.562900 -0.509707
O45   O     O_R   0.513730 0.545120 0.437100 -0.509704
O46   O     O_R   0.986270 0.045120 0.562900 -0.509364
O47   O     O_R   0.013730 0.045120 0.437100 -0.510169
O48   O     O_R   0.923420 0.954920 0.437060 -0.523280

loop_
_geom_bond_atom_site_label_1
_geom_bond_atom_site_label_2
_ccdc_geom_bond_type
C72   H136  S    
C137  H92   S    
C82   C94   S    
C60   H87   S    
C73   H139  S    
C54   H72   S    
C107  C112  S    
C10   C63   S    
C136  C140  A    
C14   C71   S    
C52   C113  S    
C135  C139  A    
C18   O41   A    
C167  O24   A    
C85   H45   S    
Cu12  O45   S    
C95   C99   A    
C42   C119  S    
C81   H28   S    
C46   C105  A    
C26   O36   A    
Cu11  O39   S    
Cu9   O19   S    
C15   C154  S    
C74   H142  S    
C146  C150  S    
C66   H120  S    
Cu8   O36   S    
C162  C171  A    
C30   C122  A    
C168  O29   A    
C68   C90   A    
C3    C19   S    
Cu2   O41   S    
C84   H42   S    
Cu6   O25   S    
C17   O44   A    
Cu2   Cu12  S    
C40   C117  S    
C69   H128  S    
C66   H121  S    
C158  C167  S    
C65   H116  S    
C95   H34   S    
C18   O45   A    
C136  H91   S    
Cu6   O33   S    
C85   C110  S    
C46   C114  S    
C48   H134  S    
C72   H137  S    
C61   H103  S    
C9    C62   S    
C108  C113  S    
Cu5   O15   S    
C52   H65   S    
C80   H26   S    
C76   H7    S    
Cu5   O32   S    
C84   H44   S    
C164  C173  A    
C148  C149  T    
C163  C172  A    
C23   O7    A    
C68   C116  S    
C171  H101  S    
C165  O22   A    
C67   H122  S    
Cu2   O7    S    
C87   C89   S    
C54   H70   S    
Cu11  O30   S    
C53   H66   S    
C39   C118  S    
C170  C174  A    
C59   C124  S    
C49   C133  A    
C152  C157  A    
C63   H110  S    
Cu5   Cu9   S    
C64   H113  S    
C85   H47   S    
C120  O21   A    
Cu1   O1    S    
C140  C145  A    
C25   O8    A    
C15   H15   S    
Cu1   Cu8   S    
C58   H82   S    
C71   H135  S    
C33   C38   A    
C117  O14   A    
C164  H102  S    
Cu4   O46   S    
C45   C50   A    
C89   O12   A    
C138  H93   S    
C86   H50   S    
C35   C113  S    
C41   C120  S    
C1    O9    A    
C33   H62   S    
C170  H90   S    
C127  C131  A    
Cu6   O23   S    
C32   C144  A    
C29   C132  S    
C125  C129  A    
Cu9   O28   S    
C126  C130  A    
C31   C36   A    
C103  C107  A    
C118  O19   A    
C16   H16   S    
C17   C175  S    
Cu8   O27   S    
C12   C152  S    
C147  C151  S    
C141  H96   S    
C15   C72   S    
C51   C155  A    
C60   H86   S    
Cu4   O5    S    
C21   C99   S    
C110  H52   S    
C55   C116  S    
Cu4   O43   S    
C92   C96   A    
C173  H123  S    
C13   C144  S    
C153  C158  A    
C62   H106  S    
C139  C143  A    
C7    C156  A    
C26   O31   A    
C100  O11   A    
C28   O33   A    
C56   H78   S    
C77   H10   S    
C78   H22   S    
C79   C91   A    
C21   O48   A    
C57   C106  A    
C8    C65   S    
C64   H115  S    
Cu7   O26   S    
C90   C111  S    
Cu2   O44   S    
C50   C144  A    
C83   H40   S    
C143  C148  S    
C4    C152  A    
C71   H133  S    
Cu12  O40   S    
C30   C34   A    
C34   C39   A    
C123  C145  A    
C156  C160  A    
C169  O26   A    
C70   H130  S    
C131  C136  A    
Cu11  O13   S    
C157  C165  S    
C89   O10   A    
C49   H2    S    
C168  O25   A    
C124  C146  A    
C32   H61   S    
C20   O43   A    
C129  C134  A    
C17   O40   A    
C75   H3    S    
C19   O46   A    
C5    C9    S    
C36   C75   S    
C1    O1    A    
C123  C127  A    
C8    C12   S    
C81   H29   S    
C12   H12   S    
C62   H108  S    
C32   C37   A    
C52   H64   S    
C76   H6    S    
C109  C114  S    
Cu4   O2    S    
C18   C174  S    
C116  H58   S    
Cu5   O24   S    
C31   H60   S    
C93   C97   A    
C112  C116  S    
Cu3   O47   S    
C161  H98   S    
C46   C87   A    
C165  O27   A    
C12   C70   S    
Cu9   O37   S    
C60   H88   S    
C142  C147  A    
C33   C155  A    
C80   H25   S    
C63   H111  S    
C84   C109  S    
C154  C159  A    
C20   C176  S    
C110  C115  S    
C35   C79   A    
C128  H68   S    
C59   H84   S    
C37   C41   A    
C65   H118  S    
C142  H97   S    
C91   C95   A    
C115  H56   S    
C40   C44   A    
C113  H54   S    
C27   C130  S    
C150  C151  T    
C96   C101  A    
C26   C131  S    
C172  C176  A    
Cu2   O4    S    
C97   H37   S    
C55   H74   S    
C69   H127  S    
C130  C135  A    
Cu10  O29   S    
C57   C115  S    
C58   C123  S    
C22   C101  S    
C47   H20   S    
C28   C134  S    
C160  C164  A    
C60   C125  S    
C21   O5    A    
C163  H100  S    
C3    C7    A    
C67   H124  S    
C94   C98   A    
C72   H138  S    
C98   C103  A    
C83   C108  S    
Cu6   Cu10  S    
C118  O15   A    
Cu10  O38   S    
C105  C109  S    
C76   H8    S    
C73   H141  S    
C51   H24   S    
C16   C156  S    
C160  C169  S    
C68   C107  A    
C2    C166  T    
C97   C102  A    
C31   C133  A    
Cu1   O14   S    
C124  C128  A    
C162  H99   S    
C99   C104  A    
C4    C174  A    
C87   C92   A    
Cu8   O18   S    
C54   H71   S    
C5    C175  A    
C27   O32   A    
C90   C94   A    
C80   H27   S    
C119  O16   A    
C63   H109  S    
C2    C133  S    
C53   H69   S    
C30   H59   S    
C64   H114  S    
C125  C147  A    
C108  H35   S    
C47   C51   A    
C83   H41   S    
C23   O3    A    
C9    C14   S    
Cu7   Cu11  S    
C66   H119  S    
C54   C115  S    
Cu3   O42   S    
C44   H18   S    
C86   H51   S    
Cu3   O48   S    
C88   C100  S    
C28   O38   A    
C141  C146  A    
C34   C74   S    
C22   O6    A    
C112  H53   S    
C37   C76   S    
C35   C104  A    
C61   H105  S    
C138  C142  A    
C169  O30   A    
C157  C161  A    
C104  C108  S    
C53   C114  S    
C50   H13   S    
C137  C141  A    
C20   O47   A    
C111  O13   A    
C139  H94   S    
C135  H89   S    
C19   O42   A    
C6    C10   S    
C100  O23   A    
C11   C69   S    
C38   C77   S    
C61   H104  S    
C132  C137  A    
C41   C45   A    
Cu7   O34   S    
Cu3   Cu4   S    
C23   C102  S    
C82   H32   S    
C22   O2    A    
C58   H80   S    
C53   H67   S    
C77   H9    S    
C78   H23   S    
C145  C149  S    
C44   C49   A    
C172  H112  S    
C80   C92   S    
C122  C166  S    
C43   H17   S    
C85   H48   S    
C121  C143  A    
C4    C8    S    
C82   H33   S    
C83   H39   S    
C10   C67   S    
C7    C11   S    
Cu12  O8    S    
C58   H81   S    
Cu8   O9    S    
C55   H75   S    
C27   O37   A    
C56   H76   S    
C70   H131  S    
C38   C42   A    
Cu5   O12   S    
C10   C15   S    
C48   C122  A    
C111  O34   A    
C14   H14   S    
C86   H49   S    
C159  C168  S    
C11   C16   S    
C84   H43   S    
C9    C66   S    
C29   O35   A    
C67   H125  S    
C96   H36   S    
Cu12  O3    S    
C127  H57   S    
C43   C48   A    
C129  H79   S    
C24   C155  S    
C8    C61   S    
Cu7   O17   S    
C109  H46   S    
C114  H55   S    
Cu1   O31   S    
C128  C132  A    
C3    C173  A    
C62   H107  S    
C101  C105  A    
C82   H31   S    
C16   C73   S    
C36   C40   A    
Cu9   O10   S    
C11   C64   S    
C74   H143  S    
Cu10  O20   S    
C25   C103  S    
C39   C43   A    
Cu1   O22   S    
C171  C175  A    
C13   C24   T    
C126  H1    S    
C86   C112  S    
C71   H132  S    
C25   O4    A    
C81   C93   S    
C65   H117  S    
C59   H83   S    
C6    C154  A    
C56   H77   S    
C77   H11   S    
C78   H21   S    
C117  O18   A    
C74   H144  S    
C161  C170  A    
C75   H5    S    
C119  O20   A    
C14   C153  S    
C159  C163  A    
C140  H95   S    
C1    C79   S    
C106  C110  S    
C88   C93   A    
C55   H73   S    
C69   H126  S    
C70   H129  S    
C134  C138  A    
Cu6   O16   S    
C120  O17   A    
C78   C91   S    
C57   C88   A    
C56   C121  S    
C75   H4    S    
C29   O39   A    
C121  C126  A    
Cu10  O11   S    
Cu3   O6    S    
C6    C176  A    
C5    C153  A    
C81   H30   S    
C59   H85   S    
C102  C106  A    
C42   C47   A    
Cu11  O21   S    
C52   H63   S    
C158  C162  A    
C73   H140  S    
C167  O28   A    
C45   H19   S    
Cu7   O35   S    
C98   H38   S    
