data_mof_unit_12559.cif
_audit_creation_date              2012-12-11T16:26:36-0500
_audit_creation_method            fapswitch 2.2
_symmetry_space_group_name_H-M    P1
_symmetry_Int_Tables_number       1
_space_group_crystal_system       triclinic
_cell_length_a                    13.972075
_cell_length_b                    13.971626
_cell_length_c                    31.589756
_cell_angle_alpha                 89.998496
_cell_angle_beta                  90.004445
_cell_angle_gamma                 120.000893
_cell_volume                      5340.48689391

loop_
_atom_site_label
_atom_site_type_symbol
_atom_type_description
_atom_site_fract_x
_atom_site_fract_y
_atom_site_fract_z
_atom_type_partial_charge
C1    C     C_R   0.565477 0.445896 0.809896 0.547945
C2    C     C_R   0.445820 0.565435 0.190086 0.551567
C3    C     C_R   0.434579 0.880400 0.309910 0.551566
C4    C     C_R   0.119601 0.554170 0.190089 0.551566
C5    C     C_1   0.005162 0.551033 0.018799 0.067864
C6    C     C_1   0.545731 0.994797 0.481209 0.067951
C7    C     C_1   0.448993 0.454134 0.018794 0.067934
C8    C     C_1   0.004422 0.550651 0.481147 0.067924
C9    C     C_1   0.546160 0.995236 0.018828 0.067891
C10   C     C_1   0.449116 0.454181 0.481189 0.067889
C11   C     C_1   0.547826 0.999462 0.519219 0.032494
C12   C     C_R   0.880412 0.434528 0.690101 0.547930
C13   C     C_1   0.000496 0.548463 0.980789 0.032491
C14   C     C_1   0.451678 0.452095 0.519200 0.032465
C15   C     C_1   0.548245 0.999884 0.980817 0.032529
C16   C     C_1   0.999811 0.548107 0.519159 0.032474
C17   C     C_1   0.451571 0.452034 0.980784 0.032521
C18   C     C_R   0.945606 0.478911 0.849663 -0.045851
C19   C     C_R   0.533287 0.054370 0.650346 -0.045863
C20   C     C_R   0.521108 0.466700 0.849661 -0.045842
C21   C     C_R   0.945525 0.478900 0.650323 -0.045860
C22   C     C_R   0.533357 0.054469 0.849677 -0.045831
C23   C     C_R   0.554114 0.119590 0.809900 0.547934
C24   C     C_R   0.521083 0.466694 0.650338 -0.045874
C25   C     C_R   0.479063 0.945040 0.349795 -0.029674
C26   C     C_R   0.054958 0.533977 0.150202 -0.029679
C27   C     C_R   0.466013 0.520922 0.349783 -0.029683
C28   C     C_R   0.479004 0.945044 0.150202 -0.029708
C29   C     C_R   0.054886 0.533971 0.349780 -0.029726
C30   C     C_R   0.465990 0.520993 0.150195 -0.029670
C31   C     C_R   0.974125 0.585971 0.864396 0.070683
C32   C     C_R   0.611870 0.025934 0.635596 0.070652
C33   C     C_R   0.414049 0.388168 0.864391 0.070684
C34   C     C_R   0.565469 0.445895 0.690104 0.547925
C35   C     C_R   0.973814 0.585872 0.635555 0.070685
C36   C     C_R   0.611916 0.025979 0.864413 0.070692
C37   C     C_R   0.414071 0.388098 0.635581 0.070669
C38   C     C_R   0.585123 0.970806 0.364815 0.075748
C39   C     C_R   0.028972 0.614148 0.135221 0.075850
C40   C     C_R   0.385752 0.414835 0.364787 0.075831
C41   C     C_R   0.585245 0.971198 0.135253 0.075782
C42   C     C_R   0.028904 0.614163 0.364755 0.075742
C43   C     C_R   0.385802 0.414843 0.135206 0.075757
C44   C     C_R   0.993781 0.610914 0.907925 0.096325
C45   C     C_R   0.880421 0.434526 0.809898 0.547938
C46   C     C_R   0.617108 0.006267 0.592066 0.096279
C47   C     C_R   0.389115 0.382882 0.907920 0.096333
C48   C     C_R   0.993225 0.610685 0.592010 0.096260
C49   C     C_R   0.617281 0.006434 0.907948 0.096309
C50   C     C_R   0.389180 0.382837 0.592047 0.096307
C51   C     C_R   0.608932 0.988054 0.408457 0.075596
C52   C     C_R   0.011706 0.620765 0.091583 0.075666
C53   C     C_R   0.379192 0.390994 0.408426 0.075640
C54   C     C_R   0.609257 0.988667 0.091628 0.075744
C55   C     C_R   0.011350 0.620614 0.408378 0.075669
C56   C     C_R   0.554101 0.119572 0.690106 0.547925
C57   C     C_R   0.379215 0.390960 0.091570 0.075697
C58   C     C_R   0.993006 0.532069 0.935676 -0.022816
C59   C     C_R   0.538963 0.006956 0.564332 -0.022830
C60   C     C_R   0.467973 0.460937 0.935673 -0.022821
C61   C     C_R   0.992501 0.531831 0.564279 -0.022882
C62   C     C_R   0.539279 0.007305 0.935704 -0.022823
C63   C     C_R   0.468023 0.460979 0.564316 -0.022837
C64   C     C_R   0.530413 0.988347 0.436047 0.025444
C65   C     C_R   0.011624 0.542109 0.063958 0.025371
C66   C     C_R   0.457995 0.469505 0.436027 0.025411
C67   C     C_R   0.445829 0.565420 0.309907 0.551573
C68   C     C_R   0.530710 0.988729 0.063983 0.025417
C69   C     C_R   0.010946 0.541781 0.435988 0.025478
C70   C     C_R   0.457900 0.469522 0.063953 0.025440
C71   C     C_R   0.986234 0.434967 0.919642 0.075674
C72   C     C_R   0.448616 0.013664 0.580383 0.075686
C73   C     C_R   0.565091 0.551251 0.919643 0.075687
C74   C     C_R   0.986062 0.434888 0.580345 0.075696
C75   C     C_R   0.448933 0.014062 0.919675 0.075677
C76   C     C_R   0.565068 0.551344 0.580373 0.075685
C77   C     C_R   0.435150 0.984837 0.420008 0.076168
C78   C     C_R   0.434557 0.880386 0.190085 0.551556
C79   C     C_R   0.015347 0.450428 0.079958 0.076152
C80   C     C_R   0.549743 0.564783 0.419999 0.076119
C81   C     C_R   0.435142 0.984712 0.079949 0.076239
C82   C     C_R   0.014704 0.450131 0.419982 0.076222
C83   C     C_R   0.549569 0.564928 0.079958 0.076146
C84   C     C_R   0.966003 0.409743 0.876581 0.126840
C85   C     C_R   0.443658 0.033881 0.623448 0.126850
C86   C     C_R   0.590295 0.556253 0.876581 0.126837
C87   C     C_R   0.966003 0.409770 0.623419 0.126848
C88   C     C_R   0.443853 0.034159 0.876606 0.126831
C89   C     C_R   0.119605 0.554175 0.309913 0.551574
C90   C     C_R   0.590225 0.556320 0.623441 0.126869
C91   C     C_R   0.410532 0.966621 0.376625 0.077795
C92   C     C_R   0.033576 0.443972 0.123337 0.077789
C93   C     C_R   0.556126 0.589443 0.376618 0.077774
C94   C     C_R   0.410324 0.966307 0.123312 0.077714
C95   C     C_R   0.033302 0.443862 0.376624 0.077700
C96   C     C_R   0.556001 0.589624 0.123334 0.077758
Cr1   Cr    Cr6+3 0.504240 0.249200 0.750000 1.127646
Cr2   Cr    Cr6+3 0.744960 0.495760 0.750000 1.127645
Cr3   Cr    Cr6+3 0.750800 0.255040 0.750000 1.127647
Cr4   Cr    Cr6+3 0.249200 0.504240 0.250000 1.131982
Cr5   Cr    Cr6+3 0.495760 0.744960 0.250000 1.131980
Cr6   Cr    Cr6+3 0.255040 0.750800 0.250000 1.131979
H1    H     H_    0.072617 0.356058 0.053621 0.276891
H2    H     H_    0.357016 0.066316 0.060037 0.284390
H3    H     H_    0.709290 0.641467 0.439945 0.283939
H4    H     H_    0.644427 0.716397 0.446303 0.277031
H5    H     H_    0.395833 0.066506 0.530601 0.265866
H6    H     H_    0.328254 0.926893 0.537225 0.262899
H7    H     H_    0.072942 0.401348 0.962815 0.263018
H8    H     H_    0.933324 0.329398 0.969440 0.265864
H9    H     H_    0.598678 0.671684 0.537202 0.262930
H10   H     H_    0.670711 0.604115 0.530606 0.265922
H11   H     H_    0.396388 0.067114 0.969462 0.265875
H12   H     H_    0.932811 0.290910 0.059948 0.284007
H13   H     H_    0.328665 0.927478 0.962881 0.262986
H14   H     H_    0.072840 0.401525 0.537111 0.262670
H15   H     H_    0.933154 0.329021 0.530635 0.266045
H16   H     H_    0.598775 0.671568 0.962833 0.263021
H17   H     H_    0.670683 0.603866 0.969436 0.265824
H18   H     H_    0.283481 0.927952 0.446268 0.277067
H19   H     H_    0.358595 0.067816 0.439994 0.283802
H20   H     H_    0.709100 0.641922 0.059971 0.283978
H21   H     H_    0.643930 0.716572 0.053618 0.276823
H22   H     H_    0.072285 0.356303 0.446579 0.276440
H23   H     H_    0.932464 0.290309 0.439734 0.284309
H24   H     H_    0.283614 0.926422 0.053366 0.276287
I1    I     I_    0.005003 0.715085 0.820404 -0.121647
I2    I     I_    0.714871 0.001672 0.178952 -0.113506
I3    I     I_    0.998788 0.713643 0.321098 -0.113308
I4    I     I_    0.286634 0.285119 0.178861 -0.113561
I5    I     I_    0.988539 0.749912 0.066512 -0.214779
I6    I     I_    0.761049 0.010850 0.433588 -0.214942
I7    I     I_    0.250055 0.238666 0.066483 -0.214738
I8    I     I_    0.988329 0.749841 0.433461 -0.214880
I9    I     I_    0.761681 0.012048 0.066589 -0.214785
I10   I     I_    0.249897 0.238842 0.433533 -0.214823
I11   I     I_    0.743255 0.977936 0.567310 -0.151833
I12   I     I_    0.710281 0.995219 0.679561 -0.121491
I13   I     I_    0.022246 0.765467 0.932658 -0.151865
I14   I     I_    0.234713 0.256664 0.567282 -0.151782
I15   I     I_    0.743382 0.977988 0.932680 -0.151811
I16   I     I_    0.021264 0.765063 0.567233 -0.151699
I17   I     I_    0.234557 0.256811 0.932648 -0.151760
I18   I     I_    0.017477 0.291899 0.146105 -0.165685
I19   I     I_    0.274783 0.982992 0.353799 -0.165853
I20   I     I_    0.708044 0.725700 0.146087 -0.165733
I21   I     I_    0.017518 0.291906 0.353869 -0.165857
I22   I     I_    0.273924 0.981849 0.145990 -0.165730
I23   I     I_    0.284931 0.289941 0.820396 -0.121633
I24   I     I_    0.708241 0.725205 0.353795 -0.165760
I25   I     I_    0.293093 0.022953 0.645017 -0.103471
I26   I     I_    0.976726 0.269954 0.855053 -0.103409
I27   I     I_    0.729817 0.706919 0.645026 -0.103394
I28   I     I_    0.293300 0.023361 0.855085 -0.103439
I29   I     I_    0.977094 0.270220 0.644995 -0.103420
I30   I     I_    0.730080 0.706770 0.855054 -0.103416
I31   I     I_    0.004739 0.715073 0.679512 -0.121517
I32   I     I_    0.710066 0.994994 0.820423 -0.121664
I33   I     I_    0.284932 0.289731 0.679540 -0.121482
I34   I     I_    0.714856 0.001143 0.321204 -0.113445
I35   I     I_    0.998261 0.713160 0.178900 -0.113512
I36   I     I_    0.286461 0.285122 0.321144 -0.113362
N1    N     N_3   0.002893 0.365090 0.051351 -0.628524
N2    N     N_3   0.362289 0.003364 0.947158 -0.545295
N3    N     N_3   0.997045 0.359041 0.552895 -0.545177
N4    N     N_3   0.641034 0.637935 0.947121 -0.545281
N5    N     N_3   0.362347 0.997510 0.448576 -0.628429
N6    N     N_3   0.634917 0.637812 0.051359 -0.628528
N7    N     N_3   0.002082 0.364704 0.448574 -0.628184
N8    N     N_3   0.362086 0.996789 0.051306 -0.628367
N9    N     N_3   0.635224 0.637566 0.448576 -0.628379
N10   N     N_3   0.361851 0.002808 0.552927 -0.545273
N11   N     N_3   0.997022 0.359050 0.947116 -0.545240
N12   N     N_3   0.640986 0.638104 0.552918 -0.545205
O1    O     O_R   0.480350 0.140770 0.796330 -0.469370
O2    O     O_R   0.140770 0.480350 0.203670 -0.463741
O3    O     O_R   0.519650 0.660420 0.296330 -0.463713
O4    O     O_R   0.339580 0.859230 0.203670 -0.463726
O5    O     O_R   0.514930 0.348530 0.793250 -0.473900
O6    O     O_R   0.833600 0.485070 0.706750 -0.473921
O7    O     O_R   0.651470 0.166400 0.793250 -0.473911
O8    O     O_R   0.514930 0.348530 0.706750 -0.473899
O9    O     O_R   0.833600 0.485070 0.793250 -0.473897
O10   O     O_R   0.651470 0.166400 0.706750 -0.473909
O11   O     O_R   0.348530 0.514930 0.293250 -0.475809
O12   O     O_R   0.660420 0.519650 0.703670 -0.469386
O13   O     O_R   0.485070 0.833600 0.206750 -0.475798
O14   O     O_R   0.166400 0.651470 0.293250 -0.475810
O15   O     O_R   0.348530 0.514930 0.206750 -0.475814
O16   O     O_R   0.485070 0.833600 0.293250 -0.475815
O17   O     O_R   0.166400 0.651470 0.206750 -0.475789
O18   O     O_3   0.666667 0.333333 0.750000 -0.280529
O19   O     O_3   0.333333 0.666667 0.250000 -0.283560
O20   O     O_R   0.859230 0.339580 0.796330 -0.469376
O21   O     O_R   0.480350 0.140770 0.703670 -0.469381
O22   O     O_R   0.660420 0.519650 0.796330 -0.469388
O23   O     O_R   0.859230 0.339580 0.703670 -0.469365
O24   O     O_R   0.140770 0.480350 0.296330 -0.463703
O25   O     O_R   0.519650 0.660420 0.203670 -0.463728
O26   O     O_R   0.339580 0.859230 0.296330 -0.463720

loop_
_geom_bond_atom_site_label_1
_geom_bond_atom_site_label_2
_ccdc_geom_bond_type
C19   C56   S    
H10   N12   S    
C21   C87   A    
C65   C79   A    
C29   C42   A    
H9    N12   S    
H4    N9    S    
C60   C73   A    
Cr4   O15   S    
C41   I2    S    
C2    O15   A    
C31   I1    S    
C7    C70   S    
C29   C89   S    
C72   C85   A    
C48   C61   A    
Cr1   O8    S    
Cr4   O19   S    
C40   I36   S    
C89   O24   A    
Cr3   O20   S    
C8    C69   S    
C54   I9    S    
Cr1   O1    S    
C68   C81   A    
C72   N10   S    
C23   O7    A    
Cr3   O18   S    
C42   C55   A    
H7    N11   S    
C58   C71   A    
Cr1   O5    S    
C23   O1    A    
C63   C76   A    
C83   C96   A    
C26   C92   A    
H14   N3    S    
C47   I17   S    
C28   C41   A    
H13   N2    S    
C28   C94   A    
C64   C77   A    
C6    C64   S    
Cr2   O9    S    
C34   O12   A    
C86   I30   S    
C30   C96   A    
C69   C82   A    
C47   C60   A    
Cr1   O18   S    
H22   N7    S    
H15   N3    S    
C7    C17   T    
C20   C86   A    
Cr4   O2    S    
C18   C84   A    
C12   O23   A    
C82   C95   A    
C22   C88   A    
C57   C70   A    
C39   I35   S    
C28   C78   S    
C5    C13   T    
C36   I32   S    
C59   C72   A    
C39   C52   A    
C82   N7    S    
C8    C16   T    
C50   C63   A    
C4    O17   A    
C57   I7    S    
C93   I24   S    
C53   I10   S    
C11   C59   S    
C35   C48   A    
C18   C31   A    
Cr5   O19   S    
C3    O26   A    
H5    N10   S    
C10   C66   S    
C94   I22   S    
H19   N5    S    
C25   C91   A    
H20   N6    S    
C31   C44   A    
C48   I16   S    
C2    O25   A    
C3    C25   S    
C1    O22   A    
C95   I21   S    
Cr2   O18   S    
Cr5   O16   S    
C67   O3    A    
C3    O16   A    
C44   C58   A    
C6    C11   T    
C29   C95   A    
C38   C51   A    
C56   O10   A    
C12   C21   S    
H16   N4    S    
C24   C34   S    
C71   N11   S    
C49   I15   S    
C75   N2    S    
C88   I28   S    
C85   I25   S    
C32   I12   S    
H24   N8    S    
Cr6   O26   S    
C25   C38   A    
C56   O21   A    
C26   C39   A    
C27   C40   A    
C19   C32   A    
Cr3   O23   S    
Cr6   O17   S    
C79   C92   A    
Cr2   O22   S    
C18   C45   S    
C27   C67   S    
C81   N8    S    
C90   I27   S    
C70   C83   A    
H17   N4    S    
Cr3   O10   S    
C55   C69   A    
C46   I11   S    
C21   C35   A    
H21   N6    S    
C84   I26   S    
C5    C65   S    
C12   O6    A    
C44   I13   S    
H6    N10   S    
C10   C14   T    
C74   C87   A    
C89   O14   A    
C87   I29   S    
C30   C43   A    
C27   C93   A    
C77   N5    S    
C16   C61   S    
C20   C33   A    
Cr2   O6    S    
Cr6   O19   S    
C35   I31   S    
C91   I19   S    
H23   N7    S    
C45   O9    A    
H2    N8    S    
C71   C84   A    
H8    N11   S    
C45   O20   A    
C77   C91   A    
C1    C20   S    
C49   C62   A    
H3    N9    S    
C66   C80   A    
C78   O4    A    
C52   I5    S    
C32   C46   A    
C43   I4    S    
C51   C64   A    
C79   N1    S    
C73   N4    S    
C19   C85   A    
C24   C90   A    
C4    C26   S    
C51   I6    S    
Cr5   O25   S    
C13   C58   S    
C61   C74   A    
C24   C37   A    
C55   I8    S    
C22   C36   A    
C83   N6    S    
H1    N1    S    
C2    C30   S    
Cr1   O21   S    
C76   N12   S    
Cr4   O11   S    
C9    C15   T    
C9    C68   S    
C38   I34   S    
Cr2   O12   S    
C53   C66   A    
C36   C49   A    
H11   N2    S    
C81   C94   A    
C1    O5    A    
C37   I33   S    
H12   N1    S    
Cr6   O4    S    
C14   C63   S    
C37   C50   A    
C33   C47   A    
C15   C62   S    
C34   O8    A    
C42   I3    S    
C50   I14   S    
C41   C54   A    
C92   I18   S    
Cr6   O14   S    
C73   C86   A    
Cr3   O7    S    
Cr5   O3    S    
C43   C57   A    
C17   C60   S    
C75   C88   A    
C54   C68   A    
C62   C75   A    
C46   C59   A    
C40   C53   A    
C4    O2    A    
C96   I20   S    
C22   C23   S    
C33   I23   S    
C78   O13   A    
C80   N9    S    
C80   C93   A    
Cr5   O13   S    
C74   N3    S    
C52   C65   A    
C67   O11   A    
H18   N5    S    
C76   C90   A    
Cr4   O24   S    
