data_mof_unit_6434.cif
_audit_creation_date              2012-12-11T17:10:34-0500
_audit_creation_method            fapswitch 2.2
_symmetry_space_group_name_H-M    P1
_symmetry_Int_Tables_number       1
_space_group_crystal_system       triclinic
_cell_length_a                    15.019203
_cell_length_b                    15.103585
_cell_length_c                    14.988924
_cell_angle_alpha                 108.838656
_cell_angle_beta                  110.296028
_cell_angle_gamma                 109.220081
_cell_volume                      2618.99056559

loop_
_atom_site_label
_atom_site_type_symbol
_atom_type_description
_atom_site_fract_x
_atom_site_fract_y
_atom_site_fract_z
_atom_type_partial_charge
Br1   Br    Br    0.956644 0.493912 0.291156 -0.376147
Br2   Br    Br    0.319587 0.015295 0.434706 -0.319949
Br3   Br    Br    0.280185 0.773697 0.372037 -0.329265
Br4   Br    Br    0.327811 0.758710 0.174927 -0.491735
Br5   Br    Br    0.141570 0.980558 0.192204 -0.391925
Br6   Br    Br    0.913833 0.106613 0.316009 -0.460869
Br7   Br    Br    0.727245 0.201820 0.306768 -0.522498
Br8   Br    Br    0.082971 0.706250 0.693493 -0.410681
Br9   Br    Br    0.131829 0.840177 0.947314 -0.427704
Br10  Br    Br    0.048469 0.695001 0.064434 -0.336817
Br11  Br    Br    0.694236 0.527987 0.156944 -0.414584
Br12  Br    Br    0.577778 0.242232 0.846074 -0.477102
Br13  Br    Br    0.780486 0.239382 0.711822 -0.615188
C1    C     C_R   0.197220 0.289118 0.198988 -0.167023
C2    C     C_R   0.408978 0.499353 0.196886 -0.130567
C3    C     C_R   0.550916 0.813620 0.587392 -0.076020
C4    C     C_R   0.527445 0.434291 0.747579 -0.109050
C5    C     C_R   0.713435 0.410793 0.413590 -0.032833
C6    C     C_R   0.535573 0.820230 0.493733 0.066206
C7    C     C_R   0.803098 0.435081 0.507887 0.121724
C8    C     C_R   0.442914 0.441622 0.137182 0.093565
C9    C     C_R   0.825068 0.821767 0.783814 0.052509
C10   C     C_R   0.885225 0.290903 0.114444 -0.130282
C11   C     C_R   0.923863 0.346670 0.226506 0.306357
C12   C     C_R   0.459022 0.454604 0.782079 0.061530
C13   C     C_R   0.936687 0.294048 0.288890 -0.128136
C14   C     C_R   0.906550 0.184408 0.236522 0.373781
C15   C     C_R   0.862681 0.128626 0.123412 -0.197970
C16   C     C_R   0.502538 0.201667 0.410376 -0.063000
C17   C     C_R   0.854142 0.181970 0.062927 -0.165581
C18   C     C_R   0.869791 0.328262 0.416596 0.294273
C19   C     C_R   0.885238 0.400796 0.514226 -0.037108
C20   C     C_R   0.989442 0.455896 0.609747 0.126275
C21   C     C_R   0.076826 0.455845 0.598998 -0.186202
C22   C     C_R   0.067221 0.419373 0.496042 0.054640
C23   C     C_R   0.560332 0.198127 0.502199 0.122725
C24   C     C_R   0.960451 0.346743 0.402424 0.052509
C25   C     C_R   0.055504 0.631195 0.771706 0.225825
C26   C     C_R   0.072317 0.686861 0.876955 0.219408
C27   C     C_R   0.046040 0.629440 0.930235 0.330317
C28   C     C_R   0.273343 0.542015 0.587377 -0.090457
C29   C     C_R   0.013914 0.520017 0.883523 -0.192240
C30   C     C_R   0.000902 0.465802 0.781162 -0.213745
C31   C     C_R   0.014551 0.518925 0.722020 -0.078285
C32   C     C_R   0.467292 0.359147 0.889012 0.091207
C33   C     C_R   0.417744 0.407740 0.839751 0.058288
C34   C     C_R   0.169883 0.464088 0.494765 0.101251
C35   C     C_R   0.342420 0.428694 0.865229 -0.131335
C36   C     C_R   0.340696 0.428810 0.957952 -0.158684
C37   C     C_R   0.414742 0.408573 0.024528 0.068081
C38   C     C_R   0.469769 0.364768 0.983132 -0.026482
C39   C     C_3   0.584219 0.383040 0.034499 0.086857
C40   C     C_R   0.591361 0.290042 0.592566 -0.071636
C41   C     C_3   0.580329 0.373041 0.929349 0.056197
C42   C     C_R   0.490580 0.914215 0.395918 -0.023276
C43   C     C_R   0.562749 0.916001 0.485791 0.047842
C44   C     C_R   0.653138 0.014362 0.574351 -0.188355
C45   C     C_R   0.471095 0.718465 0.405158 -0.038101
C46   C     C_R   0.660451 0.111103 0.581146 0.358661
C47   C     C_R   0.575917 0.107605 0.497089 0.044102
C48   C     C_R   0.495765 0.008311 0.403774 -0.108431
C49   C     C_3   0.373862 0.959094 0.340309 0.150624
C50   C     C_3   0.367798 0.851593 0.323390 0.469679
C51   C     C_R   0.019692 0.047738 0.057700 -0.030801
C52   C     C_R   0.184580 0.440653 0.405552 -0.036605
C53   C     C_R   0.102873 0.105786 0.045092 0.111900
C54   C     C_R   0.091541 0.075930 0.941285 -0.139654
C55   C     C_R   0.999079 0.980323 0.851635 -0.097242
C56   C     C_R   0.797041 0.493643 0.594881 -0.104002
C57   C     C_R   0.921751 0.917878 0.869301 0.106087
C58   C     C_R   0.929565 0.955552 0.970442 0.003165
C59   C     C_3   0.918407 0.899385 0.034769 -0.456359
C60   C     C_3   0.019388 0.002198 0.132937 0.288198
C61   C     C_R   0.445173 0.533290 0.759916 -0.106360
C62   C     C_R   0.289988 0.199683 0.199674 -0.027991
C63   C     C_R   0.196211 0.197565 0.140062 0.028795
C64   C     C_R   0.500088 0.408793 0.199808 -0.045573
C65   C     C_R   0.724304 0.813030 0.759530 -0.145595
C66   C     C_R   0.814743 0.720969 0.752663 -0.065260
H1    H     H_    0.139205 0.314875 0.169894 0.118889
H2    H     H_    0.154696 0.495957 0.673171 0.126114
H3    H     H_    0.997638 0.476433 0.926032 0.206961
H4    H     H_    0.978376 0.381682 0.746555 0.216204
H5    H     H_    0.295110 0.457512 0.822537 0.124398
H6    H     H_    0.477490 0.149542 0.326858 0.122578
H7    H     H_    0.641561 0.447580 0.940249 0.154489
H8    H     H_    0.345689 0.964014 0.263997 0.164131
H9    H     H_    0.644736 0.318181 0.677292 0.170139
H10   H     H_    0.404256 0.573752 0.785318 0.101419
H11   H     H_    0.837556 0.509114 0.677426 0.110781
H12   H     H_    0.709039 0.878086 0.790585 0.106337
H13   H     H_    0.522374 0.348249 0.173167 0.097063
H14   H     H_    0.879087 0.700744 0.768770 0.131289
H15   H     H_    0.290826 0.456079 0.983002 0.141767
H16   H     H_    0.588826 0.316914 0.049661 0.155808
H17   H     H_    0.712657 0.016036 0.642345 0.153753
H18   H     H_    0.292049 0.589917 0.668975 0.112304
H19   H     H_    0.154645 0.123910 0.930767 0.140942
H20   H     H_    0.989412 0.953928 0.770900 0.161578
H21   H     H_    0.843122 0.882692 0.039930 0.185042
H22   H     H_    0.930389 0.828538 0.008486 0.255872
H23   H     H_    0.349492 0.523068 0.166461 0.127098
H24   H     H_    0.004140 0.045222 0.195637 0.131536
H25   H     H_    0.125170 0.386273 0.320736 0.092671
H26   H     H_    0.317330 0.143357 0.173724 0.141935
H27   H     H_    0.441775 0.695537 0.320251 0.143202
H28   H     H_    0.587098 0.879768 0.667966 0.114520
H29   H     H_    0.688314 0.363021 0.329348 0.151294
H30   H     H_    0.821351 0.138228 0.975616 0.167836
H31   H     H_    0.876397 0.331234 0.066606 0.193121
H32   H     H_    0.553008 0.376218 0.749437 0.145969
H33   H     H_    0.832875 0.043133 0.081745 0.150350
N1    N     N_R   0.291070 0.347930 0.293870 -0.045329
N2    N     N_R   0.497240 0.291100 0.443210 -0.048728
N3    N     N_R   0.347890 0.554050 0.556810 -0.049016
N4    N     N_R   0.554050 0.347900 0.556830 -0.059041
N5    N     N_R   0.291070 0.497250 0.443190 -0.046112
N6    N     N_R   0.497240 0.554030 0.706140 -0.045435
N7    N     N_R   0.347890 0.291110 0.293870 -0.051350
N8    N     N_R   0.445950 0.652100 0.443170 -0.043400
N9    N     N_R   0.708930 0.502750 0.556810 -0.054776
N10   N     N_R   0.502760 0.445970 0.293860 -0.051150
N11   N     N_R   0.652110 0.708890 0.706130 -0.043931
N12   N     N_R   0.708930 0.652070 0.706130 -0.054672
N13   N     N_R   0.445950 0.502780 0.293850 -0.052242
N14   N     N_R   0.502760 0.708900 0.556790 -0.044884
N15   N     N_R   0.652110 0.445950 0.443190 -0.056807
N16   N     N_R   0.554050 0.497220 0.706150 -0.049564
Ni1   Ni    Ni4+2 0.369690 0.500010 0.369700 0.258309
Ni2   Ni    Ni4+2 0.630310 0.499990 0.630300 0.231516
Ni3   Ni    Ni4+2 0.500000 0.369720 0.369720 0.233769
Ni4   Ni    Ni4+2 0.500000 0.630280 0.630280 0.257580

loop_
_geom_bond_atom_site_label_1
_geom_bond_atom_site_label_2
_ccdc_geom_bond_type
C6    C43   S    
C42   C43   A    
C64   H13   S    
N11   Ni4   S    
C30   H4    S    
N2    Ni3   S    
C29   H3    S    
N9    Ni2   S    
C16   N2    A    
C22   C34   S    
N11   N12   A    
C32   C33   A    
C15   H33   S    
C49   H8    S    
C16   C23   A    
C13   C14   A    
N1    Ni1   S    
C61   H10   S    
C22   C24   A    
C11   C13   A    
C9    C66   A    
C66   H14   S    
C7    C19   S    
C25   C26   A    
C21   C22   A    
N8    N14   A    
C44   C46   A    
C59   H22   S    
C32   C38   A    
Br9   C26   S    
C43   C44   A    
C39   H16   S    
Br10  C27   S    
C12   C61   A    
C51   C58   A    
C62   C63   A    
C23   C40   A    
C3    H28   S    
N1    N7    A    
N6    N16   A    
Br6   C14   S    
N3    N5    A    
C44   H17   S    
C42   C50   S    
C60   H24   S    
N7    Ni3   S    
C51   C60   S    
C57   C58   A    
C64   N10   A    
C21   H2    S    
C1    H1    S    
C36   H15   S    
N5    Ni1   S    
C16   H6    S    
C54   H19   S    
C40   N4    A    
C27   C29   A    
C53   C54   A    
C46   C47   A    
Br8   C25   S    
C28   N3    A    
C54   C55   A    
C4    H32   S    
C8    C37   S    
C39   C41   S    
C37   C38   A    
C5    H29   S    
N3    Ni4   S    
C6    C45   A    
C61   N6    A    
C33   C35   A    
Br7   C18   S    
C17   H30   S    
N8    Ni1   S    
C10   C17   A    
C62   N7    A    
C9    C65   A    
C26   C27   A    
C41   H7    S    
C35   H5    S    
C47   C48   A    
C45   H27   S    
C1    C63   A    
C30   C31   A    
C25   C31   A    
C49   C50   S    
N13   Ni1   S    
C5    N15   A    
C18   C19   A    
Br4   C50   S    
C56   N9    A    
C10   C11   A    
C53   C63   S    
C45   N8    A    
C20   C21   A    
C28   C34   A    
N12   Ni2   S    
C4    N16   A    
C65   N11   A    
C35   C36   A    
C32   C41   S    
C62   H26   S    
C28   H18   S    
C7    C56   A    
C29   C30   A    
C56   H11   S    
N10   Ni3   S    
C59   H21   S    
C10   H31   S    
C20   C31   S    
C59   C60   S    
C23   C47   S    
N16   Ni2   S    
N2    N4    A    
C13   C24   S    
N9    N15   A    
Br13  C46   S    
Br3   C50   S    
C65   H12   S    
C1    N1    A    
C66   N12   A    
Br11  C39   S    
C4    C12   A    
C19   C20   A    
N10   N13   A    
C15   C17   A    
C55   H20   S    
C38   C39   S    
C2    C8    A    
C3    C6    A    
C42   C48   A    
C9    C57   S    
C40   H9    S    
C5    C7    A    
C2    H23   S    
Br5   C60   S    
C48   C49   S    
N15   Ni3   S    
N6    Ni4   S    
N14   Ni4   S    
C18   C24   A    
C58   C59   S    
N4    Ni2   S    
Br1   C11   S    
C55   C57   A    
C36   C37   A    
C2    N13   A    
C8    C64   A    
C14   C15   A    
C52   N5    A    
C52   H25   S    
C3    N14   A    
C12   C33   S    
C34   C52   A    
Br12  C41   S    
Br2   C49   S    
C51   C53   A    
