data_mof_unit_38369.cif
_audit_creation_date              2012-12-11T15:52:14-0500
_audit_creation_method            fapswitch 2.2
_symmetry_space_group_name_H-M    P1
_symmetry_Int_Tables_number       1
_space_group_crystal_system       triclinic
_cell_length_a                    11.045059
_cell_length_b                    11.045393
_cell_length_c                    18.834875
_cell_angle_alpha                 89.999647
_cell_angle_beta                  89.999903
_cell_angle_gamma                 120.000227
_cell_volume                      1989.94738458

loop_
_atom_site_label
_atom_site_type_symbol
_atom_type_description
_atom_site_fract_x
_atom_site_fract_y
_atom_site_fract_z
_atom_type_partial_charge
C1    C     C_R   0.520030 0.457887 0.147408 0.526598
C2    C     C_R   0.542112 0.062145 0.147408 0.526602
C3    C     C_R   0.937857 0.479970 0.147409 0.526612
C4    C     C_R   0.451303 0.523439 0.855502 0.544841
C5    C     C_R   0.072145 0.548703 0.855504 0.544834
C6    C     C_R   0.476558 0.927855 0.855505 0.544848
C7    C     C_3   0.590818 0.832388 0.525977 -0.217390
C8    C     C_3   0.167741 0.758336 0.525948 -0.217622
C9    C     C_3   0.241602 0.409427 0.525946 -0.217629
C10   C     C_3   0.155150 0.740424 0.446322 -0.264250
C11   C     C_3   0.585343 0.844818 0.446346 -0.264254
C12   C     C_3   0.259459 0.414695 0.446310 -0.264233
C13   C     C_R   0.523257 0.457394 0.354938 0.567197
C14   C     C_R   0.542603 0.065871 0.354946 0.567223
C15   C     C_R   0.934036 0.476696 0.354968 0.567263
C16   C     C_R   0.457958 0.517673 0.647142 0.574917
C17   C     C_R   0.059695 0.542034 0.647152 0.574911
C18   C     C_R   0.482333 0.940297 0.647146 0.574903
C19   C     C_R   0.485545 0.955424 0.931241 0.015911
C20   C     C_R   0.044589 0.530127 0.931243 0.015925
C21   C     C_R   0.469885 0.514456 0.931239 0.015922
C22   C     C_R   0.006674 0.502254 0.078924 0.012722
C23   C     C_R   0.495585 0.993346 0.078920 0.012713
C24   C     C_R   0.497761 0.504414 0.078919 0.012720
C25   C     C_R   0.400140 0.998393 0.963638 -0.001288
C26   C     C_R   0.001676 0.401777 0.963648 -0.001291
C27   C     C_R   0.598264 0.599842 0.963636 -0.001288
C28   C     C_R   0.980903 0.387543 0.036293 0.007219
C29   C     C_R   0.406682 0.019171 0.036283 0.007239
C30   C     C_R   0.612497 0.593300 0.036283 0.007244
C31   C     C_R   0.562380 0.926679 0.048166 -0.159888
C32   C     C_R   0.073318 0.635711 0.048165 -0.159895
C33   C     C_R   0.364298 0.437629 0.048163 -0.159896
C34   C     C_R   0.090824 0.649347 0.974712 -0.150012
C35   C     C_R   0.558508 0.909168 0.974714 -0.150005
C36   C     C_R   0.350661 0.441500 0.974711 -0.150007
C37   C     C_3   0.389666 0.125351 0.948609 -0.275873
C38   C     C_3   0.874782 0.264291 0.948625 -0.275866
C39   C     C_3   0.735682 0.610270 0.948611 -0.275882
C40   C     C_3   0.850870 0.248698 0.028117 -0.245513
C41   C     C_3   0.397984 0.149268 0.028100 -0.245494
C42   C     C_3   0.751277 0.601957 0.028102 -0.245485
C43   C     C_R   0.506777 0.998457 0.576303 0.011680
C44   C     C_R   0.001519 0.508319 0.576315 0.011678
C45   C     C_R   0.491653 0.493243 0.576291 0.011657
C46   C     C_R   0.978878 0.482355 0.427943 -0.018145
C47   C     C_R   0.503344 0.020930 0.427908 -0.018204
C48   C     C_R   0.517570 0.496607 0.427901 -0.018191
C49   C     C_R   0.586603 0.964855 0.532012 0.065401
C50   C     C_R   0.035162 0.621756 0.532023 0.065480
C51   C     C_R   0.378204 0.413460 0.532000 0.065420
C52   C     C_R   0.024499 0.608165 0.460378 0.040507
C53   C     C_R   0.583577 0.975393 0.460361 0.040334
C54   C     C_R   0.391772 0.416387 0.460349 0.040460
C55   C     C_R   0.423865 0.062509 0.471281 0.133320
C56   C     C_R   0.937333 0.361319 0.471313 0.133303
C57   C     C_R   0.638624 0.576102 0.471272 0.133322
C58   C     C_R   0.942551 0.374234 0.546246 0.127221
C59   C     C_R   0.431606 0.057357 0.546220 0.127218
C60   C     C_R   0.625727 0.568388 0.546208 0.127229
Cr1   Cr    Cr6+3 0.769160 0.541570 0.250690 1.064863
Cr2   Cr    Cr6+3 0.458430 0.227590 0.250690 1.064870
Cr3   Cr    Cr6+3 0.772410 0.230840 0.250690 1.064860
Cr4   Cr    Cr6+3 0.541570 0.769160 0.749310 1.079621
Cr5   Cr    Cr6+3 0.227590 0.458430 0.749310 1.079627
Cr6   Cr    Cr6+3 0.230840 0.772410 0.749310 1.079624
H1    H     H_    0.628252 0.900538 0.079616 0.137964
H2    H     H_    0.099445 0.727723 0.079612 0.137953
H3    H     H_    0.272278 0.371767 0.079614 0.137951
H4    H     H_    0.135978 0.752870 0.951869 0.148438
H5    H     H_    0.616861 0.863995 0.951873 0.148447
H6    H     H_    0.247133 0.383150 0.951869 0.148444
H7    H     H_    0.286490 0.098791 0.925763 0.150780
H8    H     H_    0.901422 0.187735 0.925785 0.150767
H9    H     H_    0.812324 0.713424 0.925760 0.150792
H10   H     H_    0.755449 0.251105 0.044582 0.142782
H11   H     H_    0.495849 0.244643 0.044566 0.142725
H12   H     H_    0.748756 0.504082 0.044573 0.142707
H13   H     H_    0.481885 0.207312 0.919384 0.138605
H14   H     H_    0.792773 0.274462 0.919393 0.138626
H15   H     H_    0.725386 0.518033 0.919391 0.138595
H16   H     H_    0.862461 0.162353 0.051084 0.150906
H17   H     H_    0.300071 0.137761 0.051055 0.150938
H18   H     H_    0.837701 0.699857 0.051054 0.150951
H19   H     H_    0.495321 0.741452 0.547918 0.103581
H20   H     H_    0.258650 0.753645 0.547833 0.103423
H21   H     H_    0.246316 0.505038 0.547817 0.103418
H22   H     H_    0.131684 0.813949 0.418011 0.238448
H23   H     H_    0.682310 0.868345 0.417996 0.238468
H24   H     H_    0.185955 0.317664 0.418031 0.238492
H25   H     H_    0.692244 0.847318 0.545261 0.246416
H26   H     H_    0.152990 0.844915 0.545259 0.246313
H27   H     H_    0.155042 0.308104 0.545281 0.246318
H28   H     H_    0.237779 0.724459 0.421933 0.102047
H29   H     H_    0.486737 0.762086 0.422014 0.102034
H30   H     H_    0.275377 0.513246 0.421904 0.102074
O1    O     O_R   0.911480 0.572650 0.170990 -0.529175
O2    O     O_R   0.427350 0.338830 0.170990 -0.529187
O3    O     O_R   0.661170 0.088520 0.170990 -0.529189
O4    O     O_R   0.572650 0.911480 0.829010 -0.517863
O5    O     O_R   0.338830 0.427350 0.829010 -0.517872
O6    O     O_R   0.088520 0.661170 0.829010 -0.517878
O7    O     O_R   0.640340 0.528970 0.175680 -0.504064
O8    O     O_R   0.471030 0.111370 0.175680 -0.504063
O9    O     O_R   0.888630 0.359660 0.175680 -0.504065
O10   O     O_R   0.528970 0.640340 0.824320 -0.496734
O11   O     O_R   0.111370 0.471030 0.824320 -0.496734
O12   O     O_R   0.359660 0.888630 0.824320 -0.496733
O13   O     O_R   0.909980 0.572450 0.331530 -0.467358
O14   O     O_R   0.427550 0.337530 0.331530 -0.467334
O15   O     O_R   0.662470 0.090020 0.331530 -0.467328
O16   O     O_R   0.572450 0.909980 0.668470 -0.477992
O17   O     O_R   0.337530 0.427550 0.668470 -0.477949
O18   O     O_R   0.090020 0.662470 0.668470 -0.477975
O19   O     O_R   0.638950 0.528780 0.324500 -0.467462
O20   O     O_R   0.471220 0.110170 0.324500 -0.467452
O21   O     O_R   0.889830 0.361050 0.324500 -0.467470
O22   O     O_R   0.528780 0.638950 0.675500 -0.479937
O23   O     O_R   0.110170 0.471220 0.675500 -0.479926
O24   O     O_R   0.361050 0.889830 0.675500 -0.479922
O25   O     O_3   0.666667 0.333333 0.250560 -0.278216
O26   O     O_3   0.333333 0.666667 0.749440 -0.300800
Br1   Br    Br    0.282312 0.095940 0.432099 -0.442938
Br2   Br    Br    0.903996 0.186385 0.432128 -0.443072
Br3   Br    Br    0.813600 0.717670 0.432090 -0.443022
Br4   Br    Br    0.881512 0.213118 0.606843 -0.422760
Br5   Br    Br    0.331554 0.118445 0.606807 -0.422650
Br6   Br    Br    0.786867 0.668445 0.606795 -0.422742

loop_
_geom_bond_atom_site_label_1
_geom_bond_atom_site_label_2
_ccdc_geom_bond_type
C38   C40   S    
C45   C60   A    
C55   C59   A    
Cr6   O6    S    
C9    C51   S    
Cr5   O5    S    
C10   C52   S    
C16   O17   A    
C48   C57   A    
C5    C20   S    
C3    O9    A    
C31   H1    S    
C6    C19   S    
C37   H13   S    
C10   H22   S    
C22   C32   A    
Cr4   O26   S    
C23   C29   A    
C12   H24   S    
Cr1   O7    S    
C18   O16   A    
C41   H11   S    
Cr3   O21   S    
C14   O20   A    
Cr4   O16   S    
C10   H28   S    
C11   H29   S    
C41   H17   S    
C46   C52   A    
C33   C36   A    
Cr4   O22   S    
Cr1   O25   S    
C3    O1    A    
Cr3   O3    S    
C25   C37   S    
Cr2   O2    S    
C18   O24   A    
C44   C58   A    
C38   H14   S    
Cr1   O19   S    
C50   C52   A    
Cr6   O26   S    
C8    H26   S    
C39   H9    S    
Cr3   O9    S    
C1    O7    A    
C11   C53   S    
C43   C59   A    
C47   C53   A    
C20   C34   A    
C21   C27   A    
Cr1   O13   S    
C22   C28   A    
C27   C30   A    
C37   C41   S    
C30   C42   S    
Cr3   O25   S    
C58   Br4   S    
C17   O18   A    
C7    C11   S    
C39   C42   S    
Cr2   O8    S    
C56   C58   A    
C25   C29   A    
C14   O15   A    
C55   Br1   S    
C40   H16   S    
C60   Br6   S    
C42   H18   S    
C7    C49   S    
C27   C39   S    
C21   C36   A    
C34   H4    S    
C26   C38   S    
C57   C60   A    
C9    H27   S    
C4    O10   A    
C40   H10   S    
C23   C31   A    
C1    O2    A    
C48   C54   A    
C28   C40   S    
Cr2   O20   S    
C13   O14   A    
C16   O22   A    
C11   H23   S    
Cr2   O14   S    
C2    O8    A    
C7    H25   S    
C4    O5    A    
Cr5   O23   S    
Cr1   O1    S    
Cr5   O26   S    
C39   H15   S    
C13   O19   A    
C2    O3    A    
C42   H12   S    
C15   O13   A    
C31   C35   A    
C8    C50   S    
C47   C55   A    
C5    O11   A    
C44   C50   A    
C37   H7    S    
C5    O6    A    
C6    O12   A    
Cr6   O18   S    
C29   C41   S    
Cr5   O17   S    
C43   C49   A    
Cr6   O12   S    
C16   C45   S    
C13   C48   S    
Cr4   O10   S    
C14   C47   S    
C6    O4    A    
C33   H3    S    
C26   C28   A    
C24   C33   A    
C32   H2    S    
C51   C54   A    
C17   C44   S    
C19   C35   A    
C18   C43   S    
C9    H21   S    
C57   Br3   S    
C4    C21   S    
C7    H19   S    
C20   C26   A    
C49   C53   A    
C38   H8    S    
C56   Br2   S    
C8    H20   S    
Cr3   O15   S    
C19   C25   A    
C9    C12   S    
C24   C30   A    
C17   O23   A    
C35   H5    S    
C15   O21   A    
Cr4   O4    S    
C1    C24   S    
C8    C10   S    
C46   C56   A    
C2    C23   S    
C45   C51   A    
C12   H30   S    
C3    C22   S    
Cr6   O24   S    
C15   C46   S    
C59   Br5   S    
Cr5   O11   S    
Cr2   O25   S    
C12   C54   S    
C36   H6    S    
C32   C34   A    
