data_mof_unit_48714.cif
_audit_creation_date              2012-12-10T20:49:08-0500
_audit_creation_method            fapswitch 2.2
_symmetry_space_group_name_H-M    P1
_symmetry_Int_Tables_number       1
_space_group_crystal_system       triclinic
_cell_length_a                    8.924102
_cell_length_b                    8.121824
_cell_length_c                    10.571661
_cell_angle_alpha                 90.113438
_cell_angle_beta                  90.02757
_cell_angle_gamma                 89.951379
_cell_volume                      766.231973438

loop_
_atom_site_label
_atom_site_type_symbol
_atom_type_description
_atom_site_fract_x
_atom_site_fract_y
_atom_site_fract_z
_atom_type_partial_charge
C1    C     C_R   0.218072 0.500043 0.500062 0.953931
C2    C     C_3   0.631019 0.442583 0.046680 -0.260826
C3    C     C_3   0.505936 0.498980 0.877186 -0.130806
C4    C     C_3   0.494064 0.501020 0.122814 -0.130806
C5    C     C_1   0.065225 0.500061 0.500019 -0.144978
C6    C     C_1   0.934775 0.499939 0.499981 -0.144978
C7    C     C_2   0.447921 0.826236 0.085744 0.949968
C8    C     C_2   0.552079 0.173764 0.914257 0.949967
C9    C     C_2   0.743411 0.701156 0.923209 0.962361
C10   C     C_2   0.256589 0.298843 0.076791 0.962361
C11   C     C_R   0.781928 0.499956 0.499938 0.953931
C12   C     C_R   0.495641 0.500161 0.257021 0.935802
C13   C     C_R   0.504359 0.499839 0.742979 0.935802
C14   C     C_3   0.477472 0.654297 0.039701 -0.043334
C15   C     C_3   0.522528 0.345703 0.960299 -0.043334
C16   C     C_3   0.612994 0.596322 0.962147 -0.085536
C17   C     C_3   0.387005 0.403678 0.037853 -0.085536
C18   C     C_3   0.368981 0.557417 0.953320 -0.260826
H1    H     H_    0.262813 0.604006 0.911706 0.194352
H2    H     H_    0.737187 0.395994 0.088294 0.194352
H3    H     H_    0.523201 0.023362 0.182907 0.342633
H4    H     H_    0.476799 0.976638 0.817093 0.342633
H5    H     H_    0.869461 0.793077 0.781820 0.361232
H6    H     H_    0.130539 0.206923 0.218180 0.361232
N1    N     N_1   0.500000 0.073640 0.500000 -0.004904
N2    N     N_1   0.500000 0.926360 0.500000 -0.004904
O1    O     O_R   0.285350 0.636850 0.500000 -0.626055
O2    O     O_R   0.556943 0.909292 0.156026 -0.734368
O3    O     O_2   0.672155 0.107887 0.937218 -0.582471
O4    O     O_R   0.443057 0.090708 0.843974 -0.734369
O5    O     O_2   0.819670 0.768112 0.004369 -0.530326
O6    O     O_R   0.778836 0.720056 0.795417 -0.805801
O7    O     O_2   0.180330 0.231887 0.995631 -0.530326
O8    O     O_R   0.221164 0.279944 0.204583 -0.805801
O9    O     O_R   0.714650 0.363150 0.500000 -0.626056
O10   O     O_R   0.714650 0.636850 0.500000 -0.589040
O11   O     O_R   0.285350 0.363150 0.500000 -0.589039
O12   O     O_R   0.499970 0.636850 0.313950 -0.607097
O13   O     O_R   0.500030 0.363150 0.686050 -0.607097
O14   O     O_R   0.500030 0.636850 0.686050 -0.607306
O15   O     O_R   0.499970 0.363150 0.313950 -0.607305
O16   O     O_2   0.327845 0.892113 0.062783 -0.582471
Zn1   Zn    Zn3+2 0.500000 0.682780 0.500000 1.052569
Zn2   Zn    Zn3+2 0.500000 0.317220 0.500000 1.052569

loop_
_geom_bond_atom_site_label_1
_geom_bond_atom_site_label_2
_ccdc_geom_bond_type
C2    C4    S    
C12   O15   A    
C2    C15   S    
C10   O7    D    
C2    C16   S    
C14   C18   S    
C3    C13   S    
C1    O11   A    
C8    O4    S    
H5    O6    S    
C7    O2    S    
O11   Zn2   S    
C11   O9    A    
C17   C18   S    
O12   Zn1   S    
C10   O8    S    
C4    C14   S    
O9    Zn2   S    
O13   Zn2   S    
C1    C5    S    
C4    C17   S    
N1    Zn2   S    
C11   O10   A    
H3    O2    S    
N2    Zn1   S    
C8    C15   S    
C7    C14   S    
C12   O12   A    
C5    C6    T    
O15   Zn2   S    
C14   C16   S    
C13   O13   A    
C4    C12   S    
C8    O3    D    
C10   C17   S    
C2    H2    S    
O1    Zn1   S    
C3    C15   S    
C3    C18   S    
C15   C17   S    
C18   H1    S    
C7    O16   D    
C6    C11   S    
C1    O1    A    
C9    O5    D    
O10   Zn1   S    
H4    O4    S    
C9    O6    S    
N1    N2    T    
C9    C16   S    
O14   Zn1   S    
H6    O8    S    
C3    C16   S    
C13   O14   A    
