data_mof_unit_66674.cif
_audit_creation_date              2012-12-11T15:54:46-0500
_audit_creation_method            fapswitch 2.2
_symmetry_space_group_name_H-M    P1
_symmetry_Int_Tables_number       1
_space_group_crystal_system       triclinic
_cell_length_a                    7.019655
_cell_length_b                    14.808533
_cell_length_c                    16.105622
_cell_angle_alpha                 89.8487
_cell_angle_beta                  89.822772
_cell_angle_gamma                 90.632967
_cell_volume                      1674.07601398

loop_
_atom_site_label
_atom_site_type_symbol
_atom_type_description
_atom_site_fract_x
_atom_site_fract_y
_atom_site_fract_z
_atom_type_partial_charge
O1    O     O_R   0.638180 0.333920 0.163320 -0.526542
O2    O     O_R   0.361820 0.666080 0.836680 -0.534322
O3    O     O_R   0.308470 0.344960 0.336080 -0.535821
O4    O     O_R   0.691530 0.655040 0.663920 -0.527412
O5    O     O_R   0.138140 0.166110 0.336680 -0.535170
O6    O     O_R   0.861860 0.833890 0.663320 -0.546198
C1    C     C_R   0.477649 0.363741 0.367076 0.741691
C2    C     C_R   0.520898 0.631128 0.636314 0.763944
O7    O     O_R   0.308460 0.344950 0.163930 -0.514909
O8    O     O_R   0.691540 0.655050 0.836070 -0.507336
O9    O     O_R   0.138140 0.166100 0.163310 -0.511984
O10   O     O_R   0.861860 0.833900 0.836690 -0.523385
C3    C     C_R   0.480335 0.368815 0.136908 0.799547
C4    C     C_R   0.520100 0.629592 0.862117 0.760911
O11   O     O_R   0.638180 0.333930 0.336700 -0.523964
O12   O     O_R   0.361820 0.666070 0.663300 -0.521925
O13   O     O_3   0.471670 0.191340 0.250000 -0.380621
O14   O     O_3   0.528330 0.808660 0.750000 -0.379298
V1    V     V_3+5 0.196830 0.260900 0.250000 1.565029
V2    V     V_3+5 0.803170 0.739100 0.750000 1.571115
O15   O     O_R   0.808420 0.155070 0.163920 -0.531485
O16   O     O_R   0.191580 0.844930 0.836080 -0.530288
C5    C     C_R   0.978625 0.135672 0.132952 0.785084
C6    C     C_R   0.021871 0.870276 0.862326 0.779665
O17   O     O_R   0.808420 0.155080 0.336070 -0.554633
O18   O     O_R   0.191580 0.844920 0.663930 -0.546328
C7    C     C_R   0.973878 0.137871 0.368428 0.693002
C8    C     C_R   0.024940 0.868552 0.636530 0.654942
V3    V     V_3+5 0.696830 0.239130 0.250000 1.523986
V4    V     V_3+5 0.303170 0.760870 0.750000 1.533652
O19   O     O_3   0.971850 0.308690 0.250010 -0.361392
O20   O     O_3   0.028150 0.691310 0.749990 -0.339058
H1    H     H_    0.295681 0.869382 0.275646 0.130923
H2    H     H_    0.646005 0.123506 0.732397 0.179972
C9    C     C_R   0.767888 0.159634 0.530552 -0.132228
C10   C     C_R   0.276621 0.873507 0.485316 -0.185928
C11   C     C_R   0.680479 0.172322 0.607847 0.212833
C12   C     C_R   0.346934 0.855742 0.405918 0.167202
C13   C     C_R   0.709207 0.111668 0.672149 -0.126158
C14   C     C_R   0.258095 0.891930 0.336983 -0.142195
C15   C     C_R   0.819666 0.035951 0.659890 -0.142786
C16   C     C_R   0.128380 0.960873 0.347351 -0.137718
C17   C     C_R   0.905410 0.019021 0.582172 0.073453
C18   C     C_R   0.076931 0.989320 0.427208 0.093170
C19   C     C_R   0.883294 0.083511 0.516151 0.041349
C20   C     C_R   0.125098 0.934278 0.496073 0.049364
C21   C     C_R   0.021633 0.942095 0.571564 -0.139657
C22   C     C_R   0.974774 0.069421 0.438048 -0.152665
H3    H     H_    0.743610 0.209282 0.482536 0.147052
H4    H     H_    0.344877 0.841023 0.536911 0.153387
H5    H     H_    0.840698 0.992338 0.712948 0.137698
H6    H     H_    0.065143 0.991586 0.293483 0.085105
C23   C     C_R   0.174268 0.991156 0.952295 0.124516
C24   C     C_R   0.834110 0.053613 0.011160 0.109910
C25   C     C_R   0.170643 0.039121 0.028687 0.411901
C26   C     C_R   0.835662 0.976771 0.959434 0.403683
C27   C     C_R   0.994539 0.073693 0.058745 -0.352376
C28   C     C_R   0.010232 0.944957 0.926504 -0.352359
C29   C     C_R   0.327095 0.448876 0.485449 0.147463
C30   C     C_R   0.670665 0.517695 0.539344 0.137174
C31   C     C_R   0.331412 0.525940 0.537662 0.419561
C32   C     C_R   0.662360 0.471734 0.462166 0.415395
C33   C     C_R   0.506893 0.558523 0.570023 -0.325769
C34   C     C_R   0.489255 0.428745 0.438525 -0.332679
C35   C     C_R   0.361506 0.507074 0.062389 0.442466
C36   C     C_R   0.648317 0.496060 0.941771 0.402657
C37   C     C_R   0.354461 0.562890 0.991422 0.087047
C38   C     C_R   0.655156 0.441647 0.013673 0.077685
C39   C     C_R   0.504581 0.561295 0.931525 -0.290164
C40   C     C_R   0.499521 0.439192 0.069878 -0.317484
I1    I     I_    0.104894 0.644672 0.982117 -0.378501
I2    I     I_    0.921188 0.376077 0.035194 -0.278278
I3    I     I_    0.501190 0.281594 0.631393 -0.420151
I4    I     I_    0.591798 0.779558 0.388295 -0.646609
I5    I     I_    0.354326 0.034300 0.853097 -0.289876
I6    I     I_    0.644328 0.161372 0.987715 -0.281336
O21   O     O_3   0.336793 0.048951 0.073553 -0.507141
C41   C     C_3   0.337642 0.981614 0.135938 0.152874
H7    H     H_    0.321706 0.913197 0.109378 0.081200
H8    H     H_    0.217435 0.991148 0.178945 0.074859
C42   C     C_3   0.522824 0.985090 0.185259 -0.634121
H9    H     H_    0.641436 0.009257 0.146016 0.225914
H10   H     H_    0.508551 0.029213 0.240144 0.224168
H11   H     H_    0.560762 0.916706 0.207633 0.160905
O22   O     O_3   0.668208 0.930831 0.946364 -0.511808
C43   C     C_3   0.664149 0.856327 0.001252 0.103373
H12   H     H_    0.657389 0.877953 0.066815 0.110448
H13   H     H_    0.791213 0.812622 0.993769 0.115490
C44   C     C_3   0.491771 0.799476 0.981859 -0.610824
H14   H     H_    0.486131 0.791678 0.914124 0.256945
H15   H     H_    0.504760 0.733201 0.012989 0.152189
H16   H     H_    0.358284 0.832056 0.000994 0.194858
I7    I     I_    0.101265 0.350734 0.491100 -0.251623
I8    I     I_    0.863112 0.478597 0.633380 -0.262040
O23   O     O_3   0.169289 0.575624 0.546441 -0.511695
C45   C     C_3   0.176491 0.644899 0.486481 0.126946
H17   H     H_    0.203303 0.618214 0.423054 0.112092
H18   H     H_    0.291243 0.693596 0.501961 0.118312
C46   C     C_3   0.989496 0.694059 0.486370 -0.620125
H19   H     H_    0.956859 0.718866 0.549356 0.225880
H20   H     H_    0.997019 0.751278 0.442032 0.201766
H21   H     H_    0.874330 0.647726 0.467173 0.240208
O24   O     O_3   0.815104 0.478538 0.407821 -0.518210
C47   C     C_3   0.759585 0.529765 0.337427 0.082140
H22   H     H_    0.698571 0.595426 0.355616 0.128923
H23   H     H_    0.652464 0.494098 0.299114 0.086738
C48   C     C_3   0.929018 0.547061 0.281546 -0.593741
H24   H     H_    0.005952 0.483232 0.270423 0.256221
H25   H     H_    0.025017 0.597195 0.310775 0.192829
H26   H     H_    0.880006 0.574380 0.221074 0.190101
O25   O     O_3   0.243792 0.525910 0.129006 -0.529333
C49   C     C_3   0.349822 0.573972 0.190101 0.105999
H27   H     H_    0.507904 0.571874 0.182296 0.084353
H28   H     H_    0.320442 0.542645 0.251477 0.112306
C50   C     C_3   0.290587 0.672698 0.192490 -0.724694
H29   H     H_    0.134097 0.679193 0.186401 0.245559
H30   H     H_    0.335271 0.703103 0.252152 0.204033
H31   H     H_    0.360067 0.710784 0.141290 0.214779
O26   O     O_3   0.779495 0.481376 0.879120 -0.523131
C51   C     C_3   0.725894 0.401808 0.835418 0.127379
H32   H     H_    0.645275 0.421754 0.779366 0.158126
H33   H     H_    0.631270 0.354113 0.870743 0.129367
C52   C     C_3   0.903148 0.349319 0.810315 -0.541326
H34   H     H_    0.956253 0.308853 0.863180 0.221114
H35   H     H_    0.867862 0.301967 0.759153 0.203637
H36   H     H_    0.018875 0.395979 0.789755 0.251233

loop_
_geom_bond_atom_site_label_1
_geom_bond_atom_site_label_2
_ccdc_geom_bond_type
C7    C22   S    
C36   C38   A    
C8    C21   S    
O6    C8    A    
O13   V3    S    
O25   C49   S    
O4    C2    A    
V1    O19   S    
C47   H23   S    
C42   H9    S    
C52   H34   S    
C13   C15   A    
O21   C41   S    
O9    V1    S    
C29   C34   A    
C30   C33   A    
C9    C11   A    
O3    C1    A    
C12   I4    S    
C25   O21   S    
C43   H13   S    
C52   H35   S    
C36   C39   A    
C3    C40   S    
O12   V4    S    
C50   H29   S    
C45   C46   S    
C30   C32   A    
C31   C33   A    
O7    C3    A    
C47   H22   S    
C32   C34   A    
O5    C7    A    
O7    V1    S    
C35   O25   S    
O23   C45   S    
O8    V2    S    
C35   C37   A    
C45   H18   S    
C9    H3    S    
C48   H24   S    
O3    V1    S    
O14   V4    S    
C44   H15   S    
O14   V2    S    
C51   C52   S    
C14   C16   A    
C2    O12   A    
C12   C14   A    
C15   C17   A    
C23   I5    S    
C16   C18   A    
C49   H28   S    
C49   H27   S    
C42   H10   S    
C51   H33   S    
O11   V3    S    
C23   C25   A    
O17   V3    S    
C11   C13   A    
C24   C26   A    
C29   C31   A    
H1    C14   S    
H2    C13   S    
O8    C4    A    
C41   H7    S    
C52   H36   S    
C1    O11   A    
C18   C20   A    
C50   H30   S    
O22   C43   S    
O15   V3    S    
C37   C39   A    
C46   H19   S    
C38   I2    S    
C50   H31   S    
C45   H17   S    
O10   V2    S    
O1    V3    S    
C41   H8    S    
C44   H16   S    
C10   C20   A    
C17   C19   A    
C24   I6    S    
C6    C28   S    
C4    C39   S    
C46   H20   S    
O18   V4    S    
C36   O26   S    
C25   C27   A    
C48   H26   S    
O16   C6    A    
O1    C3    A    
C10   C12   A    
C9    C19   A    
C42   H11   S    
C10   H4    S    
C51   H32   S    
C32   O24   S    
V2    O20   S    
C19   C22   A    
C5    C27   S    
C11   I3    S    
C20   C21   A    
O16   V4    S    
C43   H12   S    
C43   C44   S    
C23   C28   A    
C31   O23   S    
O5    V1    S    
O17   C7    A    
O6    V2    S    
O10   C6    A    
O18   C8    A    
O2    V4    S    
O15   C5    A    
V3    O19   S    
V4    O20   S    
C41   C42   S    
C26   O22   S    
C48   H25   S    
O9    C5    A    
O13   V1    S    
C26   C28   A    
C37   I1    S    
C49   C50   S    
O2    C4    A    
C1    C34   S    
C2    C33   S    
O4    V2    S    
C18   C22   A    
C46   H21   S    
C38   C40   A    
O26   C51   S    
O24   C47   S    
C29   I7    S    
C44   H14   S    
C17   C21   A    
C15   H5    S    
C47   C48   S    
C35   C40   A    
C16   H6    S    
C24   C27   A    
C30   I8    S    
