data_mof_unit_60577.cif
_audit_creation_date              2013-03-05T16:23:51-0500
_audit_creation_method            fapswitch 2.2
_symmetry_space_group_name_H-M    P1
_symmetry_Int_Tables_number       1
_space_group_crystal_system       triclinic
_cell_length_a                    30.559961
_cell_length_b                    31.872626
_cell_length_c                    21.679741
_cell_angle_alpha                 89.811256
_cell_angle_beta                  134.916385
_cell_angle_gamma                 90.338664
_cell_volume                      14953.2184978

loop_
_atom_site_label
_atom_site_type_symbol
_atom_site_description
_atom_site_fract_x
_atom_site_fract_y
_atom_site_fract_z
_atom_type_partial_charge
O1    O     O_R   0.448310 0.000000 0.356640 -0.588669
O2    O     O_R   0.948310 0.500000 0.356640 -0.569674
O3    O     O_R   0.551720 0.000000 0.460130 -0.613726
O4    O     O_R   0.051720 0.500000 0.460130 -0.630000
C1    C     C_R   0.500305 0.999193 0.380520 0.925126
C2    C     C_R   0.000289 0.498431 0.380351 0.898328
O5    O     O_R   0.448310 0.938390 0.448250 -0.578272
O6    O     O_R   0.448310 0.061610 0.448250 -0.563498
O7    O     O_R   0.948310 0.438390 0.448250 -0.580949
O8    O     O_R   0.948310 0.561610 0.448250 -0.553592
O9    O     O_R   0.551720 0.938410 0.551740 -0.627612
O10   O     O_R   0.551720 0.061590 0.551740 -0.611738
O11   O     O_R   0.051720 0.438410 0.551740 -0.625999
O12   O     O_R   0.051720 0.561590 0.551740 -0.622868
C3    C     C_R   0.499880 0.918799 0.499803 0.866287
C4    C     C_R   0.500153 0.081199 0.500203 0.929847
C5    C     C_R   0.999892 0.418798 0.499819 0.865633
C6    C     C_R   0.000143 0.581195 0.499987 0.917404
Zn1   Zn    Zn3+2 0.430960 0.000000 0.430900 1.201639
Zn2   Zn    Zn3+2 0.930960 0.500000 0.430900 1.205372
Zn3   Zn    Zn3+2 0.569060 0.000000 0.569100 1.050488
Zn4   Zn    Zn3+2 0.069060 0.500000 0.569100 1.040511
O13   O     O_R   0.448310 0.000000 0.539870 -0.577307
O14   O     O_R   0.948310 0.500000 0.539870 -0.580960
O15   O     O_R   0.551720 0.000000 0.643360 -0.637519
O16   O     O_R   0.051720 0.500000 0.643360 -0.631129
C7    C     C_R   0.499968 0.999506 0.620232 0.913288
C8    C     C_R   0.000017 0.500154 0.620121 0.921740
C9    C     C_3   0.520962 0.736533 0.466103 0.224304
C10   C     C_3   0.505325 0.263767 0.447166 0.224663
C11   C     C_3   0.026286 0.236616 0.473402 0.223043
C12   C     C_3   0.945158 0.763298 0.424661 0.226669
C13   C     C_3   0.557149 0.764425 0.547784 -0.208176
C14   C     C_3   0.553503 0.236023 0.528005 -0.193580
C15   C     C_3   0.058369 0.264506 0.553935 -0.201549
C16   C     C_3   0.990703 0.735900 0.433214 -0.199548
H1    H     H_    0.605025 0.776320 0.588956 0.202631
H2    H     H_    0.597273 0.224494 0.551178 0.209572
H3    H     H_    0.106578 0.276466 0.599526 0.204972
H4    H     H_    0.983722 0.724275 0.378540 0.218186
H5    H     H_    0.562985 0.724163 0.646114 0.202784
H6    H     H_    0.586626 0.276140 0.647478 0.226460
H7    H     H_    0.056460 0.224118 0.644630 0.212618
H8    H     H_    0.082973 0.776711 0.518242 0.214653
C17   C     C_1   0.499542 0.874414 0.498973 -0.102927
C18   C     C_1   0.500403 0.125584 0.500263 -0.043339
C19   C     C_1   0.999651 0.374410 0.499116 -0.105025
C20   C     C_1   0.000292 0.625571 0.500221 -0.048153
C21   C     C_1   0.499434 0.625559 0.499059 -0.053487
C22   C     C_1   0.500237 0.374441 0.500367 -0.023994
C23   C     C_1   0.000145 0.125554 0.499721 -0.032819
C24   C     C_1   0.999236 0.874419 0.499588 -0.042586
C25   C     C_3   0.463676 0.763930 0.415968 0.183337
C26   C     C_3   0.452718 0.235929 0.418448 0.181928
C27   C     C_3   0.968537 0.263930 0.417986 0.183026
C28   C     C_3   0.953033 0.735535 0.489498 0.175389
C29   C     C_3   0.498565 0.791606 0.496742 -0.013544
C30   C     C_3   0.499755 0.208390 0.498901 -0.027738
C31   C     C_3   0.999278 0.291601 0.497452 -0.018375
C32   C     C_3   0.998980 0.708355 0.499754 -0.023976
C33   C     C_3   0.441308 0.736178 0.446861 0.226325
C34   C     C_3   0.447196 0.263366 0.470286 0.219225
C35   C     C_3   0.941829 0.236094 0.442426 0.222446
C36   C     C_3   0.006310 0.763406 0.564274 0.226511
C37   C     C_3   0.498456 0.708375 0.496674 -0.066007
C38   C     C_3   0.499617 0.291622 0.498700 -0.078197
C39   C     C_3   0.999461 0.208368 0.497530 -0.071675
C40   C     C_3   0.998253 0.791581 0.499405 -0.071471
C41   C     C_3   0.475474 0.764063 0.528064 -0.217325
C42   C     C_3   0.493884 0.235618 0.551715 -0.218984
C43   C     C_3   0.971760 0.263964 0.522171 -0.222835
C44   C     C_3   0.053409 0.736020 0.576386 -0.211684
C45   C     C_3   0.533927 0.736064 0.578795 -0.197766
C46   C     C_3   0.547454 0.264080 0.580517 -0.169883
C47   C     C_3   0.030730 0.236048 0.578344 -0.178618
C48   C     C_3   0.044961 0.764388 0.509817 -0.188126
C49   C     C_1   0.499140 0.836965 0.498024 0.105271
C50   C     C_1   0.500286 0.163032 0.499865 0.130910
C51   C     C_1   0.999503 0.336962 0.498430 0.106719
C52   C     C_1   0.999902 0.663012 0.500094 0.129540
C53   C     C_1   0.499047 0.662998 0.498143 0.149300
C54   C     C_1   0.500148 0.337001 0.499916 0.174838
C55   C     C_1   0.999982 0.162992 0.498972 0.165855
C56   C     C_1   0.998825 0.836971 0.499497 0.158195
H9    H     H_    0.456170 0.775668 0.553026 0.202878
H10   H     H_    0.488611 0.223752 0.594386 0.212728
H11   H     H_    0.948725 0.275490 0.541639 0.204920
H12   H     H_    0.098012 0.724526 0.639465 0.205475
C57   C     C_R   0.474001 0.028448 0.255358 -0.018025
C58   C     C_R   0.979465 0.530898 0.261461 -0.053392
C59   C     C_R   0.501779 0.997052 0.316694 -0.102287
C60   C     C_R   0.002249 0.496795 0.316556 -0.092900
C61   C     C_R   0.534022 0.964871 0.317265 0.033667
C62   C     C_R   0.036388 0.465535 0.319237 0.043543
C63   C     C_R   0.535871 0.965977 0.253671 0.315229
C64   C     C_R   0.039114 0.467121 0.256810 0.320930
C65   C     C_R   0.505470 0.998927 0.191307 -0.173293
C66   C     C_R   0.008634 0.500015 0.194796 -0.189053
C67   C     C_R   0.476112 0.029555 0.195786 -0.018697
C68   C     C_R   0.984308 0.533313 0.203663 0.046549
C69   C     C_3   0.438237 0.068419 0.152470 -0.472025
C70   C     C_3   0.925272 0.557181 0.137762 -0.497030
C71   C     C_3   0.436636 0.067723 0.222171 0.476554
C72   C     C_3   0.918878 0.553733 0.201523 0.486764
H13   H     H_    0.392964 0.062273 0.084866 0.220615
H14   H     H_    0.465259 0.094866 0.159199 0.239198
H15   H     H_    0.889864 0.539200 0.076220 0.198464
H16   H     H_    0.933471 0.589576 0.128542 0.245204
C73   C     C_R   0.446765 0.991055 0.667033 -0.042384
C74   C     C_R   0.950258 0.511570 0.670764 -0.045478
C75   C     C_R   0.500834 0.996604 0.687131 -0.106248
C76   C     C_R   0.001187 0.500019 0.687091 -0.096216
C77   C     C_R   0.557572 0.998221 0.775410 -0.208948
C78   C     C_R   0.055596 0.488688 0.772830 -0.216059
H17   H     H_    0.600723 0.000380 0.793211 0.214334
H18   H     H_    0.096437 0.479535 0.788053 0.209054
C79   C     C_R   0.558952 0.000141 0.841310 0.293840
C80   C     C_R   0.057404 0.488227 0.839359 0.294860
C81   C     C_R   0.502081 0.000080 0.816859 -0.116257
C82   C     C_R   0.003460 0.499803 0.818462 -0.127504
C83   C     C_R   0.447485 0.993768 0.730271 -0.102369
C84   C     C_R   0.951428 0.511460 0.733951 -0.090267
C85   C     C_3   0.381355 0.008213 0.668871 0.302146
C86   C     C_3   0.886162 0.526827 0.675496 0.302110
C87   C     C_3   0.380501 0.005075 0.596363 0.345956
C88   C     C_3   0.884703 0.526635 0.601944 0.329961
O17   O     O_R   0.408300 0.500000 0.356580 -0.609388
O18   O     O_R   0.908300 0.000000 0.356580 -0.620301
O19   O     O_R   0.408400 0.500000 0.460120 -0.626530
O20   O     O_R   0.908400 0.000000 0.460120 -0.621672
C89   C     C_R   0.380088 0.500615 0.380216 0.875808
C90   C     C_R   0.880121 0.000896 0.380442 0.877526
O21   O     O_R   0.499900 0.561630 0.448170 -0.565525
O22   O     O_R   0.499900 0.438370 0.448170 -0.585655
O23   O     O_R   0.999900 0.061630 0.448170 -0.579950
O24   O     O_R   0.999900 0.938370 0.448170 -0.591511
O25   O     O_R   0.500000 0.561620 0.551710 -0.629938
O26   O     O_R   0.500000 0.438380 0.551710 -0.593528
O27   O     O_R   0.000000 0.061620 0.551710 -0.608044
O28   O     O_R   0.000000 0.938380 0.551710 -0.598434
C91   C     C_R   0.499746 0.581190 0.499651 0.896437
C92   C     C_R   0.500091 0.418810 0.500161 0.893813
C93   C     C_R   0.000114 0.081189 0.500006 0.887180
C94   C     C_R   0.999586 0.918803 0.499682 0.913335
Zn5   Zn    Zn3+2 0.499870 0.500000 0.430790 1.167671
Zn6   Zn    Zn3+2 0.999870 0.000000 0.430790 1.146664
Zn7   Zn    Zn3+2 0.500010 0.500000 0.569060 1.078963
Zn8   Zn    Zn3+2 0.000010 0.000000 0.569060 1.096607
O29   O     O_R   0.591480 0.500000 0.539730 -0.545274
O30   O     O_R   0.091480 0.000000 0.539730 -0.547758
O31   O     O_R   0.591580 0.500000 0.643270 -0.599872
O32   O     O_R   0.091580 0.000000 0.643270 -0.598688
C95   C     C_R   0.619718 0.500378 0.619550 0.946177
C96   C     C_R   0.119703 0.999499 0.619566 0.952904
O33   O     O_R   0.591630 0.965220 0.091680 -0.614244
O34   O     O_R   0.591630 0.034780 0.091680 -0.554666
O35   O     O_R   0.091630 0.465220 0.091680 -0.592307
O36   O     O_R   0.091630 0.534780 0.091680 -0.582926
C97   C     C_R   0.620444 0.000143 0.123095 0.977869
C98   C     C_R   0.120339 0.500222 0.123058 0.981225
O37   O     O_R   0.500040 0.965230 0.091630 -0.585884
O38   O     O_R   0.500040 0.034770 0.091630 -0.607379
O39   O     O_R   0.000040 0.465230 0.091630 -0.587411
O40   O     O_R   0.000040 0.534770 0.091630 -0.600023
C99   C     C_R   0.501864 0.999830 0.122013 0.931863
C100  C     C_R   0.002021 0.499934 0.122329 0.926021
Zn9   Zn    Zn3+2 0.500030 0.953570 0.000010 1.124158
Zn10  Zn    Zn3+2 0.500030 0.046430 0.000010 1.156037
Zn11  Zn    Zn3+2 0.000030 0.453570 0.000010 1.135756
Zn12  Zn    Zn3+2 0.000030 0.546430 0.000010 1.148322
O41   O     O_R   0.408450 0.965250 0.908360 -0.613724
O42   O     O_R   0.408450 0.034750 0.908360 -0.625151
O43   O     O_R   0.908450 0.465250 0.908360 -0.610787
O44   O     O_R   0.908450 0.534750 0.908360 -0.631573
O45   O     O_R   0.500040 0.965230 0.908410 -0.613297
O46   O     O_R   0.500040 0.034770 0.908410 -0.552501
O47   O     O_R   0.000040 0.465230 0.908410 -0.569735
O48   O     O_R   0.000040 0.534770 0.908410 -0.591957
C101  C     C_R   0.379505 0.999832 0.879266 0.909219
C102  C     C_R   0.879525 0.500018 0.879251 0.917072
C103  C     C_R   0.499768 0.000104 0.879802 0.968884
C104  C     C_R   0.001255 0.500027 0.881367 0.968350
C105  C     C_R   0.281975 0.473730 0.248472 0.093217
C106  C     C_R   0.782463 0.965823 0.272154 0.058735
C107  C     C_R   0.314506 0.503541 0.314352 -0.123396
C108  C     C_R   0.814498 0.002456 0.317099 -0.105979
C109  C     C_R   0.283397 0.536458 0.313669 0.019247
C110  C     C_R   0.783706 0.036909 0.313392 0.019613
C111  C     C_R   0.718590 0.035716 0.252039 0.315266
C112  C     C_R   0.218335 0.535270 0.250775 0.310000
C113  C     C_R   0.686534 0.000360 0.196421 -0.216821
C114  C     C_R   0.186538 0.501553 0.190492 -0.249626
C115  C     C_R   0.719465 0.964734 0.212765 0.130996
C116  C     C_R   0.218828 0.472480 0.187774 0.145213
C117  C     C_3   0.714047 0.937064 0.152103 -0.378320
C118  C     C_3   0.217489 0.425583 0.189334 -0.325499
C119  C     C_3   0.287448 0.427067 0.255932 -0.467392
C120  C     C_3   0.784105 0.938523 0.218016 -0.423874
H19   H     H_    0.690821 0.952704 0.089523 0.250293
H20   H     H_    0.695633 0.905456 0.145777 0.233740
H21   H     H_    0.196183 0.411371 0.126468 0.255667
H22   H     H_    0.199520 0.413418 0.216167 0.235172
H23   H     H_    0.306369 0.414239 0.231086 0.243314
H24   H     H_    0.310233 0.415523 0.321373 0.227297
H25   H     H_    0.801652 0.955249 0.193868 0.239244
H26   H     H_    0.806087 0.907739 0.249510 0.243040
C121  C     C_R   0.716302 0.465813 0.734423 -0.025390
C122  C     C_R   0.216794 0.034658 0.731563 -0.029205
C123  C     C_R   0.685152 0.501865 0.685302 -0.175553
C124  C     C_R   0.185113 0.997971 0.685454 -0.173134
C125  C     C_R   0.717742 0.539959 0.709486 0.302918
C126  C     C_R   0.217042 0.959575 0.712938 0.308379
C127  C     C_R   0.281515 0.960460 0.779682 -0.160339
C128  C     C_R   0.782181 0.539019 0.775933 -0.182865
H27   H     H_    0.306650 0.931450 0.798707 0.220696
H28   H     H_    0.807790 0.567679 0.792363 0.222953
C129  C     C_R   0.313266 0.998873 0.816644 -0.107175
C130  C     C_R   0.813308 0.500884 0.816195 -0.099840
C131  C     C_R   0.280172 0.035295 0.795494 0.009647
C132  C     C_R   0.779672 0.465123 0.798460 0.022692
C133  C     C_3   0.284420 0.078148 0.771506 -0.443336
C134  C     C_3   0.783187 0.421021 0.778753 -0.447275
C135  C     C_3   0.712566 0.421545 0.707273 0.447151
C136  C     C_3   0.213807 0.077745 0.700440 0.446789
H29   H     H_    0.306319 0.077819 0.746906 0.253620
H30   H     H_    0.304900 0.101214 0.824477 0.221536
H31   H     H_    0.803033 0.399565 0.833771 0.223139
H32   H     H_    0.805305 0.418988 0.754592 0.257291
N1    N     N_R   0.374957 0.060788 0.187154 0.213831
O49   O     O_R   0.340052 0.030306 0.132553 -0.345267
O50   O     O_R   0.355734 0.083582 0.213800 -0.258611
N2    N     N_R   0.469634 0.103276 0.282790 0.215225
O51   O     O_R   0.449682 0.141254 0.254041 -0.254998
O52   O     O_R   0.518137 0.097412 0.365464 -0.397765
N3    N     N_R   0.864714 0.528406 0.165597 0.220012
O53   O     O_R   0.810407 0.545741 0.111555 -0.281427
O54   O     O_R   0.867962 0.487679 0.172009 -0.349853
N4    N     N_R   0.923097 0.593924 0.238523 0.201289
O55   O     O_R   0.965664 0.621206 0.266245 -0.373547
O56   O     O_R   0.889523 0.600563 0.253875 -0.301188
N5    N     N_R   0.617592 0.003909 0.930666 0.186979
O57   O     O_R   0.623184 0.026589 0.985686 -0.392408
O58   O     O_R   0.667337 0.989208 0.954544 -0.379582
N6    N     N_R   0.114167 0.477316 0.926459 0.197708
O59   O     O_R   0.113712 0.454316 0.975604 -0.408281
O60   O     O_R   0.166978 0.485928 0.953070 -0.348617
N7    N     N_R   0.372984 0.051147 0.683705 0.206307
O61   O     O_R   0.318730 0.068405 0.626571 -0.237959
O62   O     O_R   0.419680 0.073881 0.748124 -0.333317
N8    N     N_R   0.341453 0.977828 0.661485 0.202135
O63   O     O_R   0.282060 0.983710 0.604651 -0.237708
O64   O     O_R   0.365121 0.946797 0.716113 -0.368218
N9    N     N_R   0.882145 0.568724 0.699353 0.210620
O65   O     O_R   0.828453 0.584341 0.659612 -0.248411
O66   O     O_R   0.931332 0.591837 0.755877 -0.309406
N10   N     N_R   0.844325 0.496458 0.663461 0.218320
O67   O     O_R   0.784846 0.501579 0.600394 -0.228205
O68   O     O_R   0.865743 0.465062 0.716648 -0.381089
N11   N     N_R   0.373888 0.045391 0.556968 0.225255
O69   O     O_R   0.414089 0.075453 0.604801 -0.335412
O70   O     O_R   0.329897 0.050658 0.473019 -0.252151
N12   N     N_R   0.339184 0.972240 0.531061 0.232226
O71   O     O_R   0.279608 0.977496 0.472932 -0.225671
O72   O     O_R   0.361422 0.938712 0.527407 -0.337235
N13   N     N_R   0.878594 0.568473 0.567790 0.240185
O73   O     O_R   0.826566 0.588541 0.520267 -0.201676
O74   O     O_R   0.924025 0.585480 0.582331 -0.337693
N14   N     N_R   0.843105 0.495302 0.532768 0.229447
O75   O     O_R   0.850091 0.455505 0.551449 -0.307609
O76   O     O_R   0.801163 0.506669 0.451428 -0.255555
C137  C     C_3   0.319624 0.571099 0.381265 -0.671890
H33   H     H_    0.352372 0.585656 0.380551 0.228308
H34   H     H_    0.290172 0.596458 0.370253 0.286388
H35   H     H_    0.345875 0.558055 0.446932 0.239716
C138  C     C_3   0.820253 0.074533 0.372407 -0.679745
H36   H     H_    0.851641 0.064929 0.441537 0.235911
H37   H     H_    0.848120 0.087791 0.361662 0.234343
H38   H     H_    0.790982 0.099944 0.361715 0.289666
N15   N     N_R   0.685402 0.070093 0.245450 0.215874
O77   O     O_R   0.652358 0.064259 0.262016 -0.350536
O78   O     O_R   0.682652 0.105835 0.213696 -0.300538
N16   N     N_R   0.185071 0.565976 0.252506 0.215393
O79   O     O_R   0.179908 0.604095 0.226415 -0.311557
O80   O     O_R   0.154323 0.554712 0.270853 -0.356333
N17   N     N_R   0.687123 0.579153 0.666929 0.210361
O81   O     O_R   0.638664 0.580665 0.583322 -0.333209
O82   O     O_R   0.712140 0.614232 0.709921 -0.330930
N18   N     N_R   0.185657 0.920136 0.672731 0.207452
O83   O     O_R   0.137884 0.917554 0.588997 -0.368894
O84   O     O_R   0.209535 0.885682 0.718053 -0.336379
N19   N     N_R   0.545475 0.722682 0.431415 0.254608
O85   O     O_R   0.562989 0.750293 0.408080 -0.282047
O86   O     O_R   0.550103 0.682931 0.423657 -0.283088
N20   N     N_R   0.511105 0.277942 0.389206 0.253579
O87   O     O_R   0.515613 0.250557 0.349622 -0.262307
O88   O     O_R   0.511898 0.317759 0.376758 -0.301383
N21   N     N_R   0.055723 0.222887 0.445847 0.256357
O89   O     O_R   0.076917 0.250576 0.428064 -0.284913
O90   O     O_R   0.060662 0.183173 0.438302 -0.269359
N22   N     N_R   0.885515 0.777014 0.341655 0.249377
O91   O     O_R   0.844800 0.749320 0.283813 -0.278087
O92   O     O_R   0.872520 0.816723 0.324886 -0.372471
N23   N     N_R   0.684587 0.392188 0.723693 0.209807
O93   O     O_R   0.646595 0.405423 0.728013 -0.362915
O94   O     O_R   0.693669 0.352075 0.726858 -0.330237
N24   N     N_R   0.685892 0.418006 0.618605 0.202699
O95   O     O_R   0.639891 0.392530 0.562476 -0.307883
O96   O     O_R   0.706611 0.441219 0.594172 -0.277474
N25   N     N_R   0.186782 0.078494 0.611364 0.209377
O97   O     O_R   0.141540 0.103785 0.553423 -0.275053
O98   O     O_R   0.205649 0.052497 0.588060 -0.275772
N26   N     N_R   0.186658 0.109104 0.714563 0.209043
O99   O     O_R   0.148608 0.097900 0.720306 -0.372260
O100  O     O_R   0.196510 0.148831 0.714164 -0.312941
N27   N     N_R   0.377635 0.721918 0.390871 0.250553
O101  O     O_R   0.333617 0.749245 0.352821 -0.277974
O102  O     O_R   0.364360 0.682087 0.378557 -0.360170
N28   N     N_R   0.388549 0.277101 0.437768 0.250472
O103  O     O_R   0.348364 0.249410 0.416528 -0.270113
O104  O     O_R   0.375806 0.316816 0.429233 -0.361424
N29   N     N_R   0.877801 0.221766 0.380642 0.252155
O105  O     O_R   0.833386 0.249046 0.338478 -0.275230
O106  O     O_R   0.864603 0.181924 0.367236 -0.360798
N30   N     N_R   0.014346 0.777219 0.635786 0.252265
O107  O     O_R   0.020847 0.749591 0.686009 -0.273798
O108  O     O_R   0.014995 0.816950 0.649837 -0.317630
N31   N     N_R   0.425071 0.777882 0.326429 0.259157
O109  O     O_R   0.398163 0.750359 0.264430 -0.262285
O110  O     O_R   0.417388 0.817661 0.307940 -0.319529
N32   N     N_R   0.400543 0.221837 0.329331 0.265586
O111  O     O_R   0.364786 0.249266 0.267490 -0.274899
O112  O     O_R   0.388937 0.182039 0.311206 -0.257347
N33   N     N_R   0.934389 0.277880 0.329810 0.259258
O113  O     O_R   0.910719 0.250353 0.268828 -0.263153
O114  O     O_R   0.927574 0.317658 0.311581 -0.317318
N34   N     N_R   0.902473 0.721042 0.478354 0.263305
O115  O     O_R   0.867122 0.748195 0.470318 -0.255968
O116  O     O_R   0.892417 0.681157 0.476517 -0.257956
C139  C     C_3   0.565603 0.930217 0.384649 -0.703516
H39   H     H_    0.531764 0.914686 0.382193 0.223723
H40   H     H_    0.585766 0.905645 0.375060 0.284248
H41   H     H_    0.604032 0.943475 0.450646 0.246202
C140  C     C_3   0.067173 0.430479 0.385727 -0.700114
H42   H     H_    0.104239 0.443494 0.452363 0.242271
H43   H     H_    0.032423 0.414111 0.380391 0.231969
H44   H     H_    0.089159 0.406682 0.377878 0.282168
N35   N     N_R   0.569982 0.934957 0.254273 0.213786
O117  O     O_R   0.548893 0.896757 0.229435 -0.317554
O118  O     O_R   0.617966 0.946022 0.269563 -0.363799
N36   N     N_R   0.071994 0.435672 0.255800 0.212772
O119  O     O_R   0.118988 0.446306 0.268402 -0.370721
O120  O     O_R   0.050319 0.397574 0.231419 -0.320084

loop_
_geom_bond_atom_site_label_1
_geom_bond_atom_site_label_2
_geom_bond_distance
_ccdc_geom_bond_type
C116  C118  1.495969 S    
C113  C115  1.391055 A    
C27   C31   1.530732 S    
C120  H26   1.111681 S    
N19   O85   1.300269 A    
C125  N17   1.440307 S    
C88   N14   1.471437 S    
N23   O94   1.301163 A    
N33   O113  1.300227 A    
C11   C39   1.532970 S    
C111  N15   1.434247 S    
C10   N20   1.457053 S    
N16   O79   1.301030 A    
C24   C94   1.414590 S    
C57   C67   1.338181 A    
C79   C81   1.414410 A    
Zn8   O32   2.015333 S    
C32   C44   1.547345 S    
N8    O64   1.301956 A    
C106  C115  1.365453 A    
C133  H29   1.112000 S    
N6    O59   1.299401 A    
C34   C42   1.543408 S    
C58   C68   1.363502 A    
C24   C56   1.193551 T    
O29   C95   1.276964 A    
C135  N23   1.466787 S    
C11   N21   1.457030 S    
O35   Zn11  2.014950 S    
Zn6   O30   2.019554 S    
O9    C3    1.281492 A    
C72   N3    1.471713 S    
O10   C4    1.281798 A    
O33   Zn9   2.014950 S    
N30   O107  1.300263 A    
C87   N12   1.470919 S    
C42   C46   1.560620 S    
C88   N13   1.470569 S    
C28   N34   1.457478 S    
C117  C120  1.518832 S    
O5    C3    1.281569 A    
C44   H12   1.110228 S    
O6    C4    1.281202 A    
O31   C95   1.276031 A    
C10   C38   1.533110 S    
C127  H27   1.083304 S    
H7    C47   1.110080 S    
N4    O56   1.301386 A    
N32   O111  1.300216 A    
C34   C38   1.532943 S    
C118  C119  1.515872 S    
Zn9   O41   2.018385 S    
Zn1   O13   2.023215 S    
N1    O49   1.302000 A    
C38   C54   1.446471 S    
O38   C99   1.273268 A    
C58   C60   1.385263 A    
N23   O93   1.301654 A    
O23   Zn6   2.001214 S    
C60   C62   1.418015 A    
N24   O95   1.301389 A    
C75   C77   1.409033 A    
C105  C119  1.493064 S    
C62   C64   1.414201 A    
C58   C72   1.502842 S    
O48   C104  1.267618 A    
O17   Zn5   2.015333 S    
O42   C101  1.274349 A    
C13   C45   1.560441 S    
C67   C69   1.493414 S    
N14   O76   1.301264 A    
O35   C98   1.275822 A    
C106  C120  1.492521 S    
O21   Zn5   2.001214 S    
C23   C55   1.193296 T    
N22   O91   1.300285 A    
Zn12  O44   2.014694 S    
N34   O115  1.300273 A    
N11   O70   1.301302 A    
C63   C65   1.422108 A    
C23   C93   1.414010 S    
C96   C124  1.416694 S    
C73   C83   1.358574 A    
C134  H31   1.111832 S    
O8    C6    1.280939 A    
C2    C60   1.427106 S    
N15   O78   1.301164 A    
N36   O119  1.301099 A    
C80   C82   1.417920 A    
O19   Zn7   2.019554 S    
C33   C37   1.533053 S    
C126  C127  1.396515 A    
N1    O50   1.301376 A    
N29   O105  1.300197 A    
C14   C30   1.547511 S    
C82   C104  1.412166 S    
O37   C99   1.267027 A    
C137  H33   1.110598 S    
C114  C116  1.388917 A    
C77   H17   1.083078 S    
C63   N35   1.434316 S    
C121  C135  1.502968 S    
C9    C13   1.543505 S    
C135  N24   1.469692 S    
O40   Zn12  2.019350 S    
C136  N25   1.469574 S    
C76   C78   1.410117 A    
C62   C140  1.515960 S    
C10   C26   1.527338 S    
C12   C16   1.543732 S    
N10   O68   1.301437 A    
N19   O86   1.300223 A    
C73   C75   1.389876 A    
N9    O65   1.301098 A    
C128  H28   1.083411 S    
C107  C109  1.412970 A    
N35   O118  1.301078 A    
O34   Zn10  2.018632 S    
C38   C46   1.548253 S    
C105  C116  1.367720 A    
N26   O99   1.301680 A    
O37   Zn9   2.021756 S    
N5    O57   1.300354 A    
C111  C113  1.418201 A    
N28   O104  1.300264 A    
C25   C33   1.527631 S    
N26   O100  1.301169 A    
C27   C35   1.527429 S    
C28   C36   1.527461 S    
C57   C59   1.377453 A    
O45   C103  1.268275 A    
C122  C131  1.371719 A    
O23   C93   1.282875 A    
C7    C75   1.434469 S    
C61   C63   1.419473 A    
C101  C129  1.435412 S    
N21   O90   1.300089 A    
O41   C101  1.270537 A    
Zn11  O47   2.019347 S    
C80   N6    1.439755 S    
C117  H19   1.110339 S    
N25   O98   1.301554 A    
O27   Zn8   1.998427 S    
O6    Zn1   1.997385 S    
C83   C85   1.508708 S    
C10   C14   1.543538 S    
O33   C97   1.274653 A    
C138  H38   1.106518 S    
C128  C130  1.406520 A    
O8    Zn2   1.997385 S    
N31   O110  1.300208 A    
O36   Zn12  2.018632 S    
O9    Zn3   1.996724 S    
N18   O84   1.301418 A    
Zn7   O31   2.015333 S    
O24   Zn6   1.998789 S    
O4    Zn4   2.023385 S    
C130  C132  1.390881 A    
C33   N27   1.457414 S    
N15   O77   1.301083 A    
C70   H15   1.112821 S    
C1    C59   1.417776 S    
N13   O74   1.301890 A    
C66   C100  1.435529 S    
C74   C88   1.501914 S    
C9    C37   1.533046 S    
C89   C107  1.422841 S    
C124  C126  1.411752 A    
C140  H43   1.110718 S    
C27   N33   1.457337 S    
C77   C79   1.400779 A    
C39   C47   1.548257 S    
C84   C86   1.504040 S    
O44   C102  1.268999 A    
C41   H9    1.110155 S    
Zn9   O45   2.019347 S    
O47   C104  1.265358 A    
C73   C87   1.507551 S    
C69   H14   1.111851 S    
Zn10  O46   2.021754 S    
Zn3   O15   2.019271 S    
C32   C52   1.445528 S    
O14   C8    1.281251 A    
C6    C20   1.414378 S    
C78   H18   1.083415 S    
N12   O71   1.301192 A    
C110  C138  1.516169 S    
C122  C136  1.502678 S    
N16   O80   1.301126 A    
O11   C5    1.281279 A    
O12   Zn4   2.000439 S    
O18   Zn6   2.015333 S    
N6    O60   1.301440 A    
C64   N36   1.434563 S    
C74   C76   1.382439 A    
H5    C45   1.110225 S    
C139  H41   1.109132 S    
N30   O108  1.300199 A    
C121  C123  1.390657 A    
Zn11  O43   2.018385 S    
C17   C49   1.193659 T    
C118  H21   1.110880 S    
C22   C92   1.414163 S    
C71   N1    1.467515 S    
C137  H35   1.109236 S    
C138  H36   1.109194 S    
C12   N22   1.457413 S    
C8    C76   1.426870 S    
C39   C55   1.446413 S    
C121  C132  1.371805 A    
N32   O112  1.300137 A    
O1    C1    1.277585 A    
C86   C88   1.563457 S    
C133  C136  1.528205 S    
N20   O87   1.300248 A    
C85   C87   1.557163 S    
C25   N31   1.457491 S    
N17   O82   1.301456 A    
C119  H24   1.112474 S    
C15   C31   1.547579 S    
C81   C103  1.415396 S    
C21   C53   1.193369 T    
C109  C112  1.408892 A    
C31   C51   1.445901 S    
C21   C91   1.414187 S    
N24   O96   1.301683 A    
N3    O53   1.301176 A    
C41   C45   1.560429 S    
C86   N10   1.468193 S    
N7    O62   1.300772 A    
C109  C137  1.515732 S    
N27   O101  1.300278 A    
C120  H25   1.112224 S    
O36   C98   1.268604 A    
N22   O92   1.300275 A    
N33   O114  1.300198 A    
O46   C103  1.265945 A    
O1    Zn1   2.019519 S    
H6    C46   1.110132 S    
O2    Zn2   2.019519 S    
C40   C56   1.446714 S    
C97   C113  1.439546 S    
O39   C100  1.271722 A    
C98   C114  1.433397 S    
C85   N8    1.470314 S    
N34   O116  1.300206 A    
O26   C92   1.283380 A    
C4    C18   1.414671 S    
N35   O117  1.301034 A    
C18   C50   1.193564 T    
C25   C29   1.530997 S    
C26   C34   1.527164 S    
O43   C102  1.275472 A    
N8    O63   1.300813 A    
C133  H30   1.111836 S    
C13   H1    1.110205 S    
C28   C32   1.530949 S    
C61   C139  1.515430 S    
O20   C90   1.274152 A    
C35   N29   1.457292 S    
N17   O81   1.300206 A    
C29   C49   1.445837 S    
O22   C92   1.282679 A    
O7    Zn2   2.001110 S    
C37   C53   1.446456 S    
C139  H39   1.110673 S    
C134  H32   1.111824 S    
N36   O120  1.301117 A    
C14   C46   1.560676 S    
C43   H11   1.110094 S    
O4    C2    1.274787 A    
C66   C68   1.388670 A    
O15   C7    1.277831 A    
C11   C15   1.543489 S    
C40   C48   1.548521 S    
C108  C110  1.415127 A    
C36   C40   1.533020 S    
C86   N9    1.470354 S    
C22   C54   1.193355 T    
O22   Zn5   1.998789 S    
O25   C91   1.282955 A    
N4    O55   1.302120 A    
C112  C114  1.417995 A    
C26   N32   1.457356 S    
O16   C8    1.275259 A    
O25   Zn7   1.998427 S    
C30   C42   1.547518 S    
O28   C94   1.283023 A    
O3    C1    1.272219 A    
O21   C91   1.283125 A    
C69   C71   1.546113 S    
O17   C89   1.276873 A    
N31   O109  1.300309 A    
O24   C94   1.283243 A    
C74   C84   1.344849 A    
C95   C123  1.416657 S    
C102  C130  1.434715 S    
C65   C99   1.426811 S    
N2    O51   1.300986 A    
C106  C108  1.384933 A    
O11   Zn4   1.996724 S    
O39   Zn11  2.021756 S    
C85   N7    1.471273 S    
C30   C50   1.445766 S    
Zn10  O42   2.014694 S    
N14   O75   1.302388 A    
Zn4   O16   2.019271 S    
C11   C27   1.527395 S    
C12   C28   1.527543 S    
Zn5   O29   2.019554 S    
Zn12  O48   2.021754 S    
C43   C47   1.560442 S    
C140  H42   1.108937 S    
C5    C19   1.414795 S    
N21   O89   1.300215 A    
O12   C6    1.281937 A    
C15   H3    1.110082 S    
C19   C51   1.193675 T    
C44   C48   1.560473 S    
O28   Zn8   2.000861 S    
C132  C134  1.496826 S    
C126  N18   1.439487 S    
N25   O97   1.301243 A    
C15   C47   1.560468 S    
C138  H37   1.110535 S    
C105  C107  1.386989 A    
C59   C61   1.420486 A    
C37   C45   1.548337 S    
H8    C48   1.110156 S    
C16   C48   1.560581 S    
Zn2   O14   2.023215 S    
N29   O106  1.300215 A    
C70   H16   1.111364 S    
O13   C7    1.282161 A    
N13   O73   1.301160 A    
C9    N19   1.457164 S    
C12   C40   1.533149 S    
C34   N28   1.457304 S    
N3    O54   1.301925 A    
O2    C2    1.279727 A    
O27   C93   1.283127 A    
C136  N26   1.466845 S    
O18   C90   1.280429 A    
N2    O52   1.301507 A    
C65   C67   1.378905 A    
C82   C84   1.382662 A    
C69   H13   1.111682 S    
C35   C39   1.533046 S    
N27   O102  1.300272 A    
C72   N4    1.469618 S    
O20   Zn8   2.019554 S    
C16   H4    1.110236 S    
C90   C108  1.421890 S    
N9    O66   1.302093 A    
C127  C129  1.406051 A    
N12   O72   1.302020 A    
C115  C117  1.494364 S    
O10   Zn3   2.000439 S    
C112  N16   1.434716 S    
C64   C66   1.417078 A    
C110  C111  1.411476 A    
N5    O58   1.301574 A    
N28   O103  1.300206 A    
C131  C133  1.497101 S    
O26   Zn7   2.000861 S    
N10   O67   1.300958 A    
C125  C128  1.395864 A    
C68   C70   1.497993 S    
C70   C72   1.530101 S    
C78   C80   1.403889 A    
C81   C83   1.386985 A    
C36   N30   1.457167 S    
O7    C5    1.281822 A    
C139  H40   1.106345 S    
O32   C96   1.275513 A    
O3    Zn3   2.023385 S    
C3    C17   1.414743 S    
C118  H22   1.112417 S    
N11   O69   1.302427 A    
C42   H10   1.110092 S    
C117  H20   1.111589 S    
C26   C30   1.530756 S    
C33   C41   1.543672 S    
C71   N2    1.467291 S    
C137  H34   1.106447 S    
C13   C29   1.547470 S    
C14   H2    1.110078 S    
O34   C97   1.271854 A    
C35   C43   1.543402 S    
C16   C32   1.547497 S    
N7    O61   1.300753 A    
C129  C131  1.391493 A    
C87   N11   1.474318 S    
O5    Zn1   2.001110 S    
N18   O83   1.300236 A    
C20   C52   1.193445 T    
O40   C100  1.272182 A    
N20   O88   1.300213 A    
C9    C25   1.527539 S    
C123  C125  1.411924 A    
C119  H23   1.111634 S    
C36   C44   1.543429 S    
C134  C135  1.528685 S    
O38   Zn10  2.019350 S    
C122  C124  1.389784 A    
O30   C96   1.277409 A    
C140  H44   1.106328 S    
C29   C41   1.547629 S    
C57   C71   1.496430 S    
C31   C43   1.547519 S    
O19   C89   1.277993 A    
C79   N5    1.440569 S    
