data_mof_unit_67222.cif
_audit_creation_date              2013-03-05T16:01:25-0500
_audit_creation_method            fapswitch 2.2
_symmetry_space_group_name_H-M    P1
_symmetry_Int_Tables_number       1
_space_group_crystal_system       triclinic
_cell_length_a                    20.550132
_cell_length_b                    20.701324
_cell_length_c                    8.590429
_cell_angle_alpha                 89.646962
_cell_angle_beta                  92.337054
_cell_angle_gamma                 90.208977
_cell_volume                      3651.36674403

loop_
_atom_site_label
_atom_site_type_symbol
_atom_site_description
_atom_site_fract_x
_atom_site_fract_y
_atom_site_fract_z
_atom_type_partial_charge
P1    P     P_3+3 0.136530 0.426510 0.931350 0.483939
P2    P     P_3+3 0.136530 0.573490 0.431350 0.480230
P3    P     P_3+3 0.636530 0.926510 0.931350 0.482417
P4    P     P_3+3 0.636530 0.073490 0.431350 0.489576
O1    O     O_2   0.130070 0.404060 0.104920 -0.341818
O2    O     O_2   0.130070 0.595940 0.604920 -0.314855
O3    O     O_2   0.630070 0.904060 0.104920 -0.343178
O4    O     O_2   0.630070 0.095940 0.604920 -0.327947
O5    O     O_3   0.075780 0.466370 0.861070 -0.374119
O6    O     O_3   0.075780 0.533630 0.361070 -0.430348
O7    O     O_3   0.575780 0.966370 0.861070 -0.414819
O8    O     O_3   0.575780 0.033630 0.361070 -0.386159
O9    O     O_3   0.022320 0.344950 0.359800 -0.334957
O10   O     O_3   0.022320 0.655050 0.859800 -0.315621
O11   O     O_3   0.522320 0.844950 0.359800 -0.297928
O12   O     O_3   0.522320 0.155050 0.859800 -0.347575
O13   O     O_2   0.136420 0.307426 0.259063 -0.348125
O14   O     O_2   0.135143 0.694437 0.753198 -0.330852
O15   O     O_2   0.628465 0.794513 0.237056 -0.359347
O16   O     O_2   0.626910 0.205170 0.735478 -0.352461
O17   O     O_3   0.198028 0.484714 0.958882 -0.600607
O18   O     O_3   0.198696 0.516926 0.466178 -0.582682
O19   O     O_3   0.698940 0.983908 0.957045 -0.589508
O20   O     O_3   0.698740 0.016507 0.460522 -0.585694
O21   O     O_3   0.060763 0.214729 0.324716 -0.502406
O22   O     O_3   0.059491 0.785208 0.825819 -0.490975
O23   O     O_3   0.557739 0.714256 0.384609 -0.561469
O24   O     O_3   0.549649 0.286398 0.857677 -0.558737
C1    C     C_3   0.049440 0.111039 0.440507 -0.727926
C2    C     C_3   0.044782 0.886301 0.943944 -0.797075
C3    C     C_3   0.540727 0.638190 0.588440 -0.731245
C4    C     C_3   0.580147 0.383739 0.987681 -0.875196
H1    H     H_    0.037667 0.090041 0.324941 0.278160
H2    H     H_    0.036740 0.906737 0.825316 0.280162
H3    H     H_    0.536244 0.598930 0.501132 0.309495
H4    H     H_    0.553522 0.419114 0.911818 0.263639
H5    H     H_    0.102790 0.107048 0.464175 0.246934
H6    H     H_    0.097239 0.891747 0.977837 0.262281
H7    H     H_    0.591932 0.640817 0.633896 0.237862
H8    H     H_    0.628466 0.375289 0.939463 0.262076
P5    P     P_3+3 0.863410 0.426100 0.379280 0.492416
P6    P     P_3+3 0.863410 0.573900 0.879280 0.504594
P7    P     P_3+3 0.363410 0.926100 0.379280 0.503808
P8    P     P_3+3 0.363410 0.073900 0.879280 0.511830
P9    P     P_3+3 0.909142 0.290839 0.930157 0.560780
P10   P     P_3+3 0.910159 0.709354 0.425801 0.519924
P11   P     P_3+3 0.413625 0.786286 0.926426 0.516313
P12   P     P_3+3 0.411325 0.210495 0.427710 0.528978
O25   O     O_2   0.869860 0.403670 0.205810 -0.313982
O26   O     O_2   0.869860 0.596330 0.705810 -0.348324
O27   O     O_2   0.369860 0.903670 0.205810 -0.330810
O28   O     O_2   0.369860 0.096330 0.705810 -0.366032
O29   O     O_3   0.977590 0.344880 0.951200 -0.329759
O30   O     O_3   0.977590 0.655120 0.451200 -0.360378
O31   O     O_3   0.477590 0.844880 0.951200 -0.363423
O32   O     O_3   0.477590 0.155120 0.451200 -0.356394
O33   O     O_2   0.858853 0.309934 0.048676 -0.308060
O34   O     O_2   0.858334 0.690174 0.541914 -0.348246
O35   O     O_2   0.370005 0.790889 0.068818 -0.356915
O36   O     O_2   0.370344 0.209607 0.575113 -0.369198
O37   O     O_3   0.795249 0.478307 0.366189 -0.550561
O38   O     O_3   0.798876 0.518375 0.878098 -0.587687
O39   O     O_3   0.297789 0.979776 0.369439 -0.568294
O40   O     O_3   0.300090 0.015608 0.873450 -0.545927
O41   O     O_3   0.932089 0.215350 0.002528 -0.469415
O42   O     O_3   0.934305 0.785108 0.494104 -0.461680
O43   O     O_3   0.447995 0.708323 0.932874 -0.555546
O44   O     O_3   0.444684 0.288156 0.420765 -0.512641
C5    C     C_3   0.979273 0.190417 0.907386 0.229858
C6    C     C_3   0.976970 0.811296 0.387972 0.198245
C7    C     C_3   0.463344 0.691621 0.088585 0.300567
C8    C     C_3   0.481025 0.300436 0.558569 0.380662
H9    H     H_    0.021921 0.223792 0.904059 0.134666
H10   H     H_    0.017755 0.777104 0.369542 0.132133
H11   H     H_    0.418520 0.691816 0.156270 0.122796
H12   H     H_    0.453118 0.287750 0.661705 0.172042
H13   H     H_    0.958447 0.183172 0.787223 0.108308
H14   H     H_    0.950670 0.821030 0.274819 0.098542
H15   H     H_    0.499089 0.727137 0.137181 0.179214
H16   H     H_    0.526523 0.271450 0.560868 0.152397
C9    C     C_3   0.002477 0.125446 0.975711 -0.602704
C10   C     C_3   0.005679 0.874664 0.452417 -0.604658
C11   C     C_3   0.492331 0.623095 0.105344 -0.663384
C12   C     C_3   0.497988 0.373003 0.567524 -0.695278
H17   H     H_    0.026459 0.134742 0.090922 0.192893
H18   H     H_    0.033355 0.863720 0.563104 0.209673
H19   H     H_    0.516809 0.619459 0.222435 0.176022
H20   H     H_    0.527073 0.380966 0.676328 0.153131
C13   C     C_3   0.799149 0.476834 0.749855 0.248227
C14   C     C_3   0.811170 0.535774 0.290154 0.200039
C15   C     C_3   0.287190 0.986750 0.726337 0.315259
C16   C     C_3   0.311857 0.036933 0.290613 0.233795
H21   H     H_    0.790527 0.504914 0.641416 0.176100
H22   H     H_    0.832914 0.524122 0.178182 0.139541
H23   H     H_    0.272207 0.021961 0.636810 0.132548
H24   H     H_    0.327155 0.026504 0.171628 0.132354
H25   H     H_    0.846549 0.451636 0.746095 0.096310
H26   H     H_    0.845343 0.563350 0.368062 0.129716
H27   H     H_    0.330113 0.964562 0.681473 0.091782
H28   H     H_    0.351313 0.063294 0.356083 0.101204
C17   C     C_3   0.744290 0.426855 0.769538 -0.244042
C18   C     C_3   0.752080 0.580073 0.253536 -0.047696
C19   C     C_3   0.233861 0.934961 0.743868 -0.246090
C20   C     C_3   0.249914 0.078886 0.286402 -0.106980
H29   H     H_    0.765567 0.380222 0.810386 0.160250
H30   H     H_    0.754417 0.598904 0.133552 0.095888
H31   H     H_    0.257517 0.889126 0.782050 0.147295
H32   H     H_    0.263382 0.130033 0.304507 0.105118
H33   H     H_    0.710449 0.444286 0.856719 0.192049
H34   H     H_    0.754775 0.623245 0.329444 0.132661
H35   H     H_    0.199850 0.950010 0.833654 0.199274
H36   H     H_    0.218387 0.064915 0.382758 0.205660
Ba1   Ba    Ba6+2 0.999980 0.452130 0.155200 1.681285
Ba2   Ba    Ba6+2 0.999980 0.547870 0.655200 1.694670
Ba3   Ba    Ba6+2 0.499980 0.952130 0.155200 1.685093
Ba4   Ba    Ba6+2 0.499980 0.047870 0.655200 1.680604
C21   C     C_3   0.239196 0.487422 0.831731 0.789497
C22   C     C_3   0.229585 0.501658 0.328155 0.798419
C23   C     C_3   0.736288 0.988924 0.823173 0.760091
C24   C     C_3   0.732255 0.007233 0.322627 0.784131
H37   H     H_    0.214923 0.469344 0.722850 0.044496
H38   H     H_    0.195087 0.504735 0.226460 0.055347
H39   H     H_    0.708779 0.972710 0.716889 0.041117
H40   H     H_    0.700253 0.016473 0.218284 0.040266
C25   C     C_3   0.300166 0.447239 0.868128 -0.884972
C26   C     C_3   0.286911 0.547510 0.304235 -0.948451
C27   C     C_3   0.798103 0.948295 0.843360 -0.802522
C28   C     C_3   0.791541 0.052008 0.318267 -0.860058
H41   H     H_    0.324927 0.463408 0.977952 0.276970
H42   H     H_    0.326991 0.537268 0.391195 0.293714
H43   H     H_    0.830197 0.967639 0.938896 0.281685
H44   H     H_    0.830469 0.035595 0.402555 0.298314
H45   H     H_    0.334531 0.452282 0.773345 0.262497
H46   H     H_    0.304525 0.541392 0.185162 0.254617
H47   H     H_    0.824750 0.948711 0.733734 0.246002
H48   H     H_    0.810189 0.052731 0.199059 0.245409
H49   H     H_    0.287888 0.395659 0.877798 0.207123
H50   H     H_    0.272931 0.598399 0.314904 0.210373
H51   H     H_    0.786672 0.897665 0.870070 0.219554
H52   H     H_    0.779032 0.101856 0.346995 0.203843
O45   O     O_3   0.924190 0.533610 0.949240 -0.338125
O46   O     O_3   0.924190 0.466390 0.449240 -0.399026
O47   O     O_3   0.424190 0.033610 0.949240 -0.367157
O48   O     O_3   0.424190 0.966390 0.449240 -0.382782
P13   P     P_3+3 0.087862 0.708690 0.882670 0.578008
P14   P     P_3+3 0.087802 0.291440 0.384615 0.560455
P15   P     P_3+3 0.586755 0.210471 0.882771 0.534513
P16   P     P_3+3 0.589044 0.793028 0.386250 0.537103
C29   C     C_3   0.028977 0.181977 0.444637 0.285539
C30   C     C_3   0.025758 0.815001 0.945504 0.321616
C31   C     C_3   0.520315 0.702838 0.516495 0.315481
C32   C     C_3   0.542743 0.319886 0.998852 0.321997
H53   H     H_    0.042284 0.200541 0.562487 0.076547
H54   H     H_    0.038349 0.795314 0.063535 0.018402
H55   H     H_    0.526910 0.739787 0.609600 0.061150
H56   H     H_    0.561229 0.293219 0.103299 0.103658
H57   H     H_    0.024011 0.081833 0.528358 0.261864
H58   H     H_    0.015565 0.914373 0.025411 0.258839
H59   H     H_    0.508787 0.626509 0.685495 0.254258
H60   H     H_    0.587613 0.405692 0.103508 0.282097
C33   C     C_R   0.232883 0.297896 0.016353 -0.135684
C34   C     C_R   0.235809 0.700301 0.510528 -0.125608
C35   C     C_R   0.735174 0.799107 0.010451 -0.103564
C36   C     C_R   0.733592 0.200972 0.511347 -0.127723
C37   C     C_R   0.156475 0.352282 0.818748 0.110065
C38   C     C_R   0.157015 0.647900 0.317040 0.119848
C39   C     C_R   0.657810 0.853033 0.816044 0.122144
C40   C     C_R   0.657365 0.147539 0.314344 0.112135
C41   C     C_R   0.128770 0.350845 0.667169 -0.253104
C42   C     C_R   0.129341 0.649217 0.165656 -0.260639
C43   C     C_R   0.630873 0.852908 0.664163 -0.309395
C44   C     C_R   0.630321 0.148944 0.161903 -0.282546
C45   C     C_R   0.132741 0.296526 0.574711 0.280422
C46   C     C_R   0.134060 0.703520 0.071212 0.246304
C47   C     C_R   0.640614 0.801834 0.564513 0.287737
C48   C     C_R   0.639485 0.201038 0.062571 0.302237
C49   C     C_R   0.171017 0.245548 0.625188 -0.266718
C50   C     C_R   0.172790 0.754827 0.120269 -0.262750
C51   C     C_R   0.680717 0.750848 0.611799 -0.292812
C52   C     C_R   0.682095 0.250276 0.108962 -0.317322
C53   C     C_R   0.206536 0.246714 0.770249 0.065053
C54   C     C_R   0.207837 0.753834 0.265850 0.074757
C55   C     C_R   0.711772 0.749156 0.761301 0.040331
C56   C     C_R   0.712025 0.251323 0.260076 0.068044
C57   C     C_R   0.198498 0.299809 0.870750 -0.019736
C58   C     C_R   0.199961 0.700045 0.366906 -0.021350
C59   C     C_R   0.701476 0.801225 0.864635 -0.007969
C60   C     C_R   0.700738 0.199250 0.364047 -0.006273
H61   H     H_    0.104184 0.392624 0.619023 0.116125
H62   H     H_    0.102052 0.607870 0.121819 0.170832
H63   H     H_    0.601590 0.893191 0.622572 0.184559
H64   H     H_    0.601954 0.108794 0.118241 0.120262
C61   C     C_R   0.792428 0.697967 0.946100 -0.096076
C62   C     C_R   0.791197 0.302560 0.448071 0.013276
C63   C     C_R   0.288907 0.195807 0.953388 -0.006569
C64   C     C_R   0.290205 0.804124 0.449928 0.018150
C65   C     C_R   0.781854 0.750709 0.048998 0.108195
C66   C     C_R   0.779358 0.250007 0.552438 0.096787
C67   C     C_R   0.277077 0.247406 0.058616 0.070100
C68   C     C_R   0.280216 0.750632 0.552752 0.090884
C69   C     C_R   0.845207 0.652701 0.984939 0.107948
C70   C     C_R   0.843962 0.347664 0.487999 0.107627
C71   C     C_R   0.341731 0.150480 0.991709 0.096396
C72   C     C_R   0.341441 0.850652 0.492512 0.146006
C73   C     C_R   0.885188 0.666563 0.117280 -0.414700
C74   C     C_R   0.883278 0.332968 0.621915 -0.395813
C75   C     C_R   0.380146 0.163325 0.127403 -0.444844
C76   C     C_R   0.377890 0.840953 0.633110 -0.419434
C77   C     C_R   0.868017 0.711559 0.228145 0.070603
C78   C     C_R   0.864403 0.289259 0.734862 0.103253
C79   C     C_R   0.360607 0.205234 0.242194 0.189884
C80   C     C_R   0.363030 0.792918 0.739830 0.185347
C81   C     C_R   0.816816 0.753966 0.193293 -0.156301
C82   C     C_R   0.812496 0.247368 0.699883 -0.204190
C83   C     C_R   0.310042 0.248576 0.206158 -0.175531
C84   C     C_R   0.314925 0.747307 0.698461 -0.185156
C85   C     C_R   0.750507 0.694888 0.809979 -0.078753
C86   C     C_R   0.750431 0.305404 0.309438 -0.076763
C87   C     C_R   0.248545 0.194642 0.814850 -0.015548
C88   C     C_R   0.249126 0.806624 0.310797 -0.086131
H65   H     H_    0.172682 0.205551 0.545807 0.162801
H66   H     H_    0.175080 0.795160 0.040567 0.167414
H67   H     H_    0.686442 0.712217 0.529703 0.189921
H68   H     H_    0.690349 0.288591 0.026323 0.164279
H69   H     H_    0.805163 0.790289 0.277910 0.201311
H70   H     H_    0.799908 0.211082 0.784967 0.206320
H71   H     H_    0.298631 0.285052 0.290540 0.219493
H72   H     H_    0.306012 0.707926 0.778470 0.208812
H73   H     H_    0.228093 0.337478 0.095144 0.217587
H74   H     H_    0.231276 0.659959 0.588880 0.221215
H75   H     H_    0.727760 0.837022 0.092480 0.212466
H76   H     H_    0.726302 0.162502 0.593193 0.221467
C89   C     C_2   0.956132 0.186957 0.420791 1.001666
O49   O     O_2   0.932125 0.224974 0.325623 -0.551404
O50   O     O_R   0.915979 0.148400 0.510488 -0.809081
H77   H     H_    0.868197 0.155148 0.482843 0.339313
C90   C     C_2   0.953290 0.808107 0.915410 0.979759
O51   O     O_2   0.915570 0.839598 0.990854 -0.669341
O52   O     O_R   0.929084 0.765393 0.802357 -0.686267
H78   H     H_    0.880116 0.768555 0.786237 0.336813
C91   C     C_2   0.449516 0.701656 0.466248 0.912693
O53   O     O_2   0.425665 0.749411 0.403362 -0.651022
O54   O     O_R   0.411276 0.646530 0.487652 -0.764239
H79   H     H_    0.365061 0.652337 0.444841 0.328569
C92   C     C_2   0.471758 0.333131 0.023526 1.051779
O55   O     O_2   0.456274 0.367305 0.131412 -0.618617
O56   O     O_R   0.423565 0.305802 0.925347 -0.802911
H80   H     H_    0.378344 0.320667 0.950409 0.325726
N1    N     N_R   0.704102 0.416555 0.629235 0.251317
O57   O     O_R   0.674804 0.466002 0.564848 -0.315190
O58   O     O_R   0.678273 0.359659 0.608344 -0.382607
N2    N     N_R   0.689248 0.548302 0.266046 0.329168
O59   O     O_R   0.665012 0.516928 0.146385 -0.386452
O60   O     O_R   0.649818 0.569119 0.368995 -0.327752
N3    N     N_R   0.195047 0.922712 0.601538 0.258526
O61   O     O_R   0.165490 0.970338 0.529742 -0.403454
O62   O     O_R   0.172293 0.864642 0.579589 -0.371725
N4    N     N_R   0.211130 0.073780 0.141364 0.265780
O63   O     O_R   0.176056 0.123130 0.096250 -0.376681
O64   O     O_R   0.195503 0.017216 0.086984 -0.350352
N5    N     N_R   0.258794 0.554535 0.805966 0.250009
O65   O     O_R   0.298759 0.568578 0.697054 -0.422480
O66   O     O_R   0.239069 0.600340 0.895647 -0.409600
N6    N     N_R   0.254094 0.435384 0.339782 0.241923
O67   O     O_R   0.295847 0.414806 0.241899 -0.445484
O68   O     O_R   0.238507 0.397995 0.454762 -0.403762
N7    N     N_R   0.755219 0.056368 0.800504 0.246228
O69   O     O_R   0.793724 0.071761 0.689597 -0.420655
O70   O     O_R   0.737107 0.100904 0.895688 -0.425056
N8    N     N_R   0.754757 0.940398 0.316865 0.240765
O71   O     O_R   0.792813 0.922811 0.207704 -0.420154
O72   O     O_R   0.741891 0.899536 0.427196 -0.432813
C93   C     C_2   0.051832 0.094325 0.877763 1.138351
O73   O     O_2   0.077385 0.125217 0.775585 -0.684545
O74   O     O_R   0.068967 0.029985 0.905842 -0.756065
H81   H     H_    0.098302 0.012113 0.824944 0.350429
C94   C     C_2   0.052822 0.901728 0.340128 1.114568
O75   O     O_2   0.092701 0.865742 0.285627 -0.635922
O76   O     O_R   0.051566 0.967055 0.298048 -0.755982
H82   H     H_    0.086360 0.978815 0.222541 0.389354
C95   C     C_2   0.543498 0.609221 0.990238 1.209902
O77   O     O_2   0.587664 0.647922 0.971873 -0.602053
O78   O     O_R   0.541434 0.550753 0.908907 -0.774466
H83   H     H_    0.577026 0.546397 0.832281 0.346713
C96   C     C_2   0.539738 0.394512 0.437150 1.294223
O79   O     O_2   0.569658 0.354841 0.363716 -0.637763
O80   O     O_R   0.545878 0.460388 0.404116 -0.700291
H84   H     H_    0.573734 0.469262 0.312244 0.381482
C97   C     C_2   0.944152 0.631187 0.152328 1.081775
O81   O     O_2   0.996128 0.659170 0.149952 -0.707180
O82   O     O_R   0.938815 0.571326 0.222299 -0.810156
H85   H     H_    0.976005 0.561245 0.295534 0.388678
C98   C     C_2   0.950109 0.354054 0.638428 1.056763
O83   O     O_2   0.992817 0.313439 0.636300 -0.741590
O84   O     O_R   0.964335 0.415435 0.690588 -0.729842
H86   H     H_    0.010222 0.425984 0.665108 0.332818
C99   C     C_2   0.447423 0.143719 0.140609 1.082095
O85   O     O_2   0.489706 0.184902 0.131868 -0.681077
O86   O     O_R   0.462812 0.082799 0.195064 -0.745706
H87   H     H_    0.508718 0.073449 0.168494 0.332489
C100  C     C_2   0.433856 0.880965 0.673316 1.082511
O87   O     O_2   0.487589 0.865459 0.633452 -0.661523
O88   O     O_R   0.426419 0.931234 0.775879 -0.769703
H88   H     H_    0.469360 0.947905 0.816255 0.393915
C101  C     C_2   0.731496 0.631940 0.744897 1.065848
O89   O     O_2   0.744862 0.617504 0.612645 -0.638091
O90   O     O_R   0.693931 0.590735 0.833333 -0.757180
H89   H     H_    0.680601 0.550582 0.773956 0.344620
C102  C     C_2   0.731846 0.367776 0.239943 1.094660
O91   O     O_2   0.691548 0.400694 0.302012 -0.522040
O92   O     O_R   0.755957 0.387359 0.099235 -0.802479
H90   H     H_    0.751444 0.435631 0.085909 0.348790
C103  C     C_2   0.239473 0.136371 0.725333 1.025676
O93   O     O_2   0.259594 0.134009 0.594114 -0.701147
O94   O     O_R   0.197120 0.089830 0.779146 -0.721337
H91   H     H_    0.177111 0.063654 0.690860 0.327128
C104  C     C_2   0.240753 0.866161 0.219234 1.114331
O95   O     O_2   0.207736 0.909612 0.268003 -0.505852
O96   O     O_R   0.264816 0.870468 0.070837 -0.798253
H92   H     H_    0.266115 0.916985 0.035744 0.345166
C105  C     C_2   0.946929 0.079037 0.995173 1.146932
O97   O     O_2   0.909313 0.067146 0.885190 -0.606037
O98   O     O_R   0.940998 0.046961 0.137284 -0.767515
H93   H     H_    0.907530 0.011016 0.130728 0.356288
C106  C     C_2   0.953471 0.923280 0.483912 1.174111
O99   O     O_2   0.911754 0.936034 0.383185 -0.589459
O100  O     O_R   0.954512 0.955560 0.626212 -0.803987
H94   H     H_    0.920280 0.990586 0.628679 0.359595
C107  C     C_2   0.440249 0.571750 0.097719 1.110326
O101  O     O_2   0.401259 0.569500 0.986446 -0.575191
O102  O     O_R   0.439118 0.524898 0.215384 -0.749102
H95   H     H_    0.406481 0.489198 0.191681 0.358147
C108  C     C_2   0.438618 0.415658 0.573243 1.121071
O103  O     O_2   0.384058 0.394290 0.542647 -0.559764
O104  O     O_R   0.446992 0.480700 0.612744 -0.723805
H96   H     H_    0.404903 0.505968 0.605295 0.366569

loop_
_geom_bond_atom_site_label_1
_geom_bond_atom_site_label_2
_geom_bond_distance
_ccdc_geom_bond_type
O25   Ba1   2.900939 S    
N3    O62   1.300308 A    
C107  O102  1.397366 S    
O82   H85   0.991852 S    
P5    O37   1.771829 S    
P7    O39   1.749510 S    
C108  O103  1.222980 D    
P8    O40   1.770830 S    
P9    O33   1.534484 D    
O5    Ba2   2.856272 S    
C63   C71   1.463472 A    
C9    C105  1.503188 S    
C34   C68   1.421510 A    
C61   C69   1.462821 A    
Ba1   O46   3.037540 S    
C2    H6    1.110641 S    
C10   C106  1.507327 S    
C29   H53   1.108521 S    
O17   C21   1.409335 S    
C32   H56   1.105320 S    
C6    H10   1.115839 S    
P8    C71   1.924467 S    
C68   C84   1.416592 A    
C31   H55   1.114030 S    
P4    O8    1.594077 S    
C63   C67   1.431401 A    
C107  O101  1.222996 D    
O8    Ba3   2.862429 S    
O1    Ba1   2.905611 S    
C56   C86   1.424160 A    
C92   O55   1.222479 D    
P7    O48   1.598213 S    
P1    Ba1   3.509548 S    
P5    O25   1.574452 D    
O29   Ba1   2.861274 S    
C37   C41   1.400167 A    
O20   C24   1.408804 S    
O98   H93   1.011685 S    
C15   C19   1.541442 S    
P15   C48   1.859926 S    
C39   C43   1.396373 A    
O10   Ba2   2.863159 S    
C77   C81   1.394713 A    
P4    C40   1.885409 S    
O26   Ba2   2.909528 S    
O88   H88   0.996206 S    
O44   C8    1.397833 S    
O32   Ba4   2.847086 S    
C32   C92   1.508944 S    
C8    C12   1.542575 S    
O6    Ba1   2.862429 S    
C33   H73   1.073353 S    
O11   Ba3   2.848934 S    
C66   C82   1.414259 A    
C34   C58   1.410981 A    
C42   C46   1.387708 A    
O18   C22   1.405749 S    
O24   P15   1.757739 S    
C13   C17   1.541060 S    
C38   C58   1.447605 A    
C12   H20   1.101661 S    
P5    Ba1   3.505593 S    
C36   C60   1.410311 A    
C23   H39   1.107321 S    
O15   P16   1.543954 D    
C11   C107  1.505456 S    
C36   H76   1.073234 S    
O13   P14   1.533633 D    
C96   O80   1.397515 S    
P2    Ba2   3.502863 S    
O42   C6    1.396247 S    
C43   C47   1.384702 A    
O30   Ba2   2.847086 S    
C52   H68   1.078776 S    
C73   C97   1.438469 S    
C6    C10   1.533632 S    
C27   H43   1.107642 S    
P3    O7    1.594942 S    
O4    Ba4   2.897097 S    
C1    C29   1.530041 S    
O104  H96   1.012028 S    
C25   H41   1.106578 S    
P8    Ba4   3.512379 S    
C105  O97   1.221766 D    
C51   H67   1.079408 S    
C19   H31   1.109393 S    
O40   C15   1.416010 S    
P5    C70   1.917160 S    
C52   C56   1.413883 A    
N2    O59   1.300254 A    
C1    H1    1.103639 S    
C5    H13   1.112039 S    
C86   C102  1.464544 S    
C41   H61   1.075221 S    
C63   C87   1.422877 A    
P3    C39   1.882751 S    
C44   H64   1.074155 S    
C61   C85   1.425455 A    
N1    O57   1.298674 A    
C84   H72   1.082973 S    
C67   C83   1.412856 A    
C4    H4    1.108290 S    
C76   C100  1.446489 S    
O28   Ba4   2.909528 S    
O19   C23   1.411485 S    
N5    O65   1.300744 A    
C103  O94   1.385889 S    
Ba3   Ba4   4.741505 S    
C16   H24   1.104365 S    
O21   C29   1.410901 S    
C91   O53   1.218495 D    
C22   H38   1.104066 S    
C106  O100  1.396113 S    
C14   C18   1.545279 S    
Ba4   O48   2.862539 S    
P6    Ba2   3.512379 S    
N6    O67   1.300241 A    
C101  O90   1.391311 S    
C45   C49   1.375868 A    
C89   O49   1.221938 D    
P6    O38   1.751574 S    
C9    C93   1.494252 S    
P8    O28   1.568740 D    
P9    O29   1.798061 S    
C55   C85   1.429736 A    
C90   O51   1.223007 D    
P10   O34   1.538017 D    
C75   C79   1.389857 A    
C99   O86   1.375825 S    
C7    C11   1.544206 S    
C102  O92   1.382844 S    
C2    H2    1.107356 S    
Ba2   O45   3.033408 S    
C72   C76   1.408707 A    
C20   H36   1.108134 S    
C16   C20   1.542698 S    
P11   O35   1.549299 D    
C12   C108  1.511281 S    
C29   C89   1.506450 S    
P2    O18   1.751596 S    
C98   O83   1.218354 D    
C31   C91   1.500800 S    
C3    C31   1.523718 S    
C74   C78   1.388488 A    
C4    C32   1.531128 S    
C2    H58   1.108955 S    
O76   H82   1.012851 S    
C30   C90   1.507474 S    
P6    O45   1.599103 S    
C97   O81   1.214074 D    
C20   N4    1.455606 S    
C26   H46   1.107019 S    
P6    O26   1.568740 D    
C38   C42   1.398106 A    
P9    O41   1.737957 S    
C64   C72   1.461399 A    
C88   C104  1.464877 S    
C46   C50   1.382447 A    
Ba3   O48   3.037540 S    
C17   N1    1.449441 S    
N7    O69   1.300496 A    
C95   O78   1.400907 S    
C94   O76   1.397732 S    
N4    O63   1.300434 A    
C28   H52   1.096410 S    
P5    O46   1.598213 S    
C8    H16   1.112250 S    
C62   C66   1.431917 A    
P8    O47   1.599103 S    
C49   C53   1.418545 A    
C93   O74   1.395968 S    
Ba1   O45   2.856378 S    
C83   H71   1.082821 S    
C13   H21   1.103481 S    
C81   H69   1.083223 S    
C15   H23   1.092249 S    
C48   C52   1.390871 A    
P13   C46   1.846415 S    
C35   C65   1.417981 A    
P7    C72   1.897738 S    
C69   C73   1.405691 A    
C15   H27   1.081862 S    
C21   C25   1.527088 S    
C9    H17   1.105138 S    
C44   C48   1.388115 A    
C23   C27   1.529439 S    
C11   H19   1.108397 S    
C12   C96   1.502708 S    
C40   C60   1.445798 A    
C19   N3    1.455426 S    
O52   H78   1.012486 S    
O14   P13   1.537016 D    
O37   C14   1.397834 S    
C54   C88   1.426532 A    
O10   P13   1.748138 S    
O12   P15   1.754705 S    
P1    O1    1.569702 D    
C27   H47   1.108480 S    
P10   O42   1.741178 S    
P3    O3    1.569702 D    
C28   H48   1.107939 S    
P4    O20   1.752111 S    
C2    C30   1.525636 S    
C26   H42   1.109297 S    
C17   H33   1.105608 S    
O54   H79   1.011675 S    
C62   C70   1.459962 A    
O38   C13   1.401927 S    
C19   H35   1.108587 S    
C54   C58   1.420555 A    
C104  O96   1.388256 S    
C33   C57   1.411691 A    
O23   P16   1.750734 S    
C53   C87   1.424374 A    
O50   H77   1.010786 S    
C5    H9    1.115193 S    
O21   P14   1.753760 S    
P2    C38   1.877393 S    
C64   C68   1.431671 A    
C21   N5    1.463144 S    
C108  O104  1.398878 S    
O94   H91   1.007923 S    
O12   Ba4   2.863159 S    
C7    H15   1.108710 S    
C36   C66   1.417704 A    
C14   H22   1.105338 S    
C100  O88   1.380574 S    
O90   H89   1.009110 S    
O22   C30   1.409640 S    
P1    O5    1.594942 S    
O84   H86   0.999794 S    
C1    H57   1.110120 S    
C25   H49   1.099705 S    
C10   H18   1.110450 S    
O27   Ba3   2.900939 S    
O86   H87   0.999477 S    
C96   O79   1.221525 D    
C55   C59   1.422458 A    
O80   H84   1.009262 S    
P12   C79   1.871837 S    
P10   O30   1.792198 S    
C43   H63   1.080584 S    
C23   N7    1.462015 S    
P12   O44   1.747087 S    
O7    Ba4   2.856272 S    
C34   H74   1.075538 S    
C92   O56   1.394953 S    
C3    H3    1.110360 S    
C18   H34   1.109452 S    
C20   H32   1.103733 S    
C65   C81   1.409008 A    
N2    O60   1.300033 A    
Ba1   Ba2   4.741505 S    
O23   C31   1.413293 S    
P1    C37   1.876183 S    
P4    Ba4   3.502863 S    
C100  O87   1.214241 D    
C24   C28   1.529691 S    
P10   C77   1.874711 S    
C75   C99   1.442131 S    
O100  H94   1.013028 S    
O102  H95   1.012203 S    
P3    Ba3   3.509548 S    
N7    O70   1.301422 A    
P7    O27   1.574452 D    
C103  O93   1.217723 D    
O11   P16   1.751992 S    
O31   Ba3   2.861274 S    
O41   C5    1.395740 S    
O43   C7    1.403202 S    
C87   C103  1.441981 S    
C106  O99   1.221364 D    
C5    C9    1.533949 S    
O96   H92   1.007855 S    
C40   C44   1.401744 A    
C22   N6    1.464655 S    
N6    O68   1.300711 A    
C101  O89   1.218896 D    
C1    H5    1.110153 S    
N8    O71   1.299847 A    
C79   C83   1.399200 A    
O92   H90   1.009311 S    
P1    O17   1.752978 S    
C6    H14   1.110450 S    
C99   O85   1.219256 D    
P3    O19   1.753430 S    
P4    O4    1.575418 D    
C62   C86   1.428880 A    
C102  O91   1.216177 D    
C18   N2    1.454512 S    
Ba2   O46   2.862539 S    
C35   H75   1.073430 S    
P14   C45   1.846372 S    
C35   C59   1.406890 A    
O3    Ba3   2.905611 S    
C21   H37   1.108433 S    
C74   C98   1.441296 S    
P7    Ba3   3.505593 S    
O2    Ba2   2.897097 S    
C80   C84   1.401351 A    
C105  O98   1.395594 S    
O39   C16   1.394886 S    
C85   C101  1.466534 S    
C76   C80   1.389928 A    
P11   C80   1.879275 S    
P2    O2    1.575418 D    
C27   H51   1.098172 S    
O9    P14   1.751533 S    
C28   H44   1.109664 S    
P11   O43   1.763753 S    
C64   C88   1.435646 A    
P12   O36   1.549034 D    
C51   C55   1.410917 A    
C17   H29   1.110221 S    
Ba3   O47   2.856378 S    
N1    O58   1.300577 A    
P16   C47   1.836047 S    
C33   C67   1.422838 A    
N5    O66   1.301635 A    
C53   C57   1.416123 A    
C47   C51   1.389958 A    
C95   O77   1.222842 D    
C78   C82   1.396596 A    
C71   C75   1.407100 A    
C37   C57   1.447305 A    
C56   C60   1.420119 A    
C13   H25   1.108355 S    
C91   O54   1.398669 S    
O22   P13   1.749728 S    
N4    O64   1.297773 A    
C11   C95   1.502120 S    
Ba4   O47   3.033408 S    
C73   C77   1.392817 A    
C39   C59   1.449374 A    
C93   O73   1.217942 D    
O16   P15   1.543200 D    
C8    H12   1.104667 S    
C50   C54   1.417552 A    
C89   O50   1.396835 S    
O74   H81   1.011042 S    
O24   C32   1.413012 S    
C90   O52   1.393007 S    
C70   C74   1.410821 A    
C10   C94   1.499514 S    
N3    O61   1.299111 A    
P2    O6    1.594077 S    
O78   H83   1.008407 S    
C16   H28   1.111266 S    
P11   O31   1.792542 S    
C25   H45   1.103586 S    
P12   O32   1.787548 S    
C26   H50   1.098303 S    
C41   C45   1.385239 A    
O56   H80   1.011866 S    
C42   H62   1.082667 S    
P9    C78   1.880322 S    
C49   H65   1.077407 S    
C98   O84   1.376408 S    
C7    H11   1.109214 S    
C24   N8    1.462187 S    
C61   C65   1.431767 A    
C97   O82   1.379913 S    
C3    H7    1.108606 S    
C18   H30   1.102539 S    
N8    O72   1.301023 A    
C4    H8    1.106286 S    
C104  O95   1.215439 D    
C82   H70   1.082881 S    
O9    Ba1   2.848934 S    
C30   H54   1.111483 S    
C50   H66   1.078618 S    
P6    C69   1.917100 S    
C22   C26   1.529771 S    
C94   O75   1.218936 D    
C14   H26   1.109238 S    
C3    H59   1.106990 S    
C24   H40   1.106006 S    
C4    H60   1.101231 S    
