data_mof_unit_17501.cif
_audit_creation_date              2012-12-10T18:00:45-0500
_audit_creation_method            fapswitch 2.2
_symmetry_space_group_name_H-M    P1
_symmetry_Int_Tables_number       1
_space_group_crystal_system       triclinic
_cell_length_a                    15.881469
_cell_length_b                    10.838447
_cell_length_c                    9.520633
_cell_angle_alpha                 89.837974
_cell_angle_beta                  91.187875
_cell_angle_gamma                 90.122677
_cell_volume                      1638.42864486

loop_
_atom_site_label
_atom_site_type_symbol
_atom_type_description
_atom_site_fract_x
_atom_site_fract_y
_atom_site_fract_z
_atom_type_partial_charge
C1    C     C_R   0.499909 0.262063 0.500075 0.786071
C2    C     C_R   0.500030 0.737938 0.499924 0.786331
C3    C     C_R   0.499994 0.936495 0.372313 -0.183002
C4    C     C_R   0.499790 0.063507 0.627685 -0.183618
C5    C     C_R   0.499986 0.871792 0.499882 -0.017005
C6    C     C_R   0.499845 0.128210 0.500117 -0.017575
C7    C     C_R   0.445613 0.426362 0.072760 -0.024812
C8    C     C_R   0.554283 0.573775 0.927230 -0.018200
C9    C     C_R   0.445657 0.426350 0.923954 -0.022810
C10   C     C_R   0.554229 0.573802 0.076032 -0.011773
C11   C     C_R   0.339851 0.499942 0.498557 0.826779
C12   C     C_R   0.660189 0.499967 0.501562 0.822873
C13   C     C_3   0.972184 0.386780 0.553578 0.454952
C14   C     C_3   0.027334 0.605557 0.470816 0.405827
C15   C     C_3   0.024906 0.406746 0.419721 -0.475001
C16   C     C_3   0.974604 0.584387 0.604155 -0.420256
C17   C     C_1   0.250338 0.498626 0.495590 -0.194381
C18   C     C_1   0.749790 0.499387 0.506286 -0.166598
C19   C     C_3   0.030846 0.471541 0.640745 0.393666
C20   C     C_3   0.969583 0.520201 0.384066 0.391822
C21   C     C_3   0.083677 0.493835 0.507760 -0.098396
C22   C     C_3   0.916827 0.498099 0.515351 -0.030246
C23   C     C_1   0.174962 0.496769 0.497610 -0.004821
C24   C     C_1   0.825238 0.498767 0.511581 0.081801
C25   C     C_R   0.499902 0.064168 0.372425 -0.181956
C26   C     C_R   0.499884 0.935834 0.627573 -0.183519
Cu1   Cu    Cu3+1 0.500000 0.500020 0.640660 0.947027
Cu2   Cu    Cu3+1 0.500000 0.499980 0.359340 0.953116
H1    H     H_    0.045631 0.335095 0.344954 0.163612
H2    H     H_    0.953397 0.655945 0.678617 0.163936
H3    H     H_    0.499901 0.112431 0.272635 0.150759
H4    H     H_    0.499880 0.887571 0.727363 0.149938
H5    H     H_    0.500081 0.888753 0.272509 0.149719
H6    H     H_    0.499696 0.111250 0.727488 0.150483
H7    H     H_    0.402103 0.367280 0.127495 0.117003
H8    H     H_    0.597698 0.632985 0.872469 0.119410
H9    H     H_    0.402192 0.367183 0.866610 0.114881
H10   H     H_    0.597583 0.633127 0.133376 0.123342
N1    N     N_R   0.500020 0.500030 0.852070 -0.156588
N2    N     N_R   0.499980 0.499970 0.147930 -0.157981
O1    O     O_R   0.500000 0.319660 0.618740 -0.587861
O2    O     O_R   0.500000 0.680340 0.381260 -0.589449
O3    O     O_R   0.499990 0.319630 0.381170 -0.588404
O4    O     O_R   0.500010 0.680370 0.618830 -0.589686
O5    O     O_R   0.379080 0.500000 0.618760 -0.584365
O6    O     O_R   0.620920 0.500000 0.381240 -0.570251
O7    O     O_R   0.379080 0.499970 0.381190 -0.573034
O8    O     O_R   0.620920 0.500030 0.618810 -0.575277
O9    O     O_3   0.936358 0.275375 0.601007 -0.554395
C27   C     C_3   0.999363 0.184428 0.613793 0.100581
H11   H     H_    0.052085 0.215136 0.683971 0.160804
H12   H     H_    0.024276 0.160871 0.508992 0.131218
C28   C     C_3   0.961625 0.068636 0.677565 -0.791048
H13   H     H_    0.909881 0.033121 0.608495 0.244631
H14   H     H_    0.010926 0.996655 0.689484 0.196790
H15   H     H_    0.936272 0.089622 0.782674 0.257849
O10   O     O_3   0.061769 0.718133 0.424025 -0.571674
C29   C     C_3   0.997429 0.807046 0.410541 0.079458
H16   H     H_    0.973364 0.831773 0.515517 0.140639
H17   H     H_    0.944197 0.773688 0.342871 0.177531
C30   C     C_3   0.032998 0.922553 0.342771 -0.807442
H18   H     H_    0.056790 0.900347 0.236918 0.250451
H19   H     H_    0.982916 0.993471 0.331771 0.205400
H20   H     H_    0.085490 0.960095 0.408761 0.247826
O11   O     O_3   0.930570 0.549799 0.253877 -0.585832
C31   C     C_3   0.991108 0.551374 0.147818 0.089936
H21   H     H_    0.005596 0.455203 0.116205 0.177496
H22   H     H_    0.050385 0.598846 0.181810 0.165476
C32   C     C_3   0.955525 0.620649 0.020854 -0.739981
H23   H     H_    0.935862 0.714760 0.052185 0.228878
H24   H     H_    0.004406 0.629221 0.939805 0.231821
H25   H     H_    0.900313 0.570449 0.975667 0.259286
O12   O     O_3   0.053097 0.442275 0.781919 -0.578313
C33   C     C_3   0.141118 0.434298 0.800522 0.071158
H26   H     H_    0.171282 0.524742 0.777743 0.167666
H27   H     H_    0.167025 0.360565 0.732861 0.134586
C34   C     C_3   0.162718 0.400738 0.952188 -0.820949
H28   H     H_    0.127713 0.316601 0.983688 0.250462
H29   H     H_    0.231359 0.382819 0.963621 0.199346
H30   H     H_    0.146545 0.478206 0.022403 0.233862

loop_
_geom_bond_atom_site_label_1
_geom_bond_atom_site_label_2
_ccdc_geom_bond_type
Cu1   O8    S    
C25   H3    S    
C31   H22   S    
Cu2   O7    S    
C26   H4    S    
C30   H20   S    
O12   C33   S    
C11   O7    A    
C12   O8    A    
C28   H13   S    
Cu2   O6    S    
C17   C23   T    
C33   H27   S    
C18   C24   T    
C14   C21   S    
C19   C21   S    
C28   H15   S    
C6    C25   A    
Cu2   N2    S    
C16   H2    S    
C9    N1    A    
C10   N2    A    
C8    H8    S    
C30   H19   S    
Cu1   O4    S    
C1    O3    A    
Cu1   N1    S    
C33   C34   S    
C27   H12   S    
C7    N2    A    
C8    N1    A    
Cu1   O5    S    
C29   C30   S    
C28   H14   S    
C31   H21   S    
C32   H23   S    
C15   H1    S    
C34   H29   S    
C15   C20   S    
C4    H6    S    
C27   C28   S    
C32   H24   S    
C33   H26   S    
C13   C19   S    
C1    C6    S    
C14   C20   S    
C20   O11   S    
C3    C25   A    
C12   O6    A    
C2    O4    A    
C29   H16   S    
C34   H28   S    
C32   H25   S    
Cu1   O1    S    
C19   O12   S    
C9    H9    S    
C27   H11   S    
C13   O9    S    
C4    C6    A    
C20   C22   S    
O11   C31   S    
C13   C15   S    
C22   C24   S    
C11   O5    A    
C2    C5    S    
C34   H30   S    
C1    O1    A    
C7    C9    A    
C14   O10   S    
C11   C17   S    
C16   C22   S    
C7    H7    S    
C3    C5    A    
C4    C26   A    
Cu2   O3    S    
C10   H10   S    
C21   C23   S    
O10   C29   S    
C2    O2    A    
C16   C19   S    
Cu2   O2    S    
C13   C22   S    
C14   C16   S    
C30   H18   S    
C5    C26   A    
C31   C32   S    
C15   C21   S    
C8    C10   A    
O9    C27   S    
C12   C18   S    
Cu1   Cu2   S    
C3    H5    S    
C29   H17   S    
