data_mof_unit_40728.cif
_audit_creation_date              2012-12-10T16:44:42-0500
_audit_creation_method            fapswitch 2.2
_symmetry_space_group_name_H-M    P1
_symmetry_Int_Tables_number       1
_space_group_crystal_system       triclinic
_cell_length_a                    15.067559
_cell_length_b                    8.680862
_cell_length_c                    7.466232
_cell_angle_alpha                 103.013899
_cell_angle_beta                  95.124546
_cell_angle_gamma                 92.95757
_cell_volume                      945.101422823

loop_
_atom_site_label
_atom_site_type_symbol
_atom_type_description
_atom_site_fract_x
_atom_site_fract_y
_atom_site_fract_z
_atom_type_partial_charge
C1    C     C_R   0.497252 0.199673 0.453135 0.850564
C2    C     C_R   0.502748 0.800327 0.546864 0.850563
C3    C     C_R   0.026288 0.373819 0.169441 0.614382
C4    C     C_R   0.973712 0.626181 0.830559 0.614382
C5    C     C_2   0.495961 0.031655 0.426883 -0.300723
C6    C     C_2   0.504039 0.968345 0.573117 -0.300723
C7    C     C_R   0.328650 0.496944 0.500252 0.825764
C8    C     C_R   0.671350 0.503056 0.499748 0.825764
C9    C     C_R   0.824002 0.568721 0.665122 0.708938
C10   C     C_R   0.175998 0.431279 0.334878 0.708939
C11   C     C_R   0.768307 0.506830 0.500205 -0.239495
C12   C     C_R   0.231693 0.493170 0.499795 -0.239495
C13   C     C_R   0.805143 0.445878 0.335890 -0.135680
C14   C     C_R   0.194857 0.554122 0.664110 -0.135681
C15   C     C_R   0.897345 0.442336 0.334456 -0.033664
C16   C     C_R   0.102654 0.557664 0.665544 -0.033664
C17   C     C_R   0.953514 0.502163 0.500309 -0.130914
C18   C     C_R   0.046486 0.497837 0.499690 -0.130914
C19   C     C_R   0.916796 0.566372 0.666630 -0.160307
C20   C     C_R   0.083204 0.433628 0.333370 -0.160307
C21   C     C_R   0.934164 0.378591 0.170240 0.582626
C22   C     C_R   0.065836 0.621409 0.829760 0.582626
Cu1   Cu    Cu3+1 0.510010 0.517380 0.684380 1.177495
Cu2   Cu    Cu3+1 0.489990 0.482620 0.315620 1.177495
H1    H     H_    0.761649 0.398469 0.209555 0.239868
H2    H     H_    0.238351 0.601532 0.790445 0.239868
N1    N     N_2   0.474890 0.456420 0.038520 0.232548
N2    N     N_2   0.525110 0.543580 0.961480 0.232548
O1    O     O_R   0.506510 0.286130 0.619770 -0.556522
O2    O     O_R   0.493490 0.713870 0.380230 -0.556521
O3    O     O_R   0.489600 0.256770 0.308360 -0.570434
O4    O     O_R   0.510400 0.743230 0.691640 -0.570434
O5    O     O_R   0.378710 0.514640 0.655720 -0.563897
O6    O     O_R   0.621290 0.485360 0.344280 -0.563897
O7    O     O_R   0.361800 0.485290 0.344300 -0.511723
O8    O     O_R   0.638200 0.514710 0.655700 -0.511723
F1    F     F_    0.787805 0.632801 0.823154 -0.552531
F2    F     F_    0.212195 0.367199 0.176846 -0.552532
F3    F     F_    0.880915 0.320696 0.009798 -0.607624
F4    F     F_    0.119085 0.679304 0.990202 -0.607624
F5    F     F_    0.059152 0.310737 0.007426 -0.560364
F6    F     F_    0.940848 0.689263 0.992574 -0.560364
H3    H     H_    0.488371 0.959745 0.286108 0.207567
H4    H     H_    0.511629 0.040255 0.713892 0.207567
F7    F     F_    0.415503 0.352270 0.923800 -0.515876
F8    F     F_    0.584497 0.647730 0.076200 -0.515876

loop_
_geom_bond_atom_site_label_1
_geom_bond_atom_site_label_2
_ccdc_geom_bond_type
C1    O3    A    
C16   C22   A    
Cu1   Cu2   S    
C4    C22   A    
C21   F3    S    
Cu2   N1    S    
C2    O2    A    
C10   F2    S    
C22   F4    S    
Cu1   O4    S    
N1    F7    S    
C1    O1    A    
C17   C18   A    
C5    H3    S    
Cu2   O3    S    
C3    C20   A    
C16   C18   A    
C8    O6    A    
Cu1   N2    S    
C14   H2    S    
C11   C13   A    
N2    F8    S    
C2    C6    S    
C4    F6    S    
C8    C11   S    
C1    C5    S    
C10   C12   A    
C9    F1    S    
C17   C19   A    
C12   C14   A    
C18   C20   A    
C9    C11   A    
C13   C15   A    
C5    C6    D    
C14   C16   A    
C7    C12   S    
C3    C21   A    
Cu2   O7    S    
C7    O5    A    
Cu2   O2    S    
Cu1   O1    S    
C15   C21   A    
C2    O4    A    
Cu1   O8    S    
C8    O8    A    
N1    N2    D    
C15   C17   A    
C3    F5    S    
C6    H4    S    
Cu1   O5    S    
C4    C19   A    
C7    O7    A    
C9    C19   A    
Cu2   O6    S    
C10   C20   A    
C13   H1    S    
