data_mof_unit_20195.cif
_audit_creation_date              2012-12-11T16:24:03-0500
_audit_creation_method            fapswitch 2.2
_symmetry_space_group_name_H-M    P1
_symmetry_Int_Tables_number       1
_space_group_crystal_system       triclinic
_cell_length_a                    14.715345
_cell_length_b                    14.739716
_cell_length_c                    33.295498
_cell_angle_alpha                 95.875435
_cell_angle_beta                  96.038215
_cell_angle_gamma                 61.191233
_cell_volume                      6281.79030335

loop_
_atom_site_label
_atom_site_type_symbol
_atom_type_description
_atom_site_fract_x
_atom_site_fract_y
_atom_site_fract_z
_atom_type_partial_charge
C1    C     C_R   0.391539 0.698325 0.445651 0.531195
C2    C     C_R   0.342394 0.352080 0.307835 0.042292
C3    C     C_R   0.424503 0.270373 0.327810 -0.134207
C4    C     C_R   0.440018 0.277578 0.369578 -0.138592
C5    C     C_R   0.395977 0.299951 0.161305 -0.101416
C6    C     C_R   0.385393 0.283520 0.119174 0.005843
C7    C     C_R   0.203526 0.332110 0.125694 -0.115388
C8    C     C_R   0.213588 0.350341 0.167614 0.021469
C9    C     C_R   0.311927 0.331297 0.185209 0.023167
C10   C     C_1   0.327893 0.338943 0.228314 -0.036728
C11   C     C_1   0.335782 0.344826 0.264541 -0.037868
C12   C     C_R   0.406184 0.386462 0.433928 0.538898
C13   C     C_R   0.288653 0.295503 0.101513 0.011895
C14   C     C_R   0.735949 0.384209 0.405231 -0.001071
C15   C     C_R   0.711311 0.467475 0.381501 -0.160416
C16   C     C_R   0.719614 0.452884 0.340027 -0.177234
C17   C     C_R   0.751295 0.354691 0.320417 0.022402
C18   C     C_R   0.778674 0.268903 0.343768 0.270573
C19   C     C_R   0.776478 0.282236 0.386540 0.020032
C20   C     C_R   0.779841 0.324769 0.194954 0.326250
C21   C     C_R   0.757706 0.343660 0.275842 0.349348
C22   C     C_R   0.797218 0.399034 0.133835 -0.134135
C23   C     C_R   0.698720 0.410999 0.446665 0.537031
C24   C     C_R   0.843609 0.384054 0.097563 -0.147041
C25   C     C_R   0.897469 0.200415 0.095974 -0.137790
C26   C     C_R   0.852091 0.215195 0.132369 -0.127701
C27   C     C_R   0.805729 0.313809 0.152558 0.029121
C28   C     C_R   0.897815 0.283909 0.079251 0.015250
C29   C     C_R   0.379880 0.732304 0.404541 0.036065
C30   C     C_R   0.343020 0.682662 0.374100 -0.138967
C31   C     C_R   0.347936 0.692445 0.333638 -0.131039
C32   C     C_R   0.389229 0.753026 0.322228 0.017421
C33   C     C_R   0.422602 0.806757 0.352251 -0.103656
C34   C     C_R   0.392408 0.701914 0.561464 0.562099
C35   C     C_R   0.418077 0.797602 0.393636 0.002654
C36   C     C_R   0.378830 0.788496 0.198721 0.335238
C37   C     C_R   0.393438 0.761799 0.278908 0.345617
C38   C     C_R   0.275412 0.805769 0.131241 0.013770
C39   C     C_R   0.248390 0.848970 0.093113 -0.107535
C40   C     C_R   0.386968 0.894666 0.102795 -0.138754
C41   C     C_R   0.414836 0.852887 0.140435 -0.133164
C42   C     C_R   0.358218 0.811526 0.155651 0.035609
C43   C     C_R   0.300952 0.896930 0.079572 -0.000265
C44   C     C_R   0.371643 0.367281 0.584682 0.022632
C45   C     C_R   0.407097 0.388379 0.548821 0.543506
C46   C     C_R   0.281147 0.443745 0.602247 -0.138115
C47   C     C_R   0.262409 0.435521 0.641506 -0.124500
C48   C     C_R   0.333544 0.350158 0.663506 0.037863
C49   C     C_R   0.417769 0.268505 0.644248 -0.130307
C50   C     C_R   0.436783 0.277012 0.605156 -0.129110
C51   C     C_R   0.312061 0.352322 0.787706 0.371746
C52   C     C_R   0.324728 0.349699 0.707028 0.342335
C53   C     C_R   0.202013 0.374285 0.843530 0.250165
C54   C     C_R   0.195329 0.351153 0.882314 -0.138521
C55   C     C_R   0.381890 0.284039 0.896898 -0.004545
C56   C     C_R   0.702434 0.412824 0.562560 0.547320
C57   C     C_R   0.388516 0.305231 0.857449 -0.163446
C58   C     C_R   0.300215 0.346596 0.830442 0.027144
C59   C     C_R   0.284183 0.303283 0.908719 -0.004633
C60   C     C_R   0.756541 0.378851 0.602823 0.009662
C61   C     C_R   0.773088 0.449578 0.629947 -0.188299
C62   C     C_R   0.797666 0.431231 0.670828 -0.147390
C63   C     C_R   0.804880 0.342482 0.685551 0.011704
C64   C     C_R   0.796648 0.265931 0.658534 0.035553
C65   C     C_R   0.778921 0.281883 0.616524 0.278673
C66   C     C_R   0.883524 0.216595 0.822949 -0.110338
C67   C     C_R   0.373556 0.367337 0.391994 0.002752
C68   C     C_R   0.913485 0.203163 0.864064 -0.128098
C69   C     C_R   0.866913 0.385312 0.874530 -0.129492
C70   C     C_R   0.836469 0.398596 0.833495 -0.107454
C71   C     C_R   0.847790 0.313634 0.807476 0.045879
C72   C     C_1   0.830789 0.324214 0.764607 -0.028757
C73   C     C_1   0.818988 0.332552 0.728617 -0.023800
C74   C     C_R   0.908828 0.286699 0.890007 0.018762
C75   C     C_R   0.371887 0.757032 0.602546 0.039311
C76   C     C_R   0.288167 0.768042 0.624803 -0.023608
C77   C     C_R   0.289111 0.793097 0.666437 -0.117755
C78   C     C_R   0.286094 0.446144 0.372212 -0.113894
C79   C     C_R   0.366649 0.811754 0.686230 -0.019693
C80   C     C_R   0.441144 0.813742 0.664336 -0.106864
C81   C     C_R   0.445273 0.785762 0.622471 0.248973
C82   C     C_R   0.388790 0.910565 0.832177 -0.121259
C83   C     C_R   0.363608 0.938731 0.872160 -0.138026
C84   C     C_R   0.257565 0.850748 0.865168 0.007820
C85   C     C_R   0.282915 0.824642 0.824316 -0.087165
C86   C     C_R   0.346199 0.856346 0.807953 0.018929
C87   C     C_1   0.360672 0.840218 0.765419 -0.025047
C88   C     C_1   0.367152 0.828188 0.729395 -0.021593
C89   C     C_R   0.269416 0.440007 0.329788 0.028864
C90   C     C_R   0.294776 0.913579 0.888855 0.016703
C91   C     C_R   0.962491 0.264423 0.045256 0.541212
C92   C     C_R   0.273353 0.260675 0.059521 0.527430
C93   C     C_R   0.259501 0.959249 0.043728 0.542546
C94   C     C_R   0.962483 0.267847 0.930752 0.540167
C95   C     C_R   0.270741 0.264395 0.945414 0.540763
C96   C     C_R   0.256985 0.964319 0.929029 0.533339
Cr1   Cr    Cr6+3 0.576280 0.580550 0.506370 1.018937
Cr2   Cr    Cr6+3 0.346780 0.572400 0.496520 0.994227
Cr3   Cr    Cr6+3 0.576960 0.347070 0.497150 1.029253
Cr4   Cr    Cr6+3 0.087320 0.083240 0.984860 1.000526
Cr5   Cr    Cr6+3 0.087720 0.316210 0.996740 1.002360
Cr6   Cr    Cr6+3 0.317350 0.090340 0.995890 1.000870
H1    H     H_    0.841467 0.449997 0.084963 0.127947
H2    H     H_    0.698617 0.520053 0.323176 0.151513
H3    H     H_    0.761197 0.476173 0.148510 0.135637
H4    H     H_    0.937630 0.122436 0.082269 0.129991
H5    H     H_    0.858292 0.148288 0.145717 0.130240
H6    H     H_    0.314993 0.631120 0.381576 0.133640
H7    H     H_    0.183624 0.849819 0.074278 0.132881
H8    H     H_    0.470621 0.286695 0.175698 0.121772
H9    H     H_    0.320098 0.651314 0.311263 0.137601
H10   H     H_    0.453656 0.854684 0.343513 0.128777
H11   H     H_    0.429497 0.930422 0.092952 0.136432
H12   H     H_    0.478463 0.856986 0.158621 0.128314
H13   H     H_    0.228178 0.512753 0.586665 0.110859
H14   H     H_    0.506328 0.215806 0.592113 0.144781
H15   H     H_    0.120864 0.363114 0.890529 0.141408
H16   H     H_    0.195368 0.498665 0.655277 0.125697
H17   H     H_    0.472243 0.200344 0.660070 0.127989
H18   H     H_    0.479027 0.202413 0.310854 0.107865
H19   H     H_    0.463311 0.287164 0.847264 0.127177
H20   H     H_    0.946040 0.126162 0.874965 0.124823
H21   H     H_    0.892382 0.150403 0.802967 0.106869
H22   H     H_    0.762643 0.521544 0.619913 0.121742
H23   H     H_    0.808102 0.474177 0.821809 0.104186
H24   H     H_    0.862351 0.451148 0.893698 0.118354
H25   H     H_    0.507753 0.215333 0.383977 0.124617
H26   H     H_    0.806228 0.489049 0.691357 0.118657
H27   H     H_    0.394154 0.985671 0.889369 0.141421
H28   H     H_    0.437973 0.935149 0.819689 0.120651
H29   H     H_    0.496687 0.835527 0.679948 0.111562
H30   H     H_    0.251520 0.782209 0.804506 0.117046
H31   H     H_    0.229028 0.797204 0.684014 0.115543
H32   H     H_    0.234793 0.514212 0.389929 0.126781
H33   H     H_    0.130206 0.341275 0.111621 0.143074
H34   H     H_    0.680198 0.546160 0.394704 0.150833
N1    N     N_R   0.730209 0.419785 0.214364 -0.233172
N2    N     N_R   0.241338 0.425717 0.725661 -0.247348
N3    N     N_R   0.402675 0.276289 0.729665 -0.243751
N4    N     N_R   0.396345 0.277350 0.769255 -0.244224
N5    N     N_R   0.718995 0.428969 0.253949 -0.237491
N6    N     N_R   0.806052 0.248830 0.256219 -0.171814
N7    N     N_R   0.816865 0.239525 0.216646 -0.245151
N8    N     N_R   0.376301 0.705670 0.211706 -0.243545
N9    N     N_R   0.383172 0.692767 0.251038 -0.230519
N10   N     N_R   0.400261 0.842409 0.265905 -0.234363
N11   N     N_R   0.393052 0.855464 0.226518 -0.226009
N12   N     N_R   0.234930 0.426690 0.765226 -0.187603
O1    O     O_R   0.679450 0.499830 0.463150 -0.519567
O2    O     O_R   0.356040 0.477400 0.534170 -0.508564
O3    O     O_R   0.495910 0.323070 0.537100 -0.501991
O4    O     O_R   0.663920 0.359620 0.542290 -0.445221
O5    O     O_3   0.500010 0.500010 0.500010 -0.242057
O6    O     O_R   0.170070 0.978950 0.027680 -0.524206
O7    O     O_R   0.001760 0.175230 0.026640 -0.500612
O8    O     O_R   0.984760 0.333570 0.037150 -0.522644
O9    O     O_R   0.183410 0.309240 0.041890 -0.504174
O10   O     O_R   0.340240 0.172500 0.045430 -0.521043
O11   O     O_R   0.309670 0.000990 0.032050 -0.497922
O12   O     O_R   0.480650 0.664000 0.464630 -0.502329
O13   O     O_R   0.168330 0.982130 0.939200 -0.527084
O14   O     O_R   0.000140 0.178170 0.944610 -0.501150
O15   O     O_R   0.983010 0.336750 0.948660 -0.524091
O16   O     O_R   0.181800 0.312190 0.959860 -0.507418
O17   O     O_R   0.338500 0.175680 0.956950 -0.522755
O18   O     O_R   0.308050 0.003930 0.950020 -0.502868
O19   O     O_3   0.164130 0.163270 0.992500 -0.228876
O20   O     O_R   0.323930 0.675950 0.455370 -0.522351
O21   O     O_R   0.354700 0.475360 0.451930 -0.507153
O22   O     O_R   0.494470 0.320860 0.448390 -0.522354
O23   O     O_R   0.662580 0.357570 0.460050 -0.509221
O24   O     O_R   0.680900 0.502040 0.551870 -0.540703
O25   O     O_R   0.481990 0.666040 0.546870 -0.454949
O26   O     O_R   0.325370 0.678160 0.544080 -0.537264
C97   C     C_3   0.478000 0.253870 0.094630 -0.280485
C98   C     C_3   0.508248 0.340169 0.097433 -0.443831
H35   H     H_    0.441107 0.413359 0.087146 0.156686
H36   H     H_    0.534574 0.353480 0.128911 0.164570
H37   H     H_    0.573101 0.317777 0.077732 0.142463
H38   H     H_    0.545072 0.181920 0.105924 0.144041
H39   H     H_    0.462455 0.238169 0.062118 0.165540
C99   C     C_3   0.822623 0.187015 0.411381 -0.262936
C100  C     C_3   0.921173 0.174511 0.435808 -0.445790
H40   H     H_    0.978223 0.170676 0.415433 0.169696
H41   H     H_    0.903438 0.240262 0.458628 0.145222
H42   H     H_    0.956626 0.101134 0.451526 0.134350
H43   H     H_    0.765998 0.189680 0.431478 0.154011
H44   H     H_    0.844619 0.114683 0.391962 0.178923
O27   O     O_3   0.812184 0.170888 0.325024 -0.559812
C101  C     C_3   0.725555 0.153573 0.315889 0.007849
H45   H     H_    0.665686 0.213168 0.295839 0.144478
H46   H     H_    0.689777 0.155625 0.344086 0.113777
C102  C     C_3   0.762127 0.046680 0.293960 -0.247910
H47   H     H_    0.798663 0.043590 0.265919 0.195714
H48   H     H_    0.821376 0.986490 0.313779 0.165367
C103  C     C_3   0.672269 0.022881 0.282748 -0.487465
H49   H     H_    0.635772 0.023521 0.310406 0.143710
H50   H     H_    0.701834 0.944797 0.266933 0.154576
H51   H     H_    0.613051 0.080914 0.262218 0.152299
C104  C     C_3   0.453600 0.858467 0.424695 -0.280242
C105  C     C_3   0.381985 0.975110 0.422604 -0.441396
H52   H     H_    0.383975 0.001720 0.392851 0.155444
H53   H     H_    0.300898 0.994437 0.427458 0.159297
H54   H     H_    0.407909 0.017320 0.446588 0.143273
H55   H     H_    0.454749 0.838586 0.456001 0.166403
H56   H     H_    0.534123 0.839942 0.419226 0.138614
C106  C     C_3   0.213916 0.759590 0.147165 -0.263602
C107  C     C_3   0.120664 0.765513 0.120123 -0.461723
H57   H     H_    0.062916 0.847554 0.115048 0.149301
H58   H     H_    0.146269 0.721215 0.090758 0.146901
H59   H     H_    0.082246 0.730522 0.135253 0.144801
H60   H     H_    0.267206 0.676327 0.152047 0.173819
H61   H     H_    0.184200 0.800247 0.176714 0.170352
O28   O     O_3   0.116444 0.406187 0.815991 -0.542443
C108  C     C_3   0.037837 0.505405 0.828461 0.017572
H62   H     H_    0.070284 0.559091 0.838854 0.122496
H63   H     H_    0.996596 0.498960 0.853281 0.123581
C109  C     C_3   0.959701 0.551233 0.792541 -0.243325
H64   H     H_    0.999460 0.560632 0.767919 0.189393
H65   H     H_    0.928956 0.497283 0.780809 0.176613
C110  C     C_3   0.869321 0.656423 0.804452 -0.499869
H66   H     H_    0.827227 0.648547 0.828554 0.142454
H67   H     H_    0.814252 0.687366 0.777700 0.144894
H68   H     H_    0.898203 0.712217 0.815490 0.146805
C111  C     C_3   0.479662 0.240475 0.924892 -0.261815
C112  C     C_3   0.471860 0.315642 0.961214 -0.431376
H69   H     H_    0.455834 0.391501 0.950798 0.151530
H70   H     H_    0.409412 0.327862 0.980517 0.154112
H71   H     H_    0.546527 0.283310 0.979888 0.132548
H72   H     H_    0.496391 0.164513 0.935245 0.169507
H73   H     H_    0.548273 0.225363 0.908613 0.131064
C113  C     C_3   0.800284 0.171099 0.674408 -0.268320
C114  C     C_3   0.695569 0.197560 0.689684 -0.418137
H74   H     H_    0.675526 0.256467 0.715471 0.167148
H75   H     H_    0.633769 0.228105 0.664936 0.170668
H76   H     H_    0.698875 0.126646 0.699967 0.134674
H77   H     H_    0.819561 0.107205 0.650678 0.161720
H78   H     H_    0.862209 0.139959 0.699123 0.132225
O29   O     O_3   0.777150 0.205462 0.589043 -0.561092
C115  C     C_3   0.880431 0.132358 0.579995 -0.009092
H79   H     H_    0.880548 0.058814 0.568536 0.144749
H80   H     H_    0.936095 0.113431 0.607222 0.111412
C116  C     C_3   0.918689 0.169080 0.547126 -0.262599
H81   H     H_    0.864445 0.184439 0.519766 0.177315
H82   H     H_    0.920553 0.241961 0.557961 0.152448
C117  C     C_3   0.028024 0.088180 0.536204 -0.492785
H83   H     H_    0.082599 0.069515 0.563544 0.156583
H84   H     H_    0.055962 0.119087 0.514084 0.150005
H85   H     H_    0.027705 0.016422 0.522481 0.142525
O30   O     O_3   0.513805 0.795409 0.599731 -0.562119
C118  C     C_3   0.618168 0.739626 0.615309 0.018229
H86   H     H_    0.663777 0.685855 0.590469 0.170621
H87   H     H_    0.629591 0.690882 0.640854 0.108794
C119  C     C_3   0.661886 0.814470 0.628010 -0.271669
H88   H     H_    0.657731 0.856446 0.601401 0.172994
H89   H     H_    0.614738 0.872660 0.651517 0.162846
C120  C     C_3   0.774666 0.756732 0.644732 -0.492483
H90   H     H_    0.780301 0.716076 0.671949 0.144260
H91   H     H_    0.804442 0.812842 0.653396 0.146884
H92   H     H_    0.823792 0.699158 0.621478 0.145427
C121  C     C_3   0.195921 0.754341 0.606602 -0.248766
C122  C     C_3   0.123361 0.842714 0.579772 -0.424581
H93   H     H_    0.089725 0.917182 0.598330 0.134266
H94   H     H_    0.164951 0.849398 0.555270 0.176184
H95   H     H_    0.058868 0.828778 0.565887 0.123265
H96   H     H_    0.220796 0.677603 0.590427 0.175758
H97   H     H_    0.148655 0.754750 0.630653 0.116853
C123  C     C_3   0.189876 0.815087 0.883161 -0.264894
C124  C     C_3   0.184965 0.721308 0.860738 -0.461082
H98   H     H_    0.139059 0.742994 0.831350 0.144164
H99   H     H_    0.264445 0.656951 0.855773 0.162142
H100  H     H_    0.145678 0.693446 0.879152 0.131381
H101  H     H_    0.221275 0.792516 0.914521 0.157753
H102  H     H_    0.109577 0.880667 0.884553 0.162152
C125  C     C_3   0.122964 0.386515 0.194523 -0.274591
C126  C     C_3   0.020076 0.400939 0.173192 -0.442323
H103  H     H_    0.991714 0.460743 0.150572 0.146270
H104  H     H_    0.029334 0.326207 0.158356 0.169434
H105  H     H_    0.960722 0.427311 0.195833 0.159213
H106  H     H_    0.145307 0.329144 0.217791 0.161862
H107  H     H_    0.109069 0.461700 0.210456 0.141862
C127  C     C_3   0.177987 0.525700 0.307000 -0.276715
C128  C     C_3   0.101587 0.617184 0.333049 -0.453304
H108  H     H_    0.067465 0.590112 0.354227 0.152438
H109  H     H_    0.140724 0.658811 0.350145 0.147031
H110  H     H_    0.037370 0.672670 0.313196 0.143949
H111  H     H_    0.208582 0.556587 0.285852 0.150445
H112  H     H_    0.133550 0.491118 0.288609 0.146975

loop_
_geom_bond_atom_site_label_1
_geom_bond_atom_site_label_2
_ccdc_geom_bond_type
C82   H28   S    
C8    C9    A    
C66   C68   A    
C87   C88   T    
C49   C50   A    
C18   O27   S    
C127  H112  S    
C53   O28   S    
Cr1   O1    S    
C55   C59   A    
C91   O8    A    
C128  H109  S    
C41   C42   A    
C74   C94   S    
C36   C42   S    
O29   C115  S    
C81   O30   S    
C76   C121  S    
Cr6   O10   S    
C122  H95   S    
C57   C58   A    
C7    C8    A    
C44   C50   A    
Cr3   O22   S    
C49   H17   S    
C85   C86   A    
C25   C28   A    
C91   O7    A    
C127  C128  S    
C111  H73   S    
Cr1   O24   S    
C59   C95   S    
C46   H13   S    
C77   H31   S    
Cr4   O19   S    
Cr4   O6    S    
C93   O6    A    
C21   N6    A    
C121  H97   S    
C110  H68   S    
C108  H63   S    
C85   H30   S    
C5    C6    A    
Cr2   O26   S    
C118  H87   S    
Cr3   O23   S    
C6    C97   S    
C68   C74   A    
C15   C16   A    
C104  H55   S    
C106  H61   S    
C52   N3    A    
C96   O13   A    
C84   C123  S    
C92   O10   A    
C18   C19   A    
C105  H52   S    
N6    N7    A    
Cr5   O19   S    
C99   C100  S    
C115  H79   S    
C119  H89   S    
C101  C102  S    
C43   C93   S    
C46   C47   A    
Cr2   O21   S    
C16   H2    S    
C40   C43   A    
C97   C98   S    
C41   H12   S    
N2    N12   A    
C104  C105  S    
C116  H82   S    
C123  H101  S    
C35   C104  S    
C52   N2    A    
C70   C71   A    
Cr1   O5    S    
C37   N10   A    
C56   O4    A    
C114  H74   S    
C94   O14   A    
C50   H14   S    
C34   C75   S    
C97   H39   S    
C51   N4    A    
C116  C117  S    
C98   H36   S    
C23   O1    A    
Cr2   O5    S    
Cr5   O9    S    
C127  H111  S    
Cr6   O18   S    
C80   H29   S    
C124  H98   S    
C56   O24   A    
C128  H110  S    
C113  H78   S    
Cr6   O19   S    
C105  H53   S    
C20   N7    A    
C69   C70   A    
C67   C78   A    
C84   C90   A    
C103  H51   S    
C2    C11   S    
C95   O17   A    
C19   C99   S    
C1    C29   S    
C79   C88   S    
C14   C23   S    
C44   C46   A    
C25   H4    S    
C17   C18   A    
C39   H7    S    
C54   C59   A    
C1    O12   A    
C78   C89   A    
C39   C43   A    
C12   C67   S    
C117  H84   S    
Cr1   O25   S    
C38   C106  S    
C12   O21   A    
C106  C107  S    
Cr1   O12   S    
C118  H86   S    
C84   C85   A    
C72   C73   T    
C103  H50   S    
C10   C11   T    
C100  H42   S    
C68   H20   S    
C64   C113  S    
O28   C108  S    
C107  H57   S    
C118  C119  S    
C122  H94   S    
C15   H34   S    
C63   C73   S    
Cr5   O8    S    
C102  H48   S    
C25   C26   A    
C53   C54   A    
Cr3   O3    S    
C82   C83   A    
C40   H11   S    
C17   C21   S    
Cr4   O14   S    
C63   C64   A    
C24   H1    S    
C60   C61   A    
C47   H16   S    
C20   N1    A    
Cr6   O11   S    
C2    C89   A    
C108  H62   S    
C100  H40   S    
C7    H33   S    
C29   C30   A    
C34   O26   A    
C110  H66   S    
C78   H32   S    
C36   N11   A    
C109  H65   S    
C47   C48   A    
C126  H105  S    
C7    C13   A    
C30   C31   A    
C53   C58   A    
C102  C103  S    
C61   H22   S    
C62   C63   A    
C115  H80   S    
C111  C112  S    
C89   C127  S    
C77   C79   A    
C23   O23   A    
C69   C74   A    
C51   C58   S    
C99   H44   S    
C32   C37   S    
C76   C77   A    
C114  H75   S    
Cr4   O13   S    
C45   O2    A    
C66   C71   A    
O27   C101  S    
C70   H23   S    
C107  H58   S    
C48   C49   A    
C125  C126  S    
C126  H104  S    
C69   H24   S    
C112  H69   S    
Cr6   O17   S    
C112  H70   S    
C22   C27   A    
C55   C57   A    
C13   C92   S    
C26   C27   A    
C113  H77   S    
C105  H54   S    
C22   C24   A    
C80   C81   A    
C108  C109  S    
C101  H45   S    
C65   O29   S    
C3    C4    A    
C22   H3    S    
C120  H90   S    
C44   C45   S    
Cr4   O7    S    
C109  C110  S    
N10   N11   A    
Cr2   O2    S    
C33   H10   S    
C106  H60   S    
C83   C90   A    
N1    N5    A    
C117  H83   S    
C98   H35   S    
C75   C76   A    
C101  H46   S    
C4    H25   S    
C30   H6    S    
C86   C87   S    
C14   C19   A    
C31   C32   A    
C75   C81   A    
C24   C28   A    
C5    C9    A    
C103  H49   S    
C26   H5    S    
C60   C65   A    
C4    C67   A    
C12   O22   A    
N3    N4    A    
C90   C96   S    
C122  H93   S    
C20   C27   S    
Cr5   O16   S    
C112  H71   S    
Cr3   O4    S    
C29   C35   A    
C111  H72   S    
C1    O20   A    
N8    N9    A    
C120  H92   S    
C37   N9    A    
C64   C65   A    
C98   H37   S    
C119  H88   S    
C124  H99   S    
C125  H106  S    
O30   C118  S    
C21   N5    A    
C121  H96   S    
C110  H67   S    
C34   O25   A    
C82   C86   A    
C95   O16   A    
C32   C33   A    
C6    C13   A    
C62   H26   S    
C55   C111  S    
C109  H64   S    
C38   C39   A    
C51   N12   A    
C107  H59   S    
C83   H27   S    
Cr3   O5    S    
Cr5   O15   S    
C113  C114  S    
C33   C35   A    
C2    C3    A    
C28   C91   S    
C96   O18   A    
C99   H43   S    
C115  C116  S    
C36   N8    A    
C61   C62   A    
C125  H107  S    
C114  H76   S    
C104  H56   S    
C8    C125  S    
C3    H18   S    
C97   H38   S    
C57   H19   S    
C79   C80   A    
C66   H21   S    
C38   C42   A    
C56   C60   S    
C119  C120  S    
C48   C52   S    
C71   C72   S    
C126  H103  S    
C100  H41   S    
C93   O11   A    
C102  H47   S    
C5    H8    S    
C124  H100  S    
C123  H102  S    
C128  H108  S    
C121  C122  S    
C31   H9    S    
C14   C15   A    
C92   O9    A    
C40   C41   A    
C120  H91   S    
C54   H15   S    
C45   O3    A    
C94   O15   A    
Cr2   O20   S    
C116  H81   S    
C16   C17   A    
C9    C10   S    
C123  C124  S    
C117  H85   S    
