data_mof_unit_51571.cif
_audit_creation_date              2012-12-10T18:11:07-0500
_audit_creation_method            fapswitch 2.2
_symmetry_space_group_name_H-M    P1
_symmetry_Int_Tables_number       1
_space_group_crystal_system       triclinic
_cell_length_a                    10.809883
_cell_length_b                    9.416543
_cell_length_c                    10.628662
_cell_angle_alpha                 89.788041
_cell_angle_beta                  90.463607
_cell_angle_gamma                 90.085361
_cell_volume                      1081.86589924

loop_
_atom_site_label
_atom_site_type_symbol
_atom_type_description
_atom_site_fract_x
_atom_site_fract_y
_atom_site_fract_z
_atom_type_partial_charge
C1    C     C_R   0.260170 0.500164 0.502142 0.781984
C2    C     C_3   0.497726 0.501417 0.122688 -0.087919
C3    C     C_3   0.075966 0.653903 0.529096 -0.418500
C4    C     C_3   0.075998 0.406890 0.613821 -0.429578
C5    C     C_3   0.932814 0.657510 0.530844 -0.001805
C6    C     C_3   0.933016 0.390079 0.604431 -0.004254
C7    C     C_3   0.071559 0.447890 0.376604 -0.391943
C8    C     C_3   0.123211 0.501433 0.504896 0.090860
C9    C     C_3   0.879690 0.501691 0.504175 -0.038325
C10   C     C_3   0.928858 0.456677 0.372595 -0.374667
C11   C     C_3   0.573730 0.083620 0.609277 -0.181730
C12   C     C_3   0.580308 0.916374 0.604390 -0.171567
C13   C     C_3   0.373451 0.083570 0.515485 -0.189766
C14   C     C_3   0.374143 0.916193 0.520998 -0.187717
C15   C     C_3   0.552565 0.083710 0.385072 -0.166341
C16   C     C_3   0.545544 0.916768 0.382232 -0.191401
C17   C     C_R   0.498896 0.500370 0.259382 0.846951
C18   C     C_R   0.740415 0.500314 0.500929 0.782096
C19   C     C_R   0.500155 0.499693 0.740776 0.829826
C20   C     C_3   0.491123 0.635363 0.039967 -0.225373
C21   C     C_3   0.400517 0.425731 0.040972 -0.252636
C22   C     C_3   0.393855 0.559625 0.956064 -0.140727
C23   C     C_3   0.499776 0.499042 0.877581 -0.063751
C24   C     C_3   0.597103 0.575030 0.959060 -0.205252
C25   C     C_3   0.506310 0.364742 0.960012 -0.199896
C26   C     C_3   0.601829 0.441872 0.043141 0.672069
Cu1   Cu    Cu3+1 0.499860 0.642410 0.500060 0.913215
Cu2   Cu    Cu3+1 0.499860 0.357590 0.500060 0.919529
H1    H     H_    0.308210 0.607999 0.916752 0.137271
H2    H     H_    0.899114 0.533096 0.298382 0.199119
H3    H     H_    0.889741 0.352614 0.342997 0.211162
H4    H     H_    0.532225 0.115407 0.700320 0.139926
H5    H     H_    0.552419 0.873277 0.697318 0.154857
H6    H     H_    0.667961 0.129091 0.609519 0.178911
H7    H     H_    0.677724 0.883526 0.589861 0.174200
H8    H     H_    0.329348 0.125599 0.601911 0.144503
H9    H     H_    0.336591 0.879594 0.612774 0.141419
H10   H     H_    0.500870 0.124796 0.301940 0.153808
H11   H     H_    0.483014 0.884468 0.303728 0.138089
H12   H     H_    0.650269 0.118787 0.374428 0.181776
H13   H     H_    0.637154 0.871904 0.360111 0.185124
H14   H     H_    0.314796 0.118673 0.434679 0.144957
H15   H     H_    0.310358 0.875858 0.446712 0.146580
H16   H     H_    0.484495 0.745958 0.075098 0.152973
H17   H     H_    0.320075 0.365403 0.077585 0.151122
H18   H     H_    0.677670 0.635719 0.923371 0.177732
H19   H     H_    0.513913 0.254053 0.925342 0.142324
H20   H     H_    0.113719 0.725633 0.454827 0.169536
H21   H     H_    0.123449 0.301821 0.612573 0.165855
H22   H     H_    0.116215 0.693829 0.619325 0.155966
H23   H     H_    0.104258 0.456013 0.704979 0.152781
H24   H     H_    0.110259 0.512632 0.298370 0.163414
H25   H     H_    0.100653 0.335954 0.361427 0.181330
N1    N     N_3   0.500250 0.143650 0.502780 -0.134932
N2    N     N_3   0.500250 0.856350 0.502780 -0.132206
O1    O     O_R   0.317570 0.620260 0.500070 -0.604750
O2    O     O_R   0.317570 0.379740 0.500070 -0.603524
O3    O     O_R   0.499850 0.620240 0.316900 -0.598562
O4    O     O_R   0.499850 0.379760 0.316900 -0.583188
O5    O     O_R   0.682190 0.620260 0.500030 -0.587471
O6    O     O_R   0.682190 0.379740 0.500030 -0.581124
O7    O     O_R   0.499910 0.620280 0.683200 -0.592600
O8    O     O_R   0.499910 0.379720 0.683200 -0.595539
F1    F     F_    0.708518 0.381497 0.091926 -0.677165
C27   C     C_1   0.891032 0.713615 0.653166 0.217247
N3    N     N_1   0.858684 0.758017 0.748819 -0.301443
C28   C     C_1   0.877870 0.407383 0.730029 0.190896
N4    N     N_1   0.835013 0.419971 0.828727 -0.236679
C29   C     C_1   0.893736 0.762065 0.433695 0.242431
N5    N     N_1   0.866374 0.843885 0.356961 -0.302221
C30   C     C_1   0.907576 0.241231 0.566963 0.235673
N6    N     N_1   0.890451 0.124743 0.537046 -0.312964

loop_
_geom_bond_atom_site_label_1
_geom_bond_atom_site_label_2
_ccdc_geom_bond_type
C7    C10   S    
C22   H1    S    
C1    C8    S    
C4    C8    S    
C6    C9    S    
C7    C8    S    
Cu2   O2    S    
C1    O1    A    
C24   C26   S    
C7    H24   S    
Cu1   O5    S    
Cu1   N2    S    
C19   O7    A    
C15   C16   S    
C3    H20   S    
C26   F1    S    
C5    C29   S    
C10   H3    S    
C20   C24   S    
C19   O8    A    
C23   C24   S    
C9    C10   S    
C25   H19   S    
C17   O3    A    
Cu2   O6    S    
C14   N2    S    
C13   C14   S    
C2    C17   S    
C13   H14   S    
C20   H16   S    
C3    H22   S    
C21   H17   S    
C6    C30   S    
C4    H23   S    
C2    C20   S    
C28   N4    T    
C15   N1    S    
C13   H8    S    
C4    C6    S    
C3    C8    S    
Cu2   N1    S    
Cu1   O1    S    
C25   C26   S    
C19   C23   S    
C15   H10   S    
C5    C9    S    
Cu1   O7    S    
C1    O2    A    
C10   H2    S    
C2    C21   S    
C2    C26   S    
C12   H7    S    
C11   N1    S    
C17   O4    A    
C5    C27   S    
C6    C28   S    
C20   C22   S    
C11   H4    S    
C7    H25   S    
C13   N1    S    
Cu2   O4    S    
C18   O5    A    
C21   C25   S    
C11   H6    S    
C3    C5    S    
Cu1   O3    S    
C11   C12   S    
C18   O6    A    
C4    H21   S    
C24   H18   S    
C16   N2    S    
C30   N6    T    
C14   H9    S    
C23   C25   S    
C29   N5    T    
C15   H12   S    
C12   N2    S    
C16   H11   S    
Cu2   O8    S    
C9    C18   S    
C27   N3    T    
Cu1   Cu2   S    
C22   C23   S    
C12   H5    S    
C21   C22   S    
C16   H13   S    
C14   H15   S    
