data_mof_unit_61724.cif
_audit_creation_date              2013-03-05T16:11:56-0500
_audit_creation_method            fapswitch 2.2
_symmetry_space_group_name_H-M    P1
_symmetry_Int_Tables_number       1
_space_group_crystal_system       triclinic
_cell_length_a                    8.679803
_cell_length_b                    16.508162
_cell_length_c                    22.963313
_cell_angle_alpha                 108.528586
_cell_angle_beta                  90.343056
_cell_angle_gamma                 84.147185
_cell_volume                      3102.32231177

loop_
_atom_site_label
_atom_site_type_symbol
_atom_site_description
_atom_site_fract_x
_atom_site_fract_y
_atom_site_fract_z
_atom_type_partial_charge
P1    P     P_3+3 0.594550 0.425840 0.359090 0.587759
O1    O     O_2   0.414630 0.451750 0.353890 -0.361654
O2    O     O_3   0.654720 0.452660 0.425060 -0.243174
O3    O     O_3   0.116150 0.611500 0.411510 -0.247828
O4    O     O_2   0.243626 0.541462 0.300897 -0.339803
O5    O     O_3   0.626491 0.314919 0.318367 -0.597430
O6    O     O_3   0.130037 0.701132 0.324438 -0.581681
C1    C     C_3   0.955520 0.823534 0.320433 -0.610134
H1    H     H_    0.891971 0.784266 0.281288 0.170307
P2    P     P_3+3 0.065650 0.701630 0.573510 0.503350
P3    P     P_3+3 0.507495 0.768148 0.462947 0.588933
O7    O     O_2   0.236590 0.714510 0.558180 -0.323017
O8    O     O_3   0.511480 0.656670 0.446630 -0.313106
O9    O     O_2   0.376385 0.804060 0.511768 -0.285378
O10   O     O_3   0.040070 0.731871 0.654998 -0.638618
O11   O     O_3   0.424280 0.791373 0.398993 -0.454293
C2    C     C_3   0.522333 0.772529 0.346029 0.564142
C3    C     C_3   0.555307 0.858311 0.339207 -0.945481
H2    H     H_    0.445225 0.898033 0.337358 0.248027
H3    H     H_    0.617906 0.893861 0.379599 0.276752
C4    C     C_3   0.615125 0.750174 0.657103 0.632429
C5    C     C_3   0.696216 0.817338 0.707068 0.079607
H4    H     H_    0.811605 0.791302 0.714825 0.107321
H5    H     H_    0.628604 0.835360 0.751083 0.155695
Ba1   Ba    Ba6+2 0.335320 0.541410 0.478120 1.741821
C6    C     C_3   0.555897 0.263504 0.345542 0.622811
H6    H     H_    0.430377 0.284890 0.353742 0.018679
C7    C     C_3   0.582577 0.168448 0.303711 0.569310
C8    C     C_3   0.119985 0.680916 0.687743 0.287148
C9    C     C_3   0.043591 0.703709 0.753055 0.134761
H7    H     H_    0.031233 0.774983 0.773628 0.146555
P4    P     P_3+3 0.595130 0.574230 0.640920 0.483525
O12   O     O_2   0.775060 0.548280 0.646150 -0.414867
O13   O     O_3   0.534950 0.547420 0.574950 -0.320164
O14   O     O_3   0.073530 0.388570 0.588510 -0.299771
O15   O     O_3   0.573835 0.687230 0.682967 -0.643982
P5    P     P_3+3 0.686985 0.232853 0.542502 0.612095
O16   O     O_3   0.168220 0.394330 0.455930 -0.290248
O17   O     O_3   0.678190 0.343400 0.553390 -0.312523
O18   O     O_2   0.824338 0.194870 0.496391 -0.231179
O19   O     O_3   0.757455 0.211378 0.609132 -0.471564
Ba2   Ba    Ba6+2 0.854470 0.458670 0.521900 1.725061
P6    P     P_3+3 0.100453 0.601858 0.333555 0.563558
C10   C     C_3   0.020416 0.767689 0.359413 0.846096
H8    H     H_    0.923781 0.743401 0.377216 -0.023309
H9    H     H_    0.873009 0.876224 0.349266 0.255525
O20   O     O_3   0.021450 0.605740 0.544090 -0.330377
C11   C     C_3   0.073094 0.294985 0.316402 0.213355
H10   H     H_    0.949901 0.306779 0.332574 0.131825
H11   H     H_    0.130807 0.354563 0.327848 0.128625
C12   C     C_3   0.079427 0.255595 0.245468 0.606885
P7    P     P_3+3 0.132119 0.283691 0.425847 0.522983
O21   O     O_2   0.953100 0.285520 0.441860 -0.267114
O22   O     O_3   0.154182 0.241380 0.344988 -0.592663
H12   H     H_    0.624227 0.848458 0.296498 0.238360
C13   C     C_3   0.672239 0.259504 0.663854 0.312764
C14   C     C_3   0.732184 0.223719 0.715485 0.108698
H13   H     H_    0.853582 0.235347 0.723746 0.185239
H14   H     H_    0.723140 0.153494 0.701317 0.196275
P8    P     P_3+3 0.098114 0.395126 0.666162 0.543332
C15   C     C_3   0.135934 0.229321 0.654544 0.854013
H15   H     H_    0.246234 0.246176 0.643919 -0.097766
O23   O     O_2   0.977978 0.469011 0.702714 -0.368526
O24   O     O_3   0.028105 0.303321 0.676156 -0.575732
C16   C     C_3   0.156421 0.181752 0.703416 0.025860
H16   H     H_    0.113013 0.226814 0.748661 0.196171
H17   H     H_    0.257542 0.489786 0.086781 0.204582
C17   C     C_R   0.844233 0.507522 0.330731 0.172115
C18   C     C_R   0.671357 0.534580 0.934451 -0.071090
C19   C     C_R   0.631423 0.523829 0.872425 0.583404
O25   O     O_2   0.733498 0.519832 0.834963 -0.563956
N1    N     N_R   0.478680 0.516282 0.854100 -0.155447
C20   C     C_R   0.366037 0.522781 0.898805 0.677841
O26   O     O_2   0.229313 0.536839 0.888628 -0.503305
C21   C     C_R   0.407522 0.515450 0.956917 -0.108011
C22   C     C_R   0.559686 0.526757 0.976088 -0.013569
C23   C     C_R   0.820981 0.551182 0.955779 -0.035989
C24   C     C_R   0.859666 0.555376 0.015988 -0.134348
C25   C     C_R   0.753551 0.538464 0.055604 -0.055416
C26   C     C_R   0.601120 0.528573 0.036677 0.007805
C27   C     C_R   0.302823 0.494276 0.995571 0.051441
C28   C     C_R   0.341178 0.502693 0.056897 -0.098816
C29   C     C_R   0.490114 0.520775 0.078227 -0.082135
C30   C     C_R   0.531882 0.528437 0.139539 0.550939
N2    N     N_R   0.687015 0.525925 0.156035 -0.160306
C31   C     C_R   0.797660 0.529023 0.112879 0.534333
C32   C     C_2   0.332778 0.441254 0.762307 0.432009
C33   C     C_3   0.301486 0.418695 0.694515 -0.061699
C34   C     C_1   0.490860 0.519133 0.686985 0.192919
C35   C     C_2   0.513871 0.540310 0.747612 -0.281367
C36   C     C_2   0.436997 0.498612 0.788776 0.081541
C37   C     C_R   0.861941 0.564367 0.246379 -0.335165
C38   C     C_R   0.921649 0.553720 0.300523 0.119469
C39   C     C_R   0.700201 0.478580 0.311011 0.081971
C40   C     C_R   0.657468 0.475033 0.249880 -0.134923
C41   C     C_R   0.733681 0.522302 0.217637 0.163147
O27   O     O_2   0.429188 0.539260 0.178165 -0.568113
O28   O     O_2   0.935628 0.520796 0.123014 -0.591472
C42   C     C_2   0.389903 0.463773 0.660070 0.102803
H18   H     H_    0.973097 0.572321 0.031895 0.171679
H19   H     H_    0.917514 0.605920 0.226916 0.202000
H20   H     H_    0.908408 0.561304 0.926095 0.216179
H21   H     H_    0.582512 0.592785 0.768940 0.205567
C43   C     C_2   0.396109 0.236202 0.488679 -0.372845
C44   C     C_R   0.819590 0.753678 0.502781 0.087596
C45   C     C_2   0.235546 0.121651 0.438126 -0.060557
C46   C     C_2   0.253490 0.206782 0.456555 0.191752
C47   C     C_2   0.504834 0.185520 0.507058 0.268946
C48   C     C_3   0.464765 0.096539 0.503072 -0.218041
C49   C     C_3   0.360033 0.058320 0.449391 0.166501
C50   C     C_2   0.596479 0.029657 0.502358 0.407131
C51   C     C_2   0.577440 0.967836 0.528307 -0.062818
C52   C     C_R   0.834860 0.927168 0.559820 0.394100
C53   C     C_R   0.704723 0.900439 0.525770 -0.115316
C54   C     C_R   0.951145 0.868704 0.569633 -0.124801
C55   C     C_R   0.941731 0.779782 0.543315 0.201868
C56   C     C_R   0.692921 0.811838 0.497473 0.091978
H22   H     H_    0.420068 0.298677 0.489688 0.223601
Cl1   Cl    Cl    0.102063 0.833402 0.427020 -0.591181
Cl2   Cl    Cl    0.720781 0.914447 0.691055 -0.602812
Cl3   Cl    Cl    0.647538 0.271595 0.414424 -0.582782
Cl4   Cl    Cl    0.520792 0.157877 0.227588 -0.468958
N3    N     N_3   0.498457 0.114341 0.329040 -0.231206
H23   H     H_    0.526771 0.050056 0.302626 0.182840
H24   H     H_    0.380241 0.127916 0.323758 0.130213
Cl5   Cl    Cl    0.784208 0.129147 0.297106 -0.526167
N4    N     N_3   0.276197 0.703064 0.696516 -0.162223
H25   H     H_    0.273115 0.769500 0.717605 0.193538
H26   H     H_    0.322458 0.687218 0.652341 0.198823
N5    N     N_3   0.124112 0.588902 0.656214 -0.179762
H27   H     H_    0.198920 0.571970 0.618013 0.158305
H28   H     H_    0.016733 0.575651 0.638937 0.211915
N6    N     N_3   0.073452 0.861968 0.295810 -0.137987
H29   H     H_    0.126191 0.816015 0.256756 0.167164
H30   H     H_    0.157035 0.883833 0.328345 0.198214
Cl6   Cl    Cl    0.164248 0.663848 0.803805 -0.612927
N7    N     N_3   0.890417 0.673416 0.751439 -0.200969
H31   H     H_    0.900427 0.613808 0.758309 0.239190
H32   H     H_    0.824719 0.714516 0.789328 0.119659
Cl7   Cl    Cl    0.112058 0.140533 0.220781 -0.433965
N8    N     N_3   0.934551 0.282065 0.220405 -0.250403
H33   H     H_    0.845561 0.251746 0.232357 0.177657
H34   H     H_    0.944388 0.259357 0.172423 0.190024
Cl8   Cl    Cl    0.233551 0.294701 0.214367 -0.566395
N9    N     N_3   0.689371 0.351906 0.680096 -0.215127
H35   H     H_    0.716645 0.378671 0.726151 0.178382
H36   H     H_    0.778137 0.362405 0.654074 0.238270
N10   N     N_3   0.510537 0.246311 0.655861 -0.225392
H37   H     H_    0.465223 0.280243 0.627304 0.092091
H38   H     H_    0.453424 0.276387 0.698014 0.152285
Cl9   Cl    Cl    0.634364 0.272605 0.788585 -0.593207
Cl10  Cl    Cl    0.084615 0.161472 0.581281 -0.553650
N11   N     N_3   0.319353 0.154951 0.709756 -0.194025
H39   H     H_    0.328493 0.127117 0.744846 0.226374
H40   H     H_    0.359342 0.107659 0.669132 0.130262
Cl11  Cl    Cl    0.049544 0.090339 0.688943 -0.587982
N12   N     N_3   0.442542 0.725198 0.291380 -0.202127
H41   H     H_    0.412820 0.668294 0.296957 0.194043
H42   H     H_    0.341302 0.761694 0.286816 0.153653
N13   N     N_3   0.167424 0.454134 0.970196 -0.172928
H43   H     H_    0.113699 0.432744 0.002424 0.137577
H44   H     H_    0.204577 0.398314 0.934283 0.204297
Cl12  Cl    Cl    0.261656 0.372897 0.799053 -0.623954
N14   N     N_3   0.554565 0.414618 0.217291 -0.142691
H45   H     H_    0.448623 0.427941 0.241185 0.247384
H46   H     H_    0.601968 0.353030 0.215363 0.180042
Cl13  Cl    Cl    0.940865 0.474492 0.387932 -0.522212
N15   N     N_3   0.667178 0.721370 0.349079 -0.212798
H47   H     H_    0.726425 0.709355 0.307488 0.043954
H48   H     H_    0.642269 0.661215 0.349927 0.107148
Cl14  Cl    Cl    0.372319 0.424913 0.580966 -0.617265
N16   N     N_3   0.116179 0.085931 0.397295 -0.151436
H49   H     H_    0.009809 0.121513 0.412481 0.253128
H50   H     H_    0.141880 0.088795 0.353683 0.176432
N17   N     N_3   0.070965 0.902301 0.610317 -0.111464
H51   H     H_    0.069392 0.879808 0.647931 0.219251
H52   H     H_    0.177267 0.881811 0.587008 0.228441
Cl15  Cl    Cl    0.814600 0.646434 0.464542 -0.581027
Cl16  Cl    Cl    0.761714 0.019597 0.454713 -0.618622
N18   N     N_3   0.439605 0.968305 0.563220 -0.151891
H53   H     H_    0.355100 0.018563 0.564670 0.157620
H54   H     H_    0.471970 0.975874 0.608367 0.191219
N19   N     N_3   0.711870 0.712754 0.602680 -0.208316
H55   H     H_    0.795876 0.669331 0.611544 0.152301
H56   H     H_    0.643478 0.678308 0.567872 0.185354
Cl17  Cl    Cl    0.450172 0.810468 0.638784 -0.663186

loop_
_geom_bond_atom_site_label_1
_geom_bond_atom_site_label_2
_geom_bond_distance
_ccdc_geom_bond_type
C32   Cl12  1.766350 S    
C32   C33   1.510940 S    
O2    Ba2   2.794587 S    
N12   H41   1.044837 S    
C32   C36   1.373554 D    
C20   O26   1.221392 D    
C44   C55   1.415073 A    
C18   C23   1.407580 A    
C40   C41   1.439823 A    
O13   Ba2   3.065869 S    
C44   Cl15  1.713010 S    
C21   C22   1.401470 A    
O8    Ba1   2.821752 S    
C51   C53   1.473337 S    
O3    Ba1   2.817521 S    
P8    C33   1.912238 S    
C7    N3    1.462029 S    
N3    H23   1.045947 S    
N17   H52   1.038961 S    
C4    O15   1.425360 S    
N2    C31   1.400249 Am   
P7    O21   1.593984 D    
C5    Cl2   1.787710 S    
N7    H32   1.046114 S    
C6    H6    1.108536 S    
C34   C42   1.335258 D    
P8    O23   1.542709 D    
O12   Ba2   2.817304 S    
P4    O15   1.798146 S    
N14   H45   1.040725 S    
N16   H49   1.040253 S    
N10   H38   1.038904 S    
C3    H2    1.110930 S    
P5    O18   1.541543 D    
P2    O10   1.785687 S    
N8    H34   1.045907 S    
Ba2   O21   2.908993 S    
N9    H35   1.044560 S    
C9    H7    1.113851 S    
N2    C41   1.486808 S    
C7    Cl4   1.785409 S    
N3    H24   1.042446 S    
C42   Cl14  1.735083 S    
C45   C46   1.358030 D    
C54   C55   1.409543 A    
C50   Cl16  1.770958 S    
C17   Cl13  1.753529 S    
C37   C41   1.419431 A    
C13   C14   1.549352 S    
C18   C22   1.409073 A    
P1    O1    1.590604 D    
C13   N9    1.473784 S    
O14   Ba2   2.817003 S    
C54   N17   1.427845 S    
P6    C38   1.862749 S    
C11   C12   1.549087 S    
C50   C51   1.358670 D    
P7    C46   1.872512 S    
P7    O22   1.767752 S    
C1    H1    1.108656 S    
C16   N11   1.458707 S    
C19   O25   1.220849 D    
C6    Cl3   1.739219 S    
O6    P6    1.760699 S    
N11   H40   1.042081 S    
C2    N12   1.463476 S    
Ba1   O20   3.046564 S    
C15   H15   1.074156 S    
C23   C24   1.402641 A    
Ba1   O13   2.793761 S    
C51   N18   1.442150 S    
C12   Cl7   1.793719 S    
N15   H48   1.043760 S    
O4    P6    1.544046 D    
N12   H42   1.037885 S    
C27   N13   1.437037 S    
C4    C5    1.543418 S    
P1    Ba1   3.472407 S    
C20   C21   1.418819 A    
C44   C56   1.415270 A    
C23   H20   1.082982 S    
C18   C19   1.423480 A    
C26   C29   1.403428 A    
N9    H36   1.038885 S    
C7    Cl5   1.793289 S    
O10   C8    1.425094 S    
O17   Ba2   2.822520 S    
C43   H22   1.065815 S    
C12   N8    1.463760 S    
P1    O5    1.765093 S    
C33   C42   1.505387 S    
C1    C10   1.543018 S    
O2    Ba1   3.065034 S    
C30   N2    1.396721 Am   
P5    C47   1.898689 S    
N1    C36   1.484282 S    
C24   C25   1.406341 A    
O11   C2    1.420642 S    
C10   Cl1   1.778347 S    
C12   Cl8   1.788029 S    
C27   C28   1.411632 A    
O14   P8    1.764763 S    
P1    O2    1.541129 S    
P4    O13   1.541159 S    
C13   N10   1.443914 S    
C15   O24   1.414792 S    
C11   O22   1.394990 S    
N19   H55   1.035042 S    
N4    H26   1.036097 S    
O19   C13   1.419199 S    
C8    C9    1.559801 S    
Ba1   O16   2.860354 S    
N19   H56   1.043517 S    
P3    O11   1.764703 S    
P4    C34   1.885782 S    
C2    C3    1.528406 S    
O6    C10   1.411619 S    
N10   H37   1.041127 S    
C11   H11   1.105421 S    
P2    O7    1.577576 D    
C3    H12   1.109928 S    
C37   H19   1.080683 S    
P2    Ba1   3.519834 S    
N15   H47   1.039530 S    
C28   C29   1.406546 A    
C9    Cl6   1.794469 S    
C8    N4    1.436559 S    
C24   H18   1.080723 S    
N6    H29   1.044507 S    
C5    H5    1.111249 S    
C29   C30   1.421177 A    
C30   O27   1.220430 D    
C35   C36   1.525567 S    
N4    H25   1.046267 S    
P3    C56   1.896626 S    
C43   C47   1.351779 D    
P2    C55   1.891764 S    
C10   H8    1.099229 S    
N6    H30   1.044171 S    
C52   C53   1.397774 A    
C45   C49   1.505201 S    
C4    N19   1.436903 S    
C11   H10   1.111553 S    
N18   H54   1.044338 S    
C1    N6    1.462006 S    
C45   N16   1.435922 S    
C21   C27   1.416889 A    
C22   C26   1.426798 A    
N16   H50   1.043977 S    
N1    C20   1.393524 Am   
C2    N15   1.455590 S    
Ba1   Ba2   4.730918 S    
P1    C39   1.898364 S    
O16   Ba2   3.045684 S    
O3    P6    1.751783 S    
C16   Cl11  1.792022 S    
C4    Cl17  1.784895 S    
N7    H31   1.040087 S    
C6    C7    1.552172 S    
C17   C38   1.400234 A    
O7    Ba1   2.908691 S    
P8    O24   1.768992 S    
N5    H28   1.027581 S    
N13   H43   1.045775 S    
C48   C50   1.502540 S    
N5    H27   1.040778 S    
N11   H39   1.045852 S    
P5    O17   1.755145 S    
N17   H51   1.043600 S    
N8    H33   1.044597 S    
P4    O12   1.590921 D    
P3    O8    1.754191 S    
C14   H13   1.094919 S    
O5    C6    1.390163 S    
C14   Cl9   1.790611 S    
N14   H46   1.044616 S    
C37   C38   1.399273 A    
P3    O9    1.535787 D    
O1    Ba1   2.816892 S    
C3    H3    1.101367 S    
Ba2   O20   2.859596 S    
C43   C46   1.482038 S    
P5    O19   1.769225 S    
C39   C40   1.434402 A    
C31   O28   1.220775 D    
C15   Cl10  1.782824 S    
C17   C39   1.404916 A    
C35   H21   1.085063 S    
C53   C56   1.413421 A    
C14   H14   1.111070 S    
C25   C26   1.399335 A    
C8    N5    1.457065 S    
C15   C16   1.561088 S    
C47   C48   1.518352 S    
O16   P7    1.795428 S    
H17   C28   1.083411 S    
C16   H16   1.109549 S    
C48   C49   1.534038 S    
P2    O20   1.597015 S    
C9    N7    1.463654 S    
P4    Ba2   3.472794 S    
C5    H4    1.085498 S    
C19   N1    1.394269 Am   
C1    H9    1.104765 S    
C34   C35   1.342350 D    
C40   N14   1.432417 S    
C25   C31   1.418711 A    
N18   H53   1.042148 S    
N13   H44   1.045386 S    
C52   C54   1.392057 A    
