data_mof_unit_40921.cif
_audit_creation_date              2012-10-26T21:12:32-0400
_audit_creation_method            fapswitch 2.2
_symmetry_space_group_name_H-M    P1
_symmetry_Int_Tables_number       1
_space_group_crystal_system       triclinic
_cell_length_a                    23.512334
_cell_length_b                    10.744921
_cell_length_c                    9.637681
_cell_angle_alpha                 89.604631
_cell_angle_beta                  89.705153
_cell_angle_gamma                 93.330096
_cell_volume                      2430.63933156

loop_
_atom_site_label
_atom_site_type_symbol
_atom_type_description
_atom_site_fract_x
_atom_site_fract_y
_atom_site_fract_z
_atom_type_partial_charge
C1    C     C_R   0.499228 0.262817 0.500535 0.531816
C2    C     C_R   0.121532 0.613414 0.483303 0.400877
C3    C     C_R   0.237912 0.532708 0.385379 -0.050077
C4    C     C_R   0.391041 0.501523 0.500121 0.531265
C5    C     C_R   0.297487 0.535160 0.379789 0.112035
C6    C     C_R   0.328305 0.506087 0.500925 0.018563
C7    C     C_R   0.298312 0.479961 0.625447 -0.192289
C8    C     C_R   0.239122 0.480536 0.629915 -0.077017
C9    C     C_R   0.208661 0.506158 0.509838 0.212617
C10   C     C_R   0.758963 0.439944 0.387685 0.185004
C11   C     C_R   0.699358 0.439286 0.389912 -0.157339
C12   C     C_R   0.964662 0.282333 0.573861 -0.124965
C13   C     C_R   0.670908 0.492754 0.500950 -0.027516
C14   C     C_R   0.702318 0.543735 0.612307 -0.162189
C15   C     C_R   0.761508 0.544263 0.611017 -0.096649
C16   C     C_R   0.499285 0.737059 0.499829 0.543263
C17   C     C_R   0.790090 0.493305 0.499067 0.268418
C18   C     C_R   0.397615 0.116519 0.590879 -0.111536
C19   C     C_R   0.349281 0.044911 0.634011 -0.115668
C20   C     C_R   0.349346 0.915341 0.634337 -0.115079
C21   C     C_R   0.397717 0.856643 0.591385 -0.116384
C22   C     C_R   0.447145 0.927328 0.547188 0.015379
C23   C     C_R   0.023938 0.284029 0.576461 -0.123863
C24   C     C_R   0.447156 0.058812 0.547501 0.021682
C25   C     C_R   0.496581 0.128691 0.502156 0.001845
C26   C     C_R   0.544852 0.070355 0.458146 -0.161426
C27   C     C_R   0.544767 0.941851 0.457236 -0.139963
C28   C     C_R   0.608690 0.497353 0.500013 0.557994
C29   C     C_R   0.496431 0.870535 0.500520 -0.003202
C30   C     C_R   0.561249 0.702750 0.131660 0.339960
C31   C     C_R   0.571709 0.811694 0.050803 0.120821
C32   C     C_R   0.578087 0.799079 0.909285 -0.209821
C33   C     C_R   0.564028 0.685414 0.849502 -0.130581
C34   C     C_R   0.056709 0.394089 0.545029 0.042459
C35   C     C_R   0.531301 0.592368 0.922653 0.104700
C36   C     C_R   0.530632 0.595995 0.071795 0.119090
C37   C     C_R   0.470510 0.410867 0.074928 -0.007810
C38   C     C_R   0.470181 0.411483 0.927386 -0.005485
C39   C     C_R   0.881527 0.605485 0.471610 0.395193
C40   C     C_R   0.877325 0.389418 0.533727 0.423160
C41   C     C_R   0.936866 0.390293 0.538802 0.033088
C42   C     C_R   0.969190 0.501931 0.508341 -0.074002
C43   C     C_R   0.941598 0.611420 0.474194 0.029923
C44   C     C_3   0.649234 0.694278 0.229617 -0.106142
C45   C     C_R   0.029275 0.503556 0.511719 -0.042629
C46   C     C_3   0.540932 0.012244 0.112500 -0.295510
C47   C     C_3   0.952444 0.916250 0.512407 -0.075330
C48   C     C_3   0.345480 0.697317 0.241531 -0.269839
C49   C     C_3   0.805661 0.474145 0.166777 -0.291027
C50   C     C_R   0.061886 0.614148 0.480620 -0.016874
C51   C     C_R   0.034414 0.722472 0.446338 -0.107621
C52   C     C_R   0.974808 0.722823 0.444713 0.265952
C53   C     C_R   0.116455 0.397260 0.544644 0.403892
Cu1   Cu    Cu3+1 0.500000 0.499990 0.640660 0.919062
Cu2   Cu    Cu3+1 0.500000 0.500010 0.359340 0.982626
H1    H     H_    0.940680 0.196157 0.599449 0.144843
H2    H     H_    0.582750 0.897819 0.423750 0.172928
H3    H     H_    0.446154 0.337803 0.130498 0.120741
H4    H     H_    0.043941 0.198797 0.602987 0.158069
H5    H     H_    0.596239 0.875627 0.846536 0.131231
H6    H     H_    0.578124 0.676129 0.745206 0.191829
H7    H     H_    0.445503 0.338917 0.873508 0.113499
H8    H     H_    0.059026 0.807572 0.419103 0.175290
H9    H     H_    0.214141 0.553168 0.292772 0.130238
H10   H     H_    0.320574 0.457939 0.719793 0.132217
H11   H     H_    0.216831 0.460622 0.726861 0.141443
H12   H     H_    0.675363 0.398380 0.304226 0.115632
H13   H     H_    0.667100 0.777919 0.172654 0.120557
H14   H     H_    0.659011 0.608450 0.172393 0.105012
H15   H     H_    0.671733 0.694463 0.330213 0.145187
H16   H     H_    0.624051 0.970079 0.075632 0.242904
H17   H     H_    0.554906 0.100526 0.164581 0.148298
H18   H     H_    0.503001 0.969976 0.168319 0.169070
H19   H     H_    0.529142 0.034538 0.003912 0.140601
H20   H     H_    0.933851 0.875232 0.610213 0.130651
H21   H     H_    0.926988 0.996011 0.483383 0.167371
H22   H     H_    0.996991 0.953203 0.529614 0.097838
H23   H     H_    0.681180 0.585287 0.699141 0.122756
H24   H     H_    0.303198 0.538222 0.165630 0.240113
H25   H     H_    0.308737 0.757906 0.242318 0.146302
H26   H     H_    0.369565 0.712998 0.142932 0.142957
H27   H     H_    0.374363 0.723507 0.328628 0.163675
H28   H     H_    0.765333 0.308781 0.234244 0.252394
H29   H     H_    0.768146 0.515717 0.119037 0.121666
H30   H     H_    0.829123 0.425509 0.085024 0.153281
H31   H     H_    0.834638 0.549366 0.209488 0.196319
H32   H     H_    0.785389 0.584787 0.696994 0.122274
H33   H     H_    0.582804 0.124767 0.424738 0.123434
H34   H     H_    0.395654 0.216885 0.591066 0.122460
H35   H     H_    0.311577 0.090150 0.666893 0.134343
H36   H     H_    0.311700 0.860024 0.667470 0.135058
H37   H     H_    0.395839 0.755954 0.592311 0.127840
N1    N     N_R   0.851115 0.495699 0.500112 -0.394622
N2    N     N_R   0.147573 0.505789 0.513802 -0.392491
N3    N     N_R   0.500540 0.501210 0.147910 -0.236475
N4    N     N_R   0.500560 0.501290 0.852040 -0.232568
N5    N     N_2   0.586674 0.927874 0.114302 -0.503878
N6    N     N_2   0.325641 0.567558 0.252325 -0.494558
N7    N     N_2   0.787419 0.386016 0.274405 -0.486155
O1    O     O_R   0.500000 0.319640 0.618810 -0.502936
O2    O     O_R   0.582120 0.500020 0.618760 -0.520860
O3    O     O_R   0.582120 0.500050 0.381190 -0.449873
O4    O     O_2   0.853398 0.707890 0.440508 -0.457322
O5    O     O_3   0.589931 0.697423 0.255619 -0.517523
O6    O     O_3   0.949461 0.829758 0.402956 -0.512123
O7    O     O_2   0.845734 0.283481 0.562886 -0.490000
O8    O     O_2   0.143242 0.292341 0.572828 -0.502241
O9    O     O_2   0.153312 0.719579 0.456362 -0.506051
O10   O     O_R   0.500000 0.319660 0.381240 -0.514988
O11   O     O_R   0.417880 0.499950 0.618810 -0.522140
O12   O     O_R   0.417880 0.499980 0.381240 -0.464405
O13   O     O_R   0.500000 0.680340 0.618760 -0.522280
O14   O     O_R   0.500000 0.680360 0.381190 -0.449687

loop_
_geom_bond_atom_site_label_1
_geom_bond_atom_site_label_2
_ccdc_geom_bond_type
C8    H11   S    
C22   C29   A    
C27   C29   A    
C41   C42   A    
Cu1   O2    S    
C19   C20   A    
C40   N1    A    
C16   O14   A    
C44   O5    S    
C7    C8    A    
C35   N4    A    
C23   H4    S    
H16   N5    S    
C12   C23   A    
C37   N3    A    
C26   C27   A    
C37   C38   A    
C18   C24   A    
C49   H29   S    
C40   O7    S    
C47   H21   S    
C30   C31   A    
C43   C52   A    
C7    H10   S    
C10   C17   A    
C48   H26   S    
Cu1   O11   S    
C18   C19   A    
C39   N1    A    
C2    C50   A    
C1    O10   A    
C28   O2    A    
C35   C36   A    
C8    C9    A    
C47   O6    S    
C13   C28   S    
C44   H15   S    
C46   H17   S    
C37   H3    S    
C14   H23   S    
H28   N7    S    
C21   C22   A    
Cu2   O10   S    
C1    C25   S    
Cu1   O1    S    
C1    O1    A    
C11   H12   S    
C20   H36   S    
C51   C52   A    
C49   H30   S    
C2    N2    A    
C51   H8    S    
C24   C25   A    
Cu2   N3    S    
C27   H2    S    
C39   C43   A    
Cu2   O14   S    
C16   C29   S    
C3    H9    S    
C42   C45   A    
C12   C41   A    
C3    C9    A    
C49   N7    S    
C53   O8    S    
C31   C32   A    
Cu2   O3    S    
C23   C34   A    
C50   C51   A    
Cu1   O13   S    
C44   H14   S    
C34   C45   A    
C5    N6    S    
C12   H1    S    
C4    C6    S    
C40   C41   A    
C46   N5    S    
C52   O6    S    
C22   C24   A    
C44   H13   S    
C17   N1    S    
C42   C43   A    
C47   H22   S    
C30   O5    S    
C46   H19   S    
C16   O13   A    
C15   H32   S    
C15   C17   A    
C4    O11   A    
Cu1   Cu2   S    
Cu2   O12   S    
C53   N2    A    
C18   H34   S    
Cu1   N4    S    
C49   H31   S    
C4    O12   A    
C3    C5    A    
C39   O4    S    
C6    C7    A    
C48   N6    S    
C30   C36   A    
C32   C33   A    
C48   H25   S    
C25   C26   A    
C47   H20   S    
C19   H35   S    
C11   C13   A    
C36   N3    A    
C5    C6    A    
C45   C50   A    
C33   H6    S    
C2    O9    S    
C33   C35   A    
C48   H27   S    
C31   N5    S    
C10   N7    S    
C10   C11   A    
C28   O3    A    
C20   C21   A    
C34   C53   A    
C26   H33   S    
C38   N4    A    
C32   H5    S    
C14   C15   A    
H24   N6    S    
C13   C14   A    
C9    N2    S    
C46   H18   S    
C38   H7    S    
C21   H37   S    
