data_mof_unit_5095.cif
_audit_creation_date              2012-12-10T18:04:03-0500
_audit_creation_method            fapswitch 2.2
_symmetry_space_group_name_H-M    P1
_symmetry_Int_Tables_number       1
_space_group_crystal_system       triclinic
_cell_length_a                    10.835829
_cell_length_b                    9.548099
_cell_length_c                    10.839179
_cell_angle_alpha                 90.63005
_cell_angle_beta                  91.496017
_cell_angle_gamma                 91.76583
_cell_volume                      1120.44568174

loop_
_atom_site_label
_atom_site_type_symbol
_atom_type_description
_atom_site_fract_x
_atom_site_fract_y
_atom_site_fract_z
_atom_type_partial_charge
C1    C     C_R   0.262787 0.498527 0.506560 0.804798
C2    C     C_R   0.502093 0.626529 0.937983 -0.015822
C3    C     C_R   0.491220 0.499591 0.128750 -0.101945
C4    C     C_R   0.493138 0.500994 0.870492 -0.076759
C5    C     C_R   0.472077 0.374205 0.061288 -0.205236
C6    C     C_R   0.471463 0.374969 0.933033 -0.217712
C7    C     C_3   0.599278 0.742145 0.937792 0.033794
C8    C     C_3   0.595820 0.741019 0.078606 0.059757
C9    C     C_R   0.059909 0.393204 0.453732 -0.237950
C10   C     C_R   0.932889 0.395390 0.451788 -0.245228
C11   C     C_R   0.873481 0.509953 0.501552 -0.067714
C12   C     C_R   0.738351 0.502975 0.499998 0.799385
C13   C     C_R   0.129461 0.497108 0.516991 -0.051018
C14   C     C_R   0.944621 0.624991 0.554459 0.127616
C15   C     C_R   0.070768 0.604622 0.581909 0.142743
C16   C     C_3   0.816158 0.799905 0.901331 -0.751387
C17   C     C_3   0.636555 0.982337 0.148133 -0.713840
C18   C     C_3   0.893180 0.771469 0.565446 -0.399902
C19   C     C_3   0.870668 0.834972 0.437779 -0.797890
C20   C     C_3   0.138623 0.684257 0.688040 -0.436254
C21   C     C_3   0.179563 0.584500 0.789596 -0.818957
C22   C     C_3   0.220625 0.084450 0.322938 -0.766158
C23   C     C_R   0.425415 0.069614 0.418526 0.305372
C24   C     C_3   0.778142 0.141090 0.658316 -0.692762
C25   C     C_R   0.572028 0.077417 0.583561 0.312763
C26   C     C_R   0.429592 0.920883 0.416568 -0.038420
C27   C     C_R   0.569010 0.928566 0.584958 -0.117276
C28   C     C_R   0.499118 0.499542 0.262286 0.796497
C29   C     C_R   0.500884 0.500635 0.737605 0.815769
C30   C     C_R   0.499200 0.625993 0.065405 0.009954
Cu1   Cu    Cu3+1 0.500000 0.640660 0.500000 0.947392
Cu2   Cu    Cu3+1 0.500000 0.359340 0.500000 0.972580
H1    H     H_    0.463138 0.274880 0.106551 0.146619
H2    H     H_    0.896188 0.762491 0.850139 0.229098
H3    H     H_    0.845055 0.816805 0.999572 0.232311
H4    H     H_    0.787320 0.900685 0.861587 0.228095
H5    H     H_    0.463801 0.898159 0.092568 0.241572
H6    H     H_    0.594642 0.069278 0.199332 0.219714
H7    H     H_    0.666763 0.021677 0.057326 0.221766
H8    H     H_    0.717915 0.947669 0.202913 0.235399
H9    H     H_    0.816192 0.763454 0.374542 0.262295
H10   H     H_    0.820333 0.933796 0.447204 0.233881
H11   H     H_    0.960574 0.859191 0.394509 0.232272
H12   H     H_    0.459308 0.276117 0.883588 0.155645
H13   H     H_    0.809244 0.769705 0.621246 0.229661
H14   H     H_    0.957139 0.847602 0.613057 0.180910
H15   H     H_    0.242318 0.504985 0.754147 0.238690
H16   H     H_    0.228888 0.644952 0.864924 0.240918
H17   H     H_    0.097639 0.529760 0.828470 0.247410
H18   H     H_    0.218663 0.746909 0.655060 0.233068
H19   H     H_    0.079792 0.759011 0.735359 0.186192
H20   H     H_    0.385789 0.140475 0.246697 0.234385
H21   H     H_    0.214717 0.978652 0.279367 0.205247
H22   H     H_    0.166227 0.154137 0.262643 0.227133
H23   H     H_    0.565821 0.838849 0.893124 0.141202
H24   H     H_    0.179422 0.080279 0.415708 0.239679
H25   H     H_    0.620843 0.132997 0.761605 0.218482
H26   H     H_    0.807378 0.034885 0.683963 0.190887
H27   H     H_    0.828212 0.219268 0.719186 0.230428
H28   H     H_    0.803709 0.160769 0.561581 0.243741
H29   H     H_    0.681153 0.706365 0.127446 0.143029
H30   H     H_    0.103977 0.310475 0.405460 0.174907
H31   H     H_    0.881112 0.310731 0.404975 0.154322
H32   H     H_    0.375896 0.859716 0.348814 0.153938
H33   H     H_    0.622439 0.874605 0.654112 0.150294
H34   H     H_    0.741896 0.598271 0.919415 0.257750
N1    N     N_R   0.500000 0.852070 0.500000 -0.188062
N2    N     N_R   0.500000 0.147940 0.500000 -0.192339
N3    N     N_2   0.716202 0.696379 0.891228 -0.420312
N4    N     N_2   0.546977 0.867951 0.130774 -0.411437
N5    N     N_2   0.347363 0.137394 0.332193 -0.370817
N6    N     N_2   0.646513 0.153318 0.672442 -0.373062
O1    O     O_R   0.319640 0.618740 0.499990 -0.594001
O2    O     O_R   0.680360 0.618740 0.500010 -0.575264
O3    O     O_R   0.319620 0.381170 0.499990 -0.555710
O4    O     O_R   0.680380 0.381170 0.500010 -0.559114
O5    O     O_R   0.499990 0.618810 0.319660 -0.566872
O6    O     O_R   0.500010 0.618810 0.680340 -0.576431
O7    O     O_R   0.499960 0.381240 0.319650 -0.580623
O8    O     O_R   0.500040 0.381240 0.680350 -0.573089

loop_
_geom_bond_atom_site_label_1
_geom_bond_atom_site_label_2
_ccdc_geom_bond_type
C12   O2    A    
C14   C18   S    
C2    C7    S    
C7    H23   S    
Cu2   O3    S    
C21   H17   S    
C7    C8    S    
C22   H22   S    
Cu1   N1    S    
C26   N1    A    
C3    C28   S    
C20   H19   S    
C16   H3    S    
C5    C6    A    
C11   C14   A    
Cu1   O1    S    
H34   N3    S    
C18   C19   S    
C17   H7    S    
C23   C26   A    
C28   O7    A    
C9    C13   A    
C20   H18   S    
C16   H2    S    
C29   O6    A    
C10   H31   S    
C5    H1    S    
C9    C10   A    
C4    C29   S    
C19   H10   S    
C8    H29   S    
Cu2   N2    S    
C21   H16   S    
C17   N4    S    
C6    H12   S    
H5    N4    S    
C25   N2    A    
C18   H14   S    
C19   H11   S    
Cu1   O5    S    
C22   H21   S    
C15   C20   S    
C9    H30   S    
C1    O3    A    
C23   N5    S    
C4    C6    A    
Cu1   O2    S    
C22   H24   S    
C17   H8    S    
C23   N2    A    
C3    C30   A    
C2    C4    A    
C7    N3    S    
C27   H33   S    
Cu2   O8    S    
Cu1   Cu2   S    
C24   H28   S    
C25   N6    S    
C28   O5    A    
C13   C15   A    
C1    C13   S    
C18   H13   S    
C22   N5    S    
C24   N6    S    
Cu1   O6    S    
C16   N3    S    
C3    C5    A    
Cu2   O4    S    
C11   C12   S    
C26   H32   S    
C25   C27   A    
C8    N4    S    
C2    C30   A    
C8    C30   S    
C12   O4    A    
C1    O1    A    
H20   N5    S    
C16   H4    S    
Cu2   O7    S    
C29   O8    A    
C24   H27   S    
C17   H6    S    
H25   N6    S    
C27   N1    A    
C10   C11   A    
C20   C21   S    
C24   H26   S    
C14   C15   A    
C19   H9    S    
C21   H15   S    
