data_mof_unit_60126.cif
_audit_creation_date              2012-12-10T18:48:46-0500
_audit_creation_method            fapswitch 2.2
_symmetry_space_group_name_H-M    P1
_symmetry_Int_Tables_number       1
_space_group_crystal_system       triclinic
_cell_length_a                    19.45563
_cell_length_b                    18.104706
_cell_length_c                    10.876755
_cell_angle_alpha                 90.430239
_cell_angle_beta                  91.57042
_cell_angle_gamma                 90.606479
_cell_volume                      3829.44131002

loop_
_atom_site_label
_atom_site_type_symbol
_atom_type_description
_atom_site_fract_x
_atom_site_fract_y
_atom_site_fract_z
_atom_type_partial_charge
C1    C     C_R   0.367049 0.499310 0.501068 0.874112
C2    C     C_3   0.572050 0.500040 0.937562 0.612324
C3    C     C_R   0.740438 0.435229 0.431587 0.047845
C4    C     C_R   0.747042 0.566743 0.473408 0.044624
C5    C     C_R   0.812299 0.434836 0.420747 0.380406
C6    C     C_R   0.818922 0.563532 0.464534 0.375023
C7    C     C_R   0.851649 0.494432 0.470022 -0.061628
C8    C     C_R   0.707835 0.500340 0.471988 -0.127369
C9    C     C_R   0.961890 0.546094 0.574568 0.417722
C10   C     C_R   0.962163 0.419865 0.506014 0.417889
C11   C     C_R   0.033624 0.547825 0.575517 -0.163040
C12   C     C_R   0.033758 0.421737 0.503783 -0.165265
C13   C     C_R   0.070054 0.487384 0.531307 -0.007962
C14   C     C_R   0.925592 0.486899 0.514928 -0.043619
C15   C     C_R   0.185478 0.429782 0.557936 -0.140683
C16   C     C_R   0.178613 0.554846 0.484538 -0.133418
C17   C     C_R   0.495678 0.499727 0.259774 0.808698
C18   C     C_R   0.256588 0.431217 0.547441 0.381091
C19   C     C_R   0.250017 0.558358 0.475472 0.359445
C20   C     C_R   0.290744 0.496474 0.507683 -0.225701
C21   C     C_R   0.145840 0.490849 0.525698 0.002842
C22   C     C_R   0.453858 0.715767 0.420965 -0.036748
C23   C     C_R   0.448035 0.282701 0.433080 -0.017865
C24   C     C_R   0.447967 0.792867 0.413630 0.308984
C25   C     C_R   0.441707 0.205408 0.425449 0.319432
C26   C     C_R   0.490483 0.838691 0.488656 -0.108195
C27   C     C_R   0.489526 0.160757 0.488137 -0.106367
C28   C     C_R   0.539138 0.805041 0.567804 0.255147
C29   C     C_R   0.542847 0.195671 0.557245 0.246579
C30   C     C_R   0.543402 0.727140 0.571613 0.525436
C31   C     C_R   0.547225 0.273690 0.562330 0.521478
C32   C     C_R   0.517513 0.960940 0.392616 -0.119953
C33   C     C_R   0.517112 0.038426 0.392283 -0.120429
C34   C     C_R   0.483740 0.078161 0.484110 0.051854
C35   C     C_R   0.484636 0.921152 0.484894 0.051222
C36   C     C_R   0.632502 0.500296 0.492235 0.940948
C37   C     C_R   0.449147 0.038731 0.575828 0.382160
C38   C     C_R   0.449527 0.960516 0.576156 0.380825
C39   C     C_R   0.498450 0.500641 0.740479 0.966613
C40   C     C_3   0.469761 0.578045 0.073663 -0.093964
C41   C     C_3   0.440337 0.441749 0.064588 -0.139345
C42   C     C_3   0.458960 0.575486 0.930273 0.609622
C43   C     C_3   0.454220 0.431092 0.925109 0.622977
C44   C     C_3   0.567009 0.482548 0.076256 -0.428787
C45   C     C_3   0.493744 0.499890 0.122236 -0.220123
C46   C     C_3   0.495910 0.502227 0.878437 -0.413193
Cu1   Cu    Cu3+1 0.500000 0.573360 0.499960 1.072779
Cu2   Cu    Cu3+1 0.500000 0.426640 0.499960 1.076004
H1    H     H_    0.060949 0.594843 0.616099 0.206292
H2    H     H_    0.060622 0.370974 0.485425 0.197134
H3    H     H_    0.161250 0.380261 0.592365 0.200745
H4    H     H_    0.148355 0.602078 0.456705 0.204890
H5    H     H_    0.421356 0.681110 0.362156 0.212518
H6    H     H_    0.410229 0.316056 0.386029 0.186199
H7    H     H_    0.544895 0.931818 0.322059 0.199646
H8    H     H_    0.544273 0.067653 0.321584 0.199135
H9    H     H_    0.419119 0.589334 0.115427 0.181354
H10   H     H_    0.388323 0.466259 0.072527 0.198021
H11   H     H_    0.607671 0.512618 0.130911 0.191720
H12   H     H_    0.577826 0.423247 0.092697 0.222694
N1    N     N_R   0.500020 0.683620 0.499990 -0.268424
N2    N     N_R   0.500020 0.316380 0.499990 -0.262628
O1    O     O_R   0.400180 0.561980 0.499950 -0.538489
O2    O     O_R   0.400180 0.438020 0.499950 -0.561231
O3    O     O_R   0.499990 0.561950 0.317660 -0.622209
O4    O     O_R   0.499990 0.438050 0.317660 -0.618255
O5    O     O_R   0.599810 0.561930 0.499990 -0.541852
O6    O     O_R   0.599810 0.438070 0.499990 -0.528229
O7    O     O_R   0.500010 0.561950 0.682280 -0.503824
O8    O     O_R   0.500010 0.438050 0.682280 -0.491360
N3    N     N_3   0.516788 0.639515 0.111007 -0.428453
H13   H     H_    0.561592 0.622615 0.156854 0.263939
H14   H     H_    0.491631 0.676253 0.168712 0.250269
N4    N     N_3   0.436556 0.369996 0.126443 -0.448180
H15   H     H_    0.485347 0.350946 0.152002 0.277073
H16   H     H_    0.406117 0.374691 0.203625 0.233542
Cl1   Cl    Cl    0.298159 0.347897 0.585716 -0.421527
Cl2   Cl    Cl    0.284037 0.640906 0.416400 -0.488206
Cl3   Cl    Cl    0.386445 0.830073 0.310668 -0.401032
Cl4   Cl    Cl    0.372918 0.166410 0.337972 -0.412381
Cl5   Cl    Cl    0.595287 0.860320 0.661073 -0.372893
Cl6   Cl    Cl    0.604027 0.141617 0.638118 -0.377650
Cl7   Cl    Cl    0.606137 0.686952 0.667834 -0.364996
Cl8   Cl    Cl    0.614105 0.314309 0.651201 -0.355821
Cl9   Cl    Cl    0.406558 0.087479 0.691977 -0.329053
Cl10  Cl    Cl    0.406718 0.911769 0.691970 -0.335265
Cl11  Cl    Cl    0.368356 0.577846 0.893289 -0.481968
Cl12  Cl    Cl    0.373613 0.414463 0.844398 -0.405585
Cl13  Cl    Cl    0.484518 0.663144 0.865743 -0.325286
Cl14  Cl    Cl    0.497911 0.344909 0.898431 -0.377105
Cl15  Cl    Cl    0.620282 0.584087 0.920823 -0.392732
Cl16  Cl    Cl    0.628636 0.435296 0.868691 -0.391951
N5    N     N_3   0.700315 0.371977 0.392083 -0.512786
H17   H     H_    0.719717 0.325388 0.436801 0.301951
H18   H     H_    0.705310 0.364732 0.297342 0.270151
N6    N     N_3   0.714105 0.637089 0.477466 -0.484495
H19   H     H_    0.737427 0.668523 0.548384 0.316439
H20   H     H_    0.721900 0.664101 0.394325 0.268834
Cl17  Cl    Cl    0.846840 0.376692 0.306778 -0.445959
Cl18  Cl    Cl    0.863883 0.642937 0.414232 -0.453880
Cl19  Cl    Cl    0.921790 0.608456 0.674874 -0.413057
Cl20  Cl    Cl    0.924798 0.333408 0.540257 -0.406208

loop_
_geom_bond_atom_site_label_1
_geom_bond_atom_site_label_2
_ccdc_geom_bond_type
C15   C18   A    
C16   C21   A    
C40   N3    S    
C27   C29   A    
C25   Cl4   S    
C19   C20   A    
C4    C8    A    
C36   O5    A    
C2    C46   S    
C17   O4    A    
N5    H17   S    
N4    H16   S    
C38   Cl10  S    
C43   Cl12  S    
C37   Cl9   S    
C24   C26   A    
C41   H10   S    
C16   C19   A    
Cu1   O1    S    
Cu2   O2    S    
C44   H11   S    
C34   C37   A    
C42   C46   S    
C30   Cl7   S    
Cu1   O7    S    
C41   N4    S    
C4    N6    S    
C7    C14   S    
C5    Cl17  S    
C2    C44   S    
N6    H20   S    
C15   H3    S    
C32   H7    S    
C33   H8    S    
C40   C42   S    
N5    H18   S    
C41   C43   S    
C31   N2    A    
C1    O1    A    
Cu1   O5    S    
C22   H5    S    
C23   N2    A    
C27   C34   S    
C40   C45   S    
C43   Cl14  S    
N4    H15   S    
C32   C35   A    
C10   Cl20  S    
C35   C38   A    
C4    C6    A    
C3    C8    A    
C10   C14   A    
N3    H14   S    
C31   Cl8   S    
C17   C45   S    
C6    Cl18  S    
C19   Cl2   S    
C9    C14   A    
C37   C38   A    
C11   H1    S    
C24   Cl3   S    
Cu2   N2    S    
Cu1   Cu2   S    
N6    H19   S    
C33   C34   A    
C39   O7    A    
C13   C21   S    
C3    N5    S    
Cu2   O6    S    
C2    Cl16  S    
C9    C11   A    
C10   C12   A    
C39   C46   S    
C22   C24   A    
C1    O2    A    
C44   C45   S    
C23   H6    S    
C5    C7    A    
C1    C20   S    
C40   H9    S    
C28   Cl5   S    
C17   O3    A    
C16   H4    S    
Cu2   O8    S    
C3    C5    A    
Cu1   N1    S    
C12   H2    S    
C36   O6    A    
C8    C36   S    
C6    C7    A    
C25   C27   A    
C26   C28   A    
C42   Cl13  S    
C32   C33   A    
C28   C30   A    
C29   Cl6   S    
C29   C31   A    
C22   N1    A    
C11   C13   A    
C44   H12   S    
C18   Cl1   S    
C39   O8    A    
C18   C20   A    
C23   C25   A    
C2    Cl15  S    
C43   C46   S    
C26   C35   S    
C15   C21   A    
N3    H13   S    
C12   C13   A    
C9    Cl19  S    
C30   N1    A    
C41   C45   S    
C42   Cl11  S    
Cu2   O4    S    
Cu1   O3    S    
