data_mof_unit_16659.cif
_audit_creation_date              2012-12-11T16:38:00-0500
_audit_creation_method            fapswitch 2.2
_symmetry_space_group_name_H-M    P1
_symmetry_Int_Tables_number       1
_space_group_crystal_system       triclinic
_cell_length_a                    8.398606
_cell_length_b                    17.330582
_cell_length_c                    19.099255
_cell_angle_alpha                 99.683532
_cell_angle_beta                  92.721142
_cell_angle_gamma                 96.577665
_cell_volume                      2715.97099468

loop_
_atom_site_label
_atom_site_type_symbol
_atom_type_description
_atom_site_fract_x
_atom_site_fract_y
_atom_site_fract_z
_atom_type_partial_charge
Ba1   Ba    Ba6+2 0.849990 0.533510 0.465310 1.545144
Ba2   Ba    Ba6+2 0.339840 0.466550 0.534700 1.503979
C1    C     C_3   0.718204 0.842946 0.312304 0.664637
C2    C     C_R   0.015120 0.530838 0.726431 0.016232
C3    C     C_R   0.858457 0.440832 0.815582 -0.231339
C4    C     C_3   0.134219 0.762518 0.278888 2.520700
C5    C     C_R   0.791634 0.439709 0.746998 0.160778
C6    C     C_R   0.319297 0.583017 0.193886 0.118815
C7    C     C_R   0.382682 0.582428 0.262657 0.102301
C8    C     C_R   0.138436 0.465969 0.200922 -0.186744
C9    C     C_R   0.167751 0.480770 0.276082 0.123124
C10   C     C_R   0.982832 0.500955 0.847466 0.010829
C11   C     C_R   0.879716 0.477329 0.700307 0.107911
C12   C     C_3   0.606397 0.764334 0.293709 0.124732
C13   C     C_R   0.201772 0.521390 0.158265 -0.025995
C14   C     C_R   0.293671 0.538979 0.305791 -0.028073
C15   C     C_R   0.763051 0.475244 0.960044 -0.149731
C16   C     C_3   0.181346 0.849571 0.276592 -0.138974
C17   C     C_R   0.658743 0.439875 0.002308 -0.088580
C18   C     C_R   0.706968 0.440957 0.072160 0.003806
C19   C     C_R   0.860809 0.474109 0.098494 0.019375
C20   C     C_R   0.981426 0.493478 0.052538 0.033286
C21   C     C_R   0.929583 0.492486 0.979280 0.077839
C22   C     C_R   0.146486 0.516127 0.078371 0.034520
C23   C     C_3   0.581743 0.289775 0.306650 0.671099
C24   C     C_R   0.256419 0.536918 0.026931 0.055479
C25   C     C_R   0.204800 0.531691 0.952864 0.056991
C26   C     C_R   0.039969 0.509598 0.927440 -0.003145
C27   C     C_R   0.421855 0.561122 0.046418 -0.033603
C28   C     C_3   0.227799 0.707452 0.620694 0.288656
C29   C     C_R   0.522632 0.595094 0.001408 -0.069190
C30   C     C_R   0.475351 0.585821 0.930050 -0.005969
C31   C     C_R   0.324619 0.546850 0.905468 -0.124900
C32   C     C_R   0.408229 0.717461 0.468419 -0.288618
C33   C     C_R   0.553397 0.745213 0.508384 0.068630
C34   C     C_3   0.611570 0.222342 0.247003 0.285471
C35   C     C_R   0.610706 0.825671 0.519437 -0.103872
C36   C     C_R   0.519736 0.878739 0.493125 0.020179
C37   C     C_R   0.368016 0.851283 0.457841 -0.100208
C38   C     C_R   0.313166 0.770187 0.444116 0.153537
C39   C     C_R   0.590730 0.163224 0.490615 -0.036955
C40   C     C_3   0.259617 0.796919 0.639711 -0.327242
C41   C     C_R   0.642513 0.243850 0.497163 -0.018700
C42   C     C_R   0.899117 0.224522 0.551947 0.124915
C43   C     C_R   0.847023 0.143632 0.545716 -0.125971
C44   C     C_R   0.691481 0.113062 0.515759 0.063063
C45   C     C_3   0.147952 0.333826 0.728499 0.344244
C46   C     C_1   0.634194 0.030240 0.509368 0.129977
C47   C     C_1   0.582089 0.961284 0.502843 0.151420
C48   C     C_R   0.795512 0.273986 0.528391 -0.216205
C49   C     C_3   0.004072 0.288707 0.380482 0.352566
C50   C     C_3   0.032081 0.202459 0.365507 -0.260612
C51   C     C_3   0.708694 0.644769 0.681701 0.284810
C52   C     C_3   0.680034 0.662285 0.760862 0.375743
C53   C     C_3   0.159057 0.327620 0.807484 -0.379830
C54   C     C_3   0.513344 0.244212 0.708751 0.525367
C55   C     C_3   0.402402 0.176835 0.733233 0.316581
C56   C     C_R   0.049817 0.550774 0.801003 -0.179918
H1    H     H_    0.527920 0.758071 0.338056 0.283535
H2    H     H_    0.836190 0.636999 0.675157 -0.005653
H3    H     H_    0.630103 0.589234 0.659617 0.001478
H4    H     H_    0.708865 0.611693 0.785785 -0.083921
H5    H     H_    0.551440 0.669273 0.767463 0.029623
H6    H     H_    0.530766 0.762948 0.244082 0.238109
H7    H     H_    0.696322 0.324904 0.328346 -0.032471
H8    H     H_    0.496390 0.184843 0.227773 0.059736
H9    H     H_    0.690570 0.184396 0.269791 0.002752
H10   H     H_    0.822284 0.838532 0.279309 0.060673
H11   H     H_    0.281037 0.855936 0.241347 0.182021
H12   H     H_    0.353045 0.814468 0.684493 0.166407
H13   H     H_    0.255173 0.369037 0.714997 0.096464
H14   H     H_    0.049447 0.367935 0.720004 0.060496
H15   H     H_    0.171212 0.387216 0.840009 0.078471
H16   H     H_    0.050117 0.292758 0.821163 0.223883
H17   H     H_    0.265016 0.300928 0.823486 0.132527
H18   H     H_    0.487364 0.245283 0.651432 0.055785
H19   H     H_    0.287697 0.195510 0.749121 0.069903
H20   H     H_    0.455738 0.160447 0.782179 0.062922
H21   H     H_    0.134502 0.602402 0.821308 0.137956
H22   H     H_    0.806998 0.396487 0.844112 0.122350
H23   H     H_    0.301745 0.822225 0.593500 0.026400
H24   H     H_    0.370840 0.629735 0.168055 0.131156
H25   H     H_    0.062813 0.412888 0.176449 0.155175
H26   H     H_    0.332833 0.544952 0.361383 0.059320
H27   H     H_    0.708581 0.489916 0.912788 0.098483
H28   H     H_    0.534849 0.420052 0.983273 0.099892
H29   H     H_    0.620261 0.421588 0.106829 0.169650
H30   H     H_    0.243297 0.734109 0.288840 -2.668614
H31   H     H_    0.878717 0.484932 0.155224 0.158882
H32   H     H_    0.480370 0.550874 0.094612 0.013210
H33   H     H_    0.645223 0.618834 0.019838 0.112102
H34   H     H_    0.147453 0.821368 0.655578 0.176483
H35   H     H_    0.560544 0.602628 0.892922 0.106307
H36   H     H_    0.306893 0.527966 0.849032 0.109845
H37   H     H_    0.474592 0.139203 0.463803 0.116886
H38   H     H_    0.291504 0.893110 0.443763 0.080389
H39   H     H_    0.925772 0.105267 0.564913 0.145222
H40   H     H_    0.724000 0.847077 0.549847 0.120456
H41   H     H_    0.362797 0.655544 0.461624 0.061871
H42   H     H_    0.079785 0.876732 0.255880 0.011032
H43   H     H_    0.837549 0.335691 0.530634 0.113261
H44   H     H_    0.218327 0.882507 0.330400 0.022267
H45   H     H_    0.881070 0.292430 0.397319 -0.162076
H46   H     H_    0.341763 0.683900 0.607432 0.004092
H47   H     H_    0.139048 0.691415 0.574030 0.059495
H48   H     H_    0.867462 0.896691 0.390595 0.302426
H49   H     H_    0.055086 0.791135 0.820933 0.385514
H50   H     H_    0.513458 0.956930 0.198871 0.383429
H51   H     H_    0.451528 0.425258 0.196847 0.312115
H52   H     H_    0.494518 0.214527 0.098282 0.355154
H53   H     H_    0.676937 0.261061 0.836761 0.313066
H54   H     H_    0.438142 0.974159 0.647398 0.344473
H55   H     H_    0.832714 0.727573 0.127500 0.374626
H56   H     H_    0.088952 0.318696 0.425266 0.081423
H57   H     H_    0.800861 0.503970 0.613450 0.298793
H58   H     H_    0.947046 0.169264 0.321629 0.151202
H59   H     H_    0.014193 0.175667 0.413807 0.033350
H60   H     H_    0.156897 0.197751 0.350050 0.163142
O1    O     O_2   0.880230 0.446130 0.326290 -0.422677
O2    O     O_2   0.238551 0.235732 0.557656 -0.467807
O3    O     O_3   0.123016 0.258684 0.684630 -0.535395
O4    O     O_3   0.127880 0.453050 0.414940 -0.485666
O5    O     O_3   0.568990 0.594210 0.536150 -0.496888
O6    O     O_2   0.359830 0.311600 0.465710 -0.423474
O7    O     O_3   0.502447 0.253881 0.357487 -0.682258
O8    O     O_2   0.489946 0.469225 0.759820 -0.537581
O9    O     O_3   0.490986 0.317793 0.750301 -0.688526
O10   O     O_3   0.652660 0.587690 0.369690 -0.425472
O11   O     O_2   0.691054 0.554547 0.237359 -0.431682
O12   O     O_3   0.671081 0.707415 0.648747 -0.592862
O13   O     O_3   0.024032 0.320821 0.318084 -0.533423
O14   O     O_3   0.704892 0.703641 0.282197 -0.578856
O15   O     O_2   0.829870 0.688430 0.534340 -0.444576
O16   O     O_3   0.069940 0.629350 0.405460 -0.434964
O17   O     O_2   0.996126 0.767638 0.465149 -0.489627
O18   O     O_3   0.772031 0.856066 0.384374 -0.738236
O19   O     O_2   0.758406 0.819859 0.776930 -0.215843
O20   O     O_2   0.771307 0.759740 0.884182 -0.252462
O21   O     O_3   0.996412 0.740131 0.796560 -0.520963
O22   O     O_2   0.500714 0.945817 0.340696 -0.333556
O23   O     O_3   0.021007 0.754850 0.330169 -0.656988
O24   O     O_2   0.759238 0.996014 0.301604 -0.295554
O25   O     O_3   0.555723 0.907753 0.206650 -0.513031
O26   O     O_2   0.301742 0.303982 0.239390 -0.307714
O27   O     O_2   0.409741 0.405222 0.341930 -0.365790
O28   O     O_3   0.540884 0.407112 0.222736 -0.495141
O29   O     O_2   0.813744 0.327987 0.194513 -0.267061
O30   O     O_2   0.798374 0.189811 0.137951 -0.224638
O31   O     O_3   0.560496 0.266547 0.112014 -0.474994
O32   O     O_2   0.734292 0.141618 0.690943 -0.221064
O33   O     O_2   0.816425 0.280681 0.690552 -0.383995
O34   O     O_2   0.309470 0.553890 0.673760 -0.481504
O35   O     O_3   0.765147 0.237016 0.812277 -0.495418
O36   O     O_2   0.185853 0.053271 0.677127 -0.251442
O37   O     O_2   0.362793 0.105935 0.593954 -0.330856
O38   O     O_3   0.480955 0.023114 0.680735 -0.446862
O39   O     O_2   0.165539 0.714668 0.138663 -0.280797
O40   O     O_2   0.973989 0.633592 0.197905 -0.308154
O41   O     O_3   0.893907 0.764596 0.167485 -0.586339
O42   O     O_3   0.837298 0.456831 0.628802 -0.697999
O43   O     O_3   0.061830 0.547010 0.585070 -0.464349
O44   O     O_3   0.537040 0.412370 0.630320 -0.434492
O45   O     O_3   0.167693 0.678800 0.679663 -0.571375
O46   O     O_3   0.620720 0.405850 0.463860 -0.422568
O47   O     O_3   0.119760 0.370720 0.594550 -0.474350
P1    P     P_3+3 0.050120 0.424430 0.337400 1.174610
P2    P     P_3+3 0.655220 0.678730 0.555760 0.965961
P3    P     P_3+3 0.105505 0.731842 0.409031 1.210125
P4    P     P_3+3 0.139590 0.575630 0.662610 1.008421
P5    P     P_3+3 0.096698 0.269996 0.595294 1.024289
P6    P     P_3+3 0.600796 0.611602 0.287503 1.075568
P7    P     P_3+3 0.538012 0.305174 0.445248 1.027019
P8    P     P_3+3 0.579389 0.403664 0.719750 0.975473
S1    S     S_3+6 0.801395 0.749231 0.806417 -0.034344
S2    S     S_3+6 0.630595 0.926522 0.291841 -0.114697
S3    S     S_3+6 0.451134 0.352266 0.276879 -0.069512
S4    S     S_3+6 0.703200 0.252732 0.171833 -0.031551
S5    S     S_3+6 0.713293 0.224241 0.724463 -0.069171
S6    S     S_3+6 0.354010 0.088575 0.668068 -0.043387
S7    S     S_3+6 0.042466 0.716124 0.193262 0.011160

loop_
_geom_bond_atom_site_label_1
_geom_bond_atom_site_label_2
_ccdc_geom_bond_type
O9    P8    S    
C53   H17   S    
O30   S4    D    
C54   H18   S    
Ba2   P4    S    
C1    H10   S    
Ba1   O10   S    
O25   S2    S    
O41   S7    S    
H52   O31   S    
C31   H36   S    
Ba2   O44   S    
C34   H9    S    
O5    P2    S    
C42   C48   A    
C36   C47   S    
C12   O14   S    
C43   C44   A    
C25   C31   A    
O8    P8    D    
C12   H1    S    
C24   C25   A    
C15   C21   A    
C10   C26   S    
C32   C38   A    
C33   C35   A    
C7    C14   A    
C22   C24   A    
C32   C33   A    
C8    C13   A    
O15   P2    D    
Ba1   O1    S    
C36   C37   A    
O38   S6    S    
C34   H8    S    
C45   O3    S    
C52   H5    S    
Ba1   P2    S    
C49   H45   S    
C18   H29   S    
C8    H25   S    
C14   H26   S    
C4    H30   S    
C54   C55   S    
Ba1   Ba2   S    
C16   H44   S    
C54   O9    S    
C2    C11   A    
O7    P7    S    
O40   S7    D    
Ba1   O4    S    
C35   H40   S    
C23   O7    S    
C53   H16   S    
C51   H3    S    
O12   P2    S    
C17   C18   A    
O13   P1    S    
C6    C7    A    
O28   S3    S    
O20   S1    D    
C9    P1    S    
C33   P2    S    
O17   P3    D    
O14   P6    S    
C11   O42   S    
C40   H34   S    
O32   S5    D    
O43   P4    S    
C50   H59   S    
C17   H28   S    
C16   H11   S    
Ba2   O4    S    
O3    P5    S    
Ba1   O43   S    
O36   S6    D    
C39   C41   A    
C40   H23   S    
C16   H42   S    
C28   O45   S    
Ba1   O15   S    
C15   H27   S    
Ba2   O43   S    
C27   H32   S    
C51   H2    S    
O37   S6    D    
C50   H58   S    
Ba2   O34   S    
C4    C16   S    
C44   C46   S    
C49   H56   S    
C2    P4    S    
C49   C50   S    
C55   H19   S    
C23   H7    S    
Ba1   O46   S    
C3    C10   A    
Ba2   O46   S    
C37   C38   A    
C3    C5    A    
C49   O13   S    
O33   S5    D    
C54   S5    S    
C52   H4    S    
C51   C52   S    
C4    O23   S    
O39   S7    D    
Ba1   O5    S    
C40   H12   S    
C35   C36   A    
C9    C14   A    
O29   S4    D    
C29   C30   A    
O6    P7    D    
O27   S3    D    
C39   C44   A    
O44   P8    S    
O26   S3    D    
O31   S4    S    
C32   H41   S    
C21   C26   A    
H55   O41   S    
C3    H22   S    
H53   O35   S    
Ba2   O47   S    
C45   H13   S    
C1    C12   S    
C56   H21   S    
C48   H43   S    
C12   H6    S    
C1    S2    S    
C46   C47   T    
C6    C13   A    
C29   H33   S    
C28   H47   S    
C20   C22   A    
C7    P6    S    
C2    C56   A    
Ba1   O16   S    
C1    O18   S    
C6    H24   S    
C42   C43   A    
C45   C53   S    
O1    P1    D    
O47   P5    S    
O35   S5    S    
C13   C22   S    
O23   P3    S    
C4    S7    S    
C55   H20   S    
O11   P6    D    
C34   S4    S    
C19   H31   S    
C55   S6    S    
C41   P7    S    
C41   C48   A    
O24   S2    D    
Ba2   O6    S    
C37   H38   S    
H57   O42   S    
C30   C31   A    
C52   S1    S    
C10   C56   A    
O19   S1    D    
C27   C29   A    
C43   H39   S    
O10   P6    S    
O34   P4    D    
C23   S3    S    
O2    P5    D    
C39   H37   S    
Ba1   P1    S    
O22   S2    D    
C5    P8    S    
H48   O18   S    
C15   C17   A    
C30   H35   S    
O16   P3    S    
O4    P1    S    
H49   O21   S    
O45   P4    S    
C42   P5    S    
C45   H14   S    
C38   P3    S    
H51   O28   S    
O46   P7    S    
C8    C9    A    
C23   C34   S    
C53   H15   S    
C5    C11   A    
C18   C19   A    
C24   C27   A    
H54   O38   S    
C28   H46   S    
C25   C26   A    
C20   C21   A    
C28   C40   S    
O21   S1    S    
C51   O12   S    
C19   C20   A    
H50   O25   S    
Ba2   O5    S    
C50   H60   S    
