data_mof_unit_60982.cif
_audit_creation_date              2012-12-10T19:07:21-0500
_audit_creation_method            fapswitch 2.2
_symmetry_space_group_name_H-M    P1
_symmetry_Int_Tables_number       1
_space_group_crystal_system       triclinic
_cell_length_a                    13.063498
_cell_length_b                    13.632156
_cell_length_c                    19.285724
_cell_angle_alpha                 90.129796
_cell_angle_beta                  92.929951
_cell_angle_gamma                 85.744038
_cell_volume                      3420.52003744

loop_
_atom_site_label
_atom_site_type_symbol
_atom_type_description
_atom_site_fract_x
_atom_site_fract_y
_atom_site_fract_z
_atom_type_partial_charge
C1    C     C_R   0.481241 0.685088 0.499405 0.946575
C2    C     C_R   0.518801 0.314931 0.500695 0.910959
C3    C     C_1   0.533893 0.212221 0.506171 -0.038527
C4    C     C_1   0.466610 0.787591 0.506303 -0.030575
C5    C     C_2   0.547724 0.021354 0.519661 -0.125132
C6    C     C_2   0.458394 0.977602 0.524217 -0.124106
C7    C     C_1   0.459266 0.874204 0.514432 0.068703
C8    C     C_1   0.543376 0.125288 0.512364 0.074154
C9    C     C_2   0.034037 0.467930 0.483389 -0.217724
C10   C     C_2   0.966784 0.526413 0.521309 -0.216903
C11   C     C_1   0.854490 0.519453 0.514892 0.270033
C12   C     C_1   0.145796 0.478538 0.486800 0.269589
C13   C     C_R   0.499588 0.499167 0.634443 0.941215
C14   C     C_R   0.500570 0.499505 0.365573 0.934226
C15   C     C_R   0.443604 0.427840 0.742760 0.209942
C16   C     C_R   0.574228 0.437483 0.256878 0.213093
C17   C     C_R   0.443003 0.425807 0.815287 -0.074077
C18   C     C_R   0.573511 0.435588 0.184364 -0.069855
C19   C     C_R   0.502224 0.490667 0.854694 -0.113860
C20   C     C_R   0.495606 0.491786 0.145312 -0.126497
C21   C     C_R   0.561748 0.557904 0.821996 -0.085854
C22   C     C_R   0.419521 0.551449 0.178526 -0.080652
C23   C     C_R   0.557825 0.563376 0.749137 -0.151407
C24   C     C_R   0.424328 0.557988 0.251277 -0.137368
C25   C     C_R   0.499058 0.497821 0.709937 -0.181634
C26   C     C_R   0.500914 0.499657 0.290092 -0.188110
C27   C     C_R   0.495785 0.490836 0.069605 0.367061
C28   C     C_R   0.499671 0.490325 0.930286 0.386097
N1    N     N_R   0.511461 0.404545 0.966126 -0.117564
N2    N     N_R   0.484568 0.576550 0.033748 -0.120995
N3    N     N_R   0.508775 0.404753 0.034783 -0.118494
N4    N     N_R   0.485487 0.576233 0.965082 -0.118327
N5    N     N_1   0.234540 0.484780 0.488910 -0.055306
N6    N     N_1   0.765460 0.515220 0.511090 -0.054311
O1    O     O_R   0.402510 0.634760 0.495940 -0.596929
O2    O     O_R   0.597490 0.365240 0.504060 -0.591111
O3    O     O_R   0.572960 0.644530 0.503060 -0.599244
O4    O     O_R   0.427040 0.355470 0.496940 -0.588362
O5    O     O_R   0.414750 0.495120 0.598300 -0.567396
O6    O     O_R   0.585250 0.504880 0.401700 -0.575979
O7    O     O_R   0.585190 0.504900 0.605420 -0.618487
O8    O     O_R   0.414810 0.495100 0.394580 -0.616819
Zn1   Zn    Zn3+2 0.386190 0.493480 0.495250 1.083948
Zn2   Zn    Zn3+2 0.613810 0.506520 0.504750 1.078898
Br1   Br    Br    0.368863 0.333388 0.688840 -0.364287
Br2   Br    Br    0.675566 0.353343 0.310183 -0.392140
C29   C     C_2   0.376468 0.359003 0.849752 0.994190
O9    O     O_2   0.388170 0.270115 0.840868 -0.533298
O10   O     O_R   0.301681 0.398138 0.893472 -0.756154
H1    H     H_    0.261954 0.345522 0.914582 0.373292
C30   C     C_2   0.656985 0.377590 0.149748 1.000045
O11   O     O_2   0.712773 0.418893 0.111978 -0.569979
O12   O     O_R   0.670779 0.275831 0.159668 -0.723731
H2    H     H_    0.729790 0.244609 0.133140 0.371231
C31   C     C_2   0.628551 0.621837 0.864192 0.987748
O13   O     O_2   0.621913 0.710840 0.854826 -0.558781
O14   O     O_R   0.698096 0.579767 0.915189 -0.747730
H3    H     H_    0.738516 0.630504 0.940832 0.374665
C32   C     C_2   0.334851 0.606996 0.137278 0.999514
O15   O     O_2   0.282095 0.564035 0.094569 -0.558117
O16   O     O_R   0.315993 0.708228 0.147237 -0.756658
H4    H     H_    0.256553 0.737533 0.116226 0.371818
C33   C     C_2   0.614443 0.638055 0.713774 1.007766
O17   O     O_2   0.706964 0.641652 0.725623 -0.554444
O18   O     O_R   0.561468 0.703594 0.666580 -0.795115
H5    H     H_    0.608025 0.750767 0.645876 0.379995
C34   C     C_2   0.348857 0.625439 0.286776 1.005144
O19   O     O_2   0.379178 0.686495 0.328015 -0.618280
O20   O     O_R   0.243473 0.618484 0.273226 -0.755963
H6    H     H_    0.200132 0.667953 0.300670 0.361340
C35   C     C_2   0.356456 0.031869 0.533968 0.978160
O21   O     O_2   0.277506 0.993951 0.515598 -0.572183
O22   O     O_R   0.349944 0.124004 0.566182 -0.759478
H7    H     H_    0.276405 0.152209 0.569909 0.374657
C36   C     C_2   0.650992 0.966999 0.515809 0.976027
O23   O     O_2   0.720736 0.006846 0.489835 -0.565834
O24   O     O_R   0.670135 0.872459 0.543775 -0.801129
H8    H     H_    0.743348 0.844511 0.538135 0.374856
C37   C     C_2   0.002572 0.602338 0.571157 0.969533
O25   O     O_2   0.940794 0.666601 0.591459 -0.579148
O26   O     O_R   0.105003 0.599964 0.596475 -0.777844
H9    H     H_    0.118192 0.655423 0.630124 0.370282
C38   C     C_2   0.998494 0.389682 0.435425 0.970032
O27   O     O_2   0.055094 0.356305 0.391093 -0.573360
O28   O     O_R   0.902701 0.351847 0.441461 -0.766553
H10   H     H_    0.889218 0.298513 0.406147 0.387025

loop_
_geom_bond_atom_site_label_1
_geom_bond_atom_site_label_2
_ccdc_geom_bond_type
C31   O13   D    
C33   O18   S    
O22   H7    S    
C13   O7    A    
O26   H9    S    
C29   O10   S    
O24   H8    S    
C28   N1    A    
C19   C21   A    
C24   C26   A    
O28   H10   S    
C5    C6    D    
C15   C25   A    
C24   C34   S    
C38   O27   D    
O1    Zn1   S    
C9    C10   D    
C1    O3    A    
C14   O8    A    
C23   C33   S    
C32   O15   D    
C27   N2    A    
C13   C25   S    
O20   H6    S    
C4    C7    T    
C18   C30   S    
C16   C26   A    
C6    C35   S    
C32   O16   S    
C27   N3    A    
C34   O19   D    
N5    Zn1   S    
C28   N4    A    
N6    Zn2   S    
C3    C8    T    
C16   Br2   S    
C22   C32   S    
C21   C31   S    
O5    Zn1   S    
O12   H2    S    
C30   O11   D    
C34   O20   S    
C5    C36   S    
C36   O23   D    
C2    O4    A    
C29   O9    D    
O6    Zn2   S    
C14   C26   S    
C19   C28   S    
C36   O24   S    
C9    C38   S    
C38   O28   S    
C20   C22   A    
O10   H1    S    
C31   O14   S    
O7    Zn2   S    
C22   C24   A    
O2    Zn2   S    
O8    Zn1   S    
C15   Br1   S    
C1    O1    A    
C37   O26   S    
C2    O2    A    
C15   C17   A    
C11   N6    T    
C17   C29   S    
C33   O17   D    
C5    C8    S    
C10   C37   S    
C6    C7    S    
C20   C27   S    
C1    C4    S    
O3    Zn2   S    
C21   C23   A    
C2    C3    S    
C35   O21   D    
N1    N3    A    
N2    N4    A    
O14   H3    S    
C17   C19   A    
C18   C20   A    
C23   C25   A    
O16   H4    S    
C9    C12   S    
C13   O5    A    
C10   C11   S    
C14   O6    A    
C37   O25   D    
O4    Zn1   S    
C16   C18   A    
O18   H5    S    
C35   O22   S    
C30   O12   S    
C12   N5    T    
