data_mof_unit_49262.cif
_audit_creation_date              2013-03-05T16:37:42-0500
_audit_creation_method            fapswitch 2.2
_symmetry_space_group_name_H-M    P1
_symmetry_Int_Tables_number       1
_space_group_crystal_system       triclinic
_cell_length_a                    18.591829
_cell_length_b                    18.813967
_cell_length_c                    19.007282
_cell_angle_alpha                 110.15588
_cell_angle_beta                  109.586158
_cell_angle_gamma                 109.205165
_cell_volume                      5083.75922134

loop_
_atom_site_label
_atom_site_type_symbol
_atom_site_description
_atom_site_fract_x
_atom_site_fract_y
_atom_site_fract_z
_atom_type_partial_charge
O1    O     O_R   0.408360 0.551710 0.460090 -0.639271
O2    O     O_R   0.408390 0.448280 0.356670 -0.576511
C1    C     C_R   0.379695 0.500132 0.380085 0.928539
O3    O     O_R   0.591600 0.643340 0.551710 -0.650603
O4    O     O_R   0.591630 0.539900 0.448290 -0.587555
C2    C     C_R   0.617663 0.621159 0.498188 1.012852
Zn1   Zn    Zn3+2 0.499980 0.569070 0.569050 1.002722
Zn2   Zn    Zn3+2 0.500020 0.430930 0.430950 1.075366
O5    O     O_R   0.591610 0.551720 0.643330 -0.587059
O6    O     O_R   0.591640 0.448290 0.539910 -0.656673
O7    O     O_R   0.408370 0.460100 0.551710 -0.640677
O8    O     O_R   0.408400 0.356660 0.448290 -0.550944
C3    C     C_R   0.622739 0.501951 0.619777 0.982165
C4    C     C_R   0.378109 0.379915 0.498240 0.964288
H1    H     H_    0.785291 0.878975 0.892510 0.165092
C5    C     C_R   0.706163 0.842545 0.760462 -0.030853
H2    H     H_    0.655333 0.852266 0.770378 0.192079
C6    C     C_R   0.698052 0.814285 0.678666 -0.196369
H3    H     H_    0.641306 0.803473 0.626437 0.159169
C7    C     C_R   0.761335 0.797816 0.663364 0.051529
C8    C     C_R   0.839758 0.820992 0.734957 0.654266
C9    C     C_R   0.846751 0.848892 0.817400 -0.174888
H4    H     H_    0.903584 0.862719 0.872415 0.148749
C10   C     C_R   0.779698 0.858327 0.829372 -0.131179
C11   C     C_R   0.815536 0.826405 0.570264 -0.169640
H5    H     H_    0.870145 0.886885 0.629191 0.172826
C12   C     C_R   0.809996 0.809225 0.491170 -0.103933
C13   C     C_R   0.736274 0.735366 0.411798 0.096821
C14   C     C_R   0.669469 0.676079 0.414876 0.474338
C15   C     C_R   0.680397 0.690199 0.496728 -0.154197
C16   C     C_R   0.751394 0.769021 0.575131 0.034394
C17   C     C_R   0.699647 0.769093 0.292591 0.422432
C18   C     C_R   0.713176 0.776853 0.226088 0.143432
C19   C     C_R   0.747970 0.729800 0.187729 0.199023
C20   C     C_R   0.767382 0.674911 0.215030 -0.301079
H6    H     H_    0.793011 0.638360 0.183995 0.252964
C21   C     C_R   0.759666 0.670379 0.284636 0.131887
C22   C     C_R   0.729526 0.722073 0.327084 -0.152723
H7    H     H_    0.582788 0.899304 0.587240 0.191607
C23   C     C_R   0.461942 0.786438 0.546057 0.339358
C24   C     C_R   0.393498 0.702068 0.476705 -0.235411
H8    H     H_    0.340165 0.664690 0.483017 0.165655
C25   C     C_R   0.392839 0.665798 0.398306 0.086613
C26   C     C_R   0.461836 0.713335 0.389795 -0.113256
H9    H     H_    0.462022 0.685224 0.329862 0.163894
C27   C     C_R   0.530071 0.797040 0.458182 -0.196117
H10   H     H_    0.583591 0.833524 0.451603 0.176133
C28   C     C_R   0.529414 0.834089 0.535291 -0.126329
C29   C     C_R   0.255944 0.577538 0.256922 -0.206144
H11   H     H_    0.260322 0.638402 0.262750 0.164491
C30   C     C_R   0.187175 0.498030 0.183250 -0.018321
C31   C     C_R   0.181190 0.418016 0.172218 0.035259
C32   C     C_R   0.244464 0.418491 0.237855 0.275676
C33   C     C_R   0.312306 0.499336 0.314009 -0.211449
C34   C     C_R   0.318408 0.579234 0.323461 -0.029786
C35   C     C_R   0.036232 0.277047 0.088816 0.195847
C36   C     C_R   0.974490 0.193053 0.013891 0.388213
C37   C     C_R   0.983532 0.168397 0.939445 0.182303
C38   C     C_R   0.059489 0.223693 0.944516 -0.366375
H12   H     H_    0.068991 0.203661 0.889363 0.215339
C39   C     C_R   0.123326 0.305245 0.019316 0.289258
C40   C     C_R   0.110636 0.333576 0.090984 -0.174670
H13   H     H_    0.221057 0.609249 0.529107 0.163723
C41   C     C_R   0.259956 0.546552 0.598407 -0.082254
H14   H     H_    0.284174 0.600717 0.661426 0.177583
C42   C     C_R   0.264565 0.471946 0.591717 -0.062745
H15   H     H_    0.292781 0.469048 0.649915 0.177874
C43   C     C_R   0.233863 0.401814 0.510161 0.154671
C44   C     C_R   0.196910 0.406500 0.435428 -0.050744
H16   H     H_    0.170194 0.351828 0.372031 0.205121
C45   C     C_R   0.192856 0.481380 0.442375 -0.117173
H17   H     H_    0.165032 0.485063 0.384663 0.195626
C46   C     C_R   0.224424 0.551401 0.523828 -0.101682
C47   C     C_R   0.178168 0.259290 0.504744 0.282545
C48   C     C_R   0.188170 0.187709 0.503344 -0.234814
C49   C     C_R   0.260798 0.180480 0.501944 -0.036942
C50   C     C_R   0.322113 0.243583 0.498445 0.482365
C51   C     C_R   0.311770 0.314181 0.498630 -0.224931
C52   C     C_R   0.241135 0.323727 0.503602 -0.173875
C53   C     C_R   0.336989 0.119591 0.580218 0.177059
C54   C     C_R   0.370600 0.061651 0.574971 0.302038
C55   C     C_R   0.347601 0.996647 0.492954 0.283712
C56   C     C_R   0.280185 0.981108 0.417779 -0.209038
H18   H     H_    0.258861 0.929498 0.354541 0.201507
C57   C     C_R   0.244001 0.035536 0.422561 -0.261730
H19   H     H_    0.196997 0.025977 0.362875 0.170893
C58   C     C_R   0.275274 0.107601 0.502600 0.036446
C59   C     C_R   0.790283 0.519826 0.619635 0.192613
C60   C     C_R   0.858125 0.507508 0.609879 0.408186
C61   C     C_R   0.907012 0.484834 0.662333 0.422995
C62   C     C_R   0.889007 0.475903 0.725376 -0.243360
H20   H     H_    0.929457 0.460328 0.766247 0.177228
C63   C     C_R   0.821754 0.488470 0.736746 -0.021700
C64   C     C_R   0.766285 0.502673 0.678688 -0.109050
C65   C     C_R   0.691473 0.502477 0.684867 -0.163085
C66   C     C_R   0.675752 0.492976 0.749418 0.384036
C67   C     C_R   0.734684 0.485008 0.809809 0.195165
C68   C     C_R   0.810351 0.489078 0.806675 -0.204739
O9    O     O_R   0.051730 0.908360 0.460070 -0.640631
O10   O     O_R   0.948280 0.908380 0.356650 -0.616315
C69   C     C_R   0.998997 0.878261 0.380517 0.848800
O11   O     O_R   0.960110 0.908350 0.551690 -0.619760
O12   O     O_R   0.856660 0.908370 0.448270 -0.593286
C70   C     C_R   0.879164 0.875558 0.494448 0.844021
Zn3   Zn    Zn3+2 0.069080 0.999960 0.569030 0.972641
Zn4   Zn    Zn3+2 0.930920 0.999990 0.430930 1.154720
O13   O     O_R   0.051720 0.091580 0.643310 -0.653869
O14   O     O_R   0.948270 0.091600 0.539890 -0.529213
O15   O     O_R   0.143340 0.091590 0.551680 -0.597869
O16   O     O_R   0.039890 0.091610 0.448270 -0.581603
C71   C     C_R   0.001235 0.121473 0.620269 0.958071
C72   C     C_R   0.120768 0.119450 0.500064 0.958066
O17   O     O_R   0.051710 0.460040 0.908380 -0.604407
O18   O     O_R   0.948270 0.356620 0.908410 -0.645417
C73   C     C_R   0.996272 0.379569 0.876931 0.863573
O19   O     O_R   0.143330 0.551680 0.091590 -0.613589
O20   O     O_R   0.039890 0.448260 0.091620 -0.571663
C74   C     C_R   0.120570 0.499379 0.118962 0.956087
Zn5   Zn    Zn3+2 0.069060 0.569020 0.999970 1.047379
Zn6   Zn    Zn3+2 0.930920 0.430910 0.000010 1.151497
O21   O     O_R   0.051700 0.643310 0.091570 -0.633903
O22   O     O_R   0.948260 0.539890 0.091600 -0.540532
O23   O     O_R   0.960080 0.551670 0.908360 -0.620451
O24   O     O_R   0.856640 0.448250 0.908390 -0.587017
C75   C     C_R   0.999824 0.620320 0.119762 0.949509
C76   C     C_R   0.878964 0.497178 0.878220 0.893126
H21   H     H_    0.159511 0.773314 0.641764 0.213742
C77   C     C_R   0.179386 0.782933 0.540523 -0.356052
H22   H     H_    0.247527 0.799997 0.574899 0.194856
C78   C     C_R   0.142167 0.775781 0.458664 0.573787
C79   C     C_R   0.053784 0.756133 0.417478 0.040261
C80   C     C_R   0.004338 0.744207 0.458736 -0.183483
H23   H     H_    0.938028 0.732531 0.428461 0.189713
C81   C     C_R   0.041189 0.748762 0.539329 0.343681
C82   C     C_R   0.129048 0.768246 0.579391 -0.252105
C83   C     C_R   0.008347 0.679564 0.261200 0.306763
C84   C     C_R   0.002294 0.686892 0.188193 -0.195134
C85   C     C_R   0.000513 0.758877 0.182150 0.001146
C86   C     C_R   0.993947 0.817410 0.243875 -0.181048
H24   H     H_    0.990420 0.871913 0.238492 0.188352
C87   C     C_R   0.000007 0.811177 0.316380 -0.141816
C88   C     C_R   0.014465 0.746314 0.329465 -0.032987
C89   C     C_R   0.101164 0.839861 0.143745 -0.119002
H25   H     H_    0.154518 0.872063 0.209630 0.138681
C90   C     C_R   0.118863 0.856922 0.083775 -0.176809
H26   H     H_    0.185295 0.902597 0.103672 0.172434
C91   C     C_R   0.051157 0.814746 0.998057 -0.193743
H27   H     H_    0.066079 0.828816 0.952413 0.171161
C92   C     C_R   0.964622 0.756074 0.971947 0.344674
C93   C     C_R   0.947089 0.738919 0.032650 -0.173347
H28   H     H_    0.881037 0.692733 0.012915 0.221764
C94   C     C_R   0.015533 0.780022 0.118390 0.078561
C95   C     C_R   0.274458 0.225694 0.843394 -0.153338
H29   H     H_    0.286897 0.180378 0.861222 0.178525
C96   C     C_R   0.189208 0.212810 0.810350 -0.149098
H30   H     H_    0.138750 0.159280 0.806152 0.176289
C97   C     C_R   0.169087 0.269286 0.785627 0.033744
C98   C     C_R   0.238634 0.343214 0.798697 0.299287
C99   C     C_R   0.324662 0.355751 0.833444 -0.204627
H31   H     H_    0.377736 0.411337 0.842967 0.215832
C100  C     C_R   0.343280 0.297663 0.856014 0.366702
C101  C     C_R   0.074883 0.321328 0.821881 -0.160905
H32   H     H_    0.135425 0.377181 0.879766 0.215531
C102  C     C_R   0.993853 0.312348 0.809807 -0.187863
C103  C     C_R   0.913502 0.239428 0.736841 -0.031235
C104  C     C_R   0.916759 0.176102 0.674621 0.516619
C105  C     C_R   0.999704 0.186290 0.686866 -0.193774
C106  C     C_R   0.079540 0.258231 0.762541 0.010070
C107  C     C_R   0.794256 0.199126 0.772978 -0.281900
H33   H     H_    0.832424 0.183030 0.815369 0.222356
C108  C     C_R   0.715803 0.193924 0.769079 0.358530
C109  C     C_R   0.668735 0.217511 0.715589 -0.161892
H34   H     H_    0.608919 0.215829 0.712426 0.241212
C110  C     C_R   0.698126 0.243466 0.665329 -0.357468
H35   H     H_    0.660168 0.261991 0.625848 0.160263
C111  C     C_R   0.775675 0.246082 0.666896 0.598798
C112  C     C_R   0.826323 0.228345 0.725205 -0.007725
N1    N     N_R   0.766705 0.739178 0.122959 0.244134
O25   O     O_R   0.758229 0.673001 0.061277 -0.368460
O26   O     O_R   0.803062 0.816026 0.131589 -0.345145
N2    N     N_R   0.780945 0.611718 0.308636 0.199325
O27   O     O_R   0.794817 0.556343 0.259403 -0.317741
O28   O     O_R   0.785678 0.611344 0.378233 -0.363109
N3    N     N_R   0.462509 0.823683 0.626449 0.189761
O29   O     O_R   0.524339 0.902714 0.689667 -0.336958
O30   O     O_R   0.401337 0.778853 0.637315 -0.448531
N4    N     N_R   0.240355 0.337141 0.226200 0.209521
O31   O     O_R   0.244054 0.288121 0.161280 -0.352723
O32   O     O_R   0.236338 0.313372 0.282025 -0.426715
N5    N     N_R   0.024157 0.303879 0.162894 0.242638
O33   O     O_R   0.995982 0.248960 0.187221 -0.325412
O34   O     O_R   0.039646 0.383104 0.205763 -0.344452
O35   O     O_3   0.903840 0.136587 0.013107 -0.504772
C113  C     C_3   0.922427 0.074147 0.027374 -0.086703
H36   H     H_    0.927008 0.031849 0.973369 0.127475
H37   H     H_    0.867768 0.031329 0.030881 0.197294
H38   H     H_    0.984502 0.105730 0.089852 0.166033
N6    N     N_R   0.916504 0.087586 0.858873 0.197419
O36   O     O_R   0.835264 0.049876 0.841484 -0.344926
O37   O     O_R   0.934425 0.055552 0.798750 -0.505720
N7    N     N_R   0.203472 0.355895 0.023626 0.216023
O38   O     O_R   0.234840 0.438937 0.050743 -0.420372
O39   O     O_R   0.244514 0.318129 0.998106 -0.373122
N8    N     N_R   0.105001 0.267307 0.508757 0.222785
O40   O     O_R   0.054888 0.279044 0.452419 -0.351638
O41   O     O_R   0.086480 0.260020 0.566951 -0.380157
O42   O     O_3   0.389851 0.233267 0.489770 -0.602041
C114  C     C_3   0.467388 0.280578 0.572043 -0.210252
H39   H     H_    0.482643 0.233914 0.587801 0.180836
H40   H     H_    0.464560 0.325049 0.626562 0.206067
H41   H     H_    0.523304 0.320528 0.568246 0.172544
N9    N     N_R   0.370839 0.193834 0.663499 0.206703
O43   O     O_R   0.451339 0.230162 0.725976 -0.270122
O44   O     O_R   0.322544 0.227550 0.676794 -0.418444
O45   O     O_3   0.430958 0.073109 0.650334 -0.529747
C115  C     C_3   0.384064 0.021167 0.675534 -0.001303
H42   H     H_    0.347762 0.950483 0.625493 0.125160
H43   H     H_    0.337815 0.041139 0.689040 0.114528
H44   H     H_    0.431989 0.030354 0.736333 0.235634
N10   N     N_R   0.395009 0.949783 0.484993 0.213171
O46   O     O_R   0.461614 0.966858 0.553181 -0.346791
O47   O     O_R   0.379252 0.897731 0.408725 -0.421840
O48   O     O_3   0.597774 0.483071 0.747943 -0.639033
C116  C     C_3   0.614383 0.562014 0.812489 -0.028950
H45   H     H_    0.643339 0.617770 0.803441 0.182014
H46   H     H_    0.657783 0.578066 0.878915 0.223686
H47   H     H_    0.550608 0.553966 0.807200 0.172748
N11   N     N_R   0.759592 0.565937 0.582928 0.242355
O49   O     O_R   0.749953 0.553081 0.507782 -0.321178
O50   O     O_R   0.762121 0.634887 0.633563 -0.373069
O51   O     O_3   0.885627 0.530721 0.557977 -0.489467
C117  C     C_3   0.848260 0.454209 0.478068 -0.081376
H48   H     H_    0.860899 0.473810 0.432748 0.234458
H49   H     H_    0.775343 0.413917 0.447432 0.120133
H50   H     H_    0.879605 0.414359 0.486107 0.138519
O52   O     O_3   0.904166 0.808238 0.720329 -0.516845
C118  C     C_3   0.989494 0.880722 0.784147 -0.192255
H51   H     H_    0.015967 0.875126 0.842480 0.162148
H52   H     H_    0.991255 0.944440 0.802287 0.152196
H53   H     H_    0.034065 0.880523 0.757375 0.216317
O53   O     O_3   0.983055 0.489335 0.662692 -0.576333
C119  C     C_3   0.977294 0.407104 0.638415 -0.079003
H54   H     H_    0.032004 0.409279 0.626185 0.247012
H55   H     H_    0.915186 0.354046 0.576751 0.147412
H56   H     H_    0.984853 0.392000 0.691156 0.189049
N12   N     N_R   0.716004 0.470999 0.872951 0.225638
O54   O     O_R   0.769652 0.527631 0.955524 -0.364071
O55   O     O_R   0.641043 0.405989 0.847601 -0.253091
O56   O     O_3   0.191204 0.793494 0.419302 -0.636307
C120  C     C_3   0.245578 0.755946 0.425759 -0.199279
H57   H     H_    0.261283 0.747758 0.373248 0.223446
H58   H     H_    0.212990 0.689928 0.417551 0.171154
H59   H     H_    0.308539 0.800793 0.488608 0.191617
N13   N     N_R   0.990301 0.733703 0.580753 0.242274
O57   O     O_R   0.022171 0.729498 0.650579 -0.328680
O58   O     O_R   0.911187 0.722509 0.548522 -0.283400
N14   N     N_R   0.015783 0.608675 0.269715 0.218756
O59   O     O_R   0.073039 0.589015 0.257375 -0.421939
O60   O     O_R   0.970706 0.568622 0.297207 -0.305334
N15   N     N_R   0.894931 0.714395 0.884281 0.182813
O61   O     O_R   0.912509 0.706374 0.822139 -0.354431
O62   O     O_R   0.814002 0.689297 0.866968 -0.450265
N16   N     N_R   0.431809 0.312070 0.891976 0.253019
O63   O     O_R   0.448348 0.256013 0.909037 -0.322843
O64   O     O_R   0.496731 0.381264 0.907837 -0.281087
N17   N     N_R   0.224782 0.407362 0.780018 0.219252
O65   O     O_R   0.146349 0.390161 0.729719 -0.379890
O66   O     O_R   0.291735 0.483226 0.810949 -0.387695
O67   O     O_3   0.838834 0.106154 0.600079 -0.580801
C121  C     C_3   0.811427 0.034542 0.612828 -0.211866
H60   H     H_    0.861863 0.014225 0.626696 0.148772
H61   H     H_    0.750429 0.978026 0.552205 0.194322
H62   H     H_    0.795537 0.049414 0.665709 0.193295
N18   N     N_R   0.685245 0.166755 0.820655 0.235540
O68   O     O_R   0.728277 0.143882 0.869594 -0.297762
O69   O     O_R   0.614706 0.165718 0.820070 -0.283066
O70   O     O_3   0.807158 0.270317 0.617150 -0.643724
C122  C     C_3   0.738252 0.241144 0.534716 -0.281123
H63   H     H_    0.713584 0.287991 0.539284 0.138524
H64   H     H_    0.683440 0.173474 0.504787 0.203614
H65   H     H_    0.764858 0.239379 0.490328 0.197701
O71   O     O_3   0.586362 0.616704 0.341267 -0.679388
C123  C     C_3   0.583393 0.540028 0.289312 -0.135153
H66   H     H_    0.514573 0.484970 0.253239 0.196362
H67   H     H_    0.625873 0.521459 0.327136 0.216784
H68   H     H_    0.599839 0.546358 0.240112 0.182660
O72   O     O_3   0.663446 0.813310 0.329330 -0.572500
C124  C     C_3   0.571343 0.766938 0.271954 -0.213701
H69   H     H_    0.554471 0.767984 0.210617 0.202597
H70   H     H_    0.541490 0.799379 0.303205 0.187663
H71   H     H_    0.540938 0.697948 0.256776 0.177765
N19   N     N_R   0.691729 0.832779 0.198263 0.236124
O73   O     O_R   0.713638 0.910399 0.255186 -0.321889
O74   O     O_R   0.644634 0.803962 0.115940 -0.322843

loop_
_geom_bond_atom_site_label_1
_geom_bond_atom_site_label_2
_geom_bond_distance
_ccdc_geom_bond_type
C11   C16   1.375495 A    
C42   C43   1.404105 A    
C108  C109  1.402247 A    
C25   C26   1.398432 A    
C77   C78   1.410828 A    
N5    O33   1.300516 A    
C98   N17   1.444772 S    
C96   C97   1.406237 A    
O20   C74   1.276246 A    
C103  C112  1.491639 S    
C24   H8    1.082253 S    
C33   C34   1.411649 A    
C113  H37   1.109027 S    
C65   C66   1.407114 A    
C115  H44   1.109021 S    
O45   C115  1.409446 S    
C17   O72   1.384129 S    
C116  H45   1.111139 S    
N10   O47   1.301744 A    
C54   C55   1.415598 A    
N7    O39   1.299893 A    
C92   C93   1.407573 A    
N16   O63   1.301613 A    
C59   N11   1.428599 S    
N2    O27   1.301650 A    
N3    O29   1.301635 A    
Zn1   O7    2.018255 S    
Zn3   O13   2.015728 S    
C48   C72   1.434259 S    
C103  C104  1.395052 A    
C47   N8    1.440704 S    
C3    C65   1.444640 S    
C56   H18   1.080594 S    
O4    C2    1.295074 A    
C8    C9    1.414076 A    
C13   C14   1.404450 A    
C20   C21   1.405417 A    
C21   C22   1.425391 A    
C115  H43   1.113796 S    
O53   C119  1.408472 S    
C53   C58   1.417533 A    
C44   H16   1.079436 S    
C50   O42   1.388831 S    
C57   H19   1.083676 S    
C15   C16   1.425710 A    
C19   C20   1.398189 A    
O7    C4    1.275514 A    
C113  H38   1.113069 S    
C123  H67   1.112024 S    
C120  H58   1.114505 S    
C89   H25   1.080823 S    
Zn4   O16   2.011873 S    
C67   C68   1.406028 A    
C12   C70   1.432457 S    
C30   C74   1.433441 S    
C35   C36   1.415152 A    
O18   Zn6   2.021144 S    
O11   Zn3   2.011786 S    
N16   O64   1.301653 A    
N14   O59   1.300613 A    
C107  H33   1.081970 S    
C73   C102  1.428769 S    
C44   C45   1.398625 A    
O5    C3    1.285874 A    
C110  H35   1.081515 S    
N10   O46   1.300664 A    
C83   C88   1.399188 A    
O16   C72   1.280063 A    
C39   N7    1.437091 S    
O17   Zn5   2.016719 S    
C69   C87   1.431779 S    
C97   C98   1.425299 A    
C37   N6    1.441949 S    
C95   H29   1.082351 S    
C91   H27   1.082145 S    
C109  C110  1.394817 A    
C14   O71   1.389511 S    
C29   C30   1.389599 A    
C122  H65   1.108558 S    
N13   O58   1.298570 A    
C41   C46   1.398250 A    
C99   C100  1.403793 A    
C121  H61   1.109344 S    
C111  C112  1.410046 A    
N6    O36   1.300999 A    
N18   O68   1.301534 A    
C17   C22   1.414150 A    
C95   C96   1.392923 A    
C117  H48   1.109435 S    
C80   H23   1.076277 S    
N12   O54   1.300849 A    
C6    C7    1.404290 A    
C62   H20   1.079399 S    
C53   N9    1.443198 S    
C35   C40   1.417748 A    
C23   N3    1.439593 S    
C120  H59   1.107820 S    
N2    O28   1.298650 A    
C42   H15   1.083114 S    
N19   O73   1.301314 A    
C38   H12   1.080685 S    
C5    C10   1.391814 A    
O1    Zn1   2.024847 S    
O70   C122  1.412955 S    
C77   H22   1.080666 S    
C123  H68   1.107569 S    
N8    O40   1.301122 A    
C24   C25   1.402809 A    
C121  H62   1.111512 S    
C104  C105  1.415329 A    
C64   C65   1.433474 A    
O3    Zn1   2.022495 S    
O56   C120  1.407978 S    
C97   C106  1.492311 S    
C107  C112  1.404826 A    
N11   O49   1.300968 A    
C90   C91   1.394841 A    
Zn6   O22   2.016803 S    
C90   H26   1.082360 S    
C101  C102  1.387351 A    
C49   C50   1.388615 A    
Zn5   O21   2.021269 S    
N6    O37   1.301124 A    
O9    Zn3   2.022351 S    
N12   O55   1.301010 A    
C96   H30   1.083302 S    
C119  H56   1.110657 S    
C38   C39   1.396931 A    
C47   C48   1.411503 A    
C57   C58   1.399139 A    
C30   C31   1.406812 A    
C124  H71   1.112388 S    
N1    O25   1.300236 A    
C115  H42   1.111804 S    
C81   N13   1.439487 S    
O48   C116  1.412432 S    
O3    C2    1.270744 A    
O52   C118  1.412203 S    
N17   O65   1.298772 A    
O20   Zn6   2.012730 S    
C114  H39   1.108609 S    
C105  C106  1.417473 A    
C45   C46   1.397641 A    
C51   C52   1.411543 A    
C6    H3    1.075832 S    
O23   C76   1.285466 A    
N7    O38   1.300304 A    
H13   C46   1.082709 S    
C85   C94   1.480206 S    
C120  H57   1.106434 S    
C50   C51   1.402313 A    
C55   C56   1.403016 A    
C117  H50   1.109845 S    
C60   O51   1.383335 S    
O42   C114  1.414562 S    
C36   O35   1.382750 S    
N14   O60   1.301058 A    
C20   H6    1.082765 S    
C124  H70   1.107888 S    
C98   C99   1.409325 A    
C48   C49   1.408882 A    
C92   N15   1.433120 S    
O21   C75   1.279129 A    
C14   C15   1.414233 A    
C93   C94   1.402458 A    
C118  H51   1.109632 S    
C62   C63   1.416479 A    
C100  N16   1.440225 S    
C119  H55   1.109744 S    
C99   H31   1.082122 S    
O51   C117  1.410521 S    
C13   C22   1.495779 S    
Zn2   O8    2.022495 S    
C66   O48   1.388767 S    
C21   N2    1.447711 S    
C66   C67   1.387066 A    
C7    C8    1.417854 A    
C12   C13   1.414727 A    
C117  H49   1.114448 S    
C18   C19   1.407802 A    
O71   C123  1.410189 S    
C111  O70   1.391809 S    
C63   C64   1.405070 A    
H1    C10   1.081854 S    
C31   C32   1.393499 A    
C59   C60   1.413676 A    
O11   C70   1.287636 A    
C49   C58   1.484898 S    
C79   C88   1.498445 S    
N17   O66   1.301735 A    
O19   C74   1.282371 A    
C80   C81   1.410860 A    
C101  C106  1.378133 A    
C68   C76   1.437374 S    
N15   O62   1.299481 A    
C23   C24   1.407492 A    
C2    C15   1.448502 S    
N8    O41   1.299856 A    
C29   H11   1.084129 S    
C47   C52   1.393600 A    
C118  H52   1.113019 S    
O72   C124  1.411419 S    
N11   O50   1.296313 A    
C67   N12   1.437940 S    
C104  O67   1.386616 S    
C122  H64   1.114279 S    
O15   C72   1.279234 A    
Zn2   O6    2.024847 S    
C71   C105  1.439957 S    
C61   C62   1.395286 A    
C79   C80   1.406884 A    
C116  H47   1.109217 S    
C83   N14   1.441928 S    
C18   N19   1.436646 S    
C26   H9    1.079843 S    
O24   C76   1.272971 A    
C101  H32   1.084654 S    
C107  C108  1.403977 A    
C78   O56   1.389679 S    
C25   C34   1.480501 S    
C89   C90   1.394556 A    
N15   O61   1.301186 A    
Zn3   O15   2.029278 S    
C27   H10   1.081712 S    
C102  C103  1.410181 A    
N5    O34   1.300716 A    
C119  H54   1.108161 S    
C121  H60   1.111044 S    
O13   C71   1.276908 A    
C43   C44   1.403339 A    
C5    C6    1.393897 A    
O2    Zn2   2.018152 S    
C9    H4    1.080984 S    
H21   C82   1.082480 S    
C53   C54   1.415543 A    
O6    C3    1.276465 A    
C116  H46   1.109172 S    
O4    Zn2   2.018255 S    
N1    O26   1.301312 A    
C86   H24   1.085502 S    
O14   C71   1.286534 A    
C32   C33   1.412839 A    
C81   C82   1.400784 A    
C7    C16   1.496790 S    
Zn5   O23   2.012854 S    
C11   C12   1.383686 A    
C91   C92   1.404250 A    
C84   C85   1.408066 A    
O10   Zn4   2.015599 S    
C93   H28   1.080880 S    
O19   Zn5   2.030131 S    
C56   C57   1.392658 A    
C75   C84   1.435990 S    
C124  H69   1.110267 S    
C123  H66   1.109330 S    
N13   O57   1.301831 A    
N19   O74   1.301342 A    
C78   C79   1.410015 A    
C11   H5    1.085949 S    
C45   H17   1.082236 S    
C108  N18   1.439690 S    
C29   C34   1.382861 A    
C87   C88   1.415438 A    
C17   C18   1.413702 A    
C113  H36   1.111072 S    
C23   C28   1.406355 A    
C86   C87   1.393431 A    
C36   C37   1.415680 A    
C54   O45   1.381276 S    
Zn4   O14   2.022435 S    
O22   C75   1.280128 A    
C114  H41   1.106574 S    
C118  H53   1.108646 S    
C41   H14   1.082265 S    
O10   C69   1.287595 A    
C1    C33   1.437721 S    
C110  C111  1.416188 A    
N3    O30   1.301523 A    
O2    C1    1.279355 A    
O12   Zn4   2.029023 S    
C9    C10   1.394749 A    
O18   C73   1.274128 A    
C4    C51   1.435148 S    
C32   N4    1.440659 S    
C39   C40   1.411807 A    
C77   C82   1.389985 A    
C37   C38   1.399622 A    
N4    O32   1.299857 A    
C19   N1    1.436952 S    
C85   C86   1.377730 A    
N9    O44   1.299545 A    
C109  H34   1.082620 S    
C8    O52   1.391077 S    
C27   C28   1.395589 A    
Zn1   O5    2.018152 S    
O8    C4    1.282292 A    
N4    O31   1.300889 A    
C55   N10   1.444259 S    
N9    O43   1.301299 A    
C43   C52   1.485884 S    
C114  H40   1.115610 S    
O35   C113  1.413060 S    
C61   O53   1.385777 S    
C95   C100  1.399522 A    
O12   C70   1.274219 A    
C59   C64   1.433074 A    
C122  H63   1.111123 S    
C83   C84   1.412311 A    
C35   N5    1.443758 S    
C31   C40   1.486320 S    
O1    C1    1.279684 A    
C60   C61   1.393812 A    
O67   C121  1.410579 S    
C63   C68   1.411308 A    
O9    C69   1.272404 A    
C26   C27   1.395836 A    
C89   C94   1.402414 A    
Zn6   O24   2.030213 S    
C5    H2    1.082320 S    
C41   C42   1.398981 A    
H7    C28   1.082696 S    
O17   C73   1.283905 A    
N18   O69   1.301415 A    
