data_mof_unit_44900.cif
_audit_creation_date              2012-12-10T17:57:24-0500
_audit_creation_method            fapswitch 2.2
_symmetry_space_group_name_H-M    P1
_symmetry_Int_Tables_number       1
_space_group_crystal_system       triclinic
_cell_length_a                    9.513825
_cell_length_b                    10.82944
_cell_length_c                    13.38152
_cell_angle_alpha                 89.995696
_cell_angle_beta                  73.681147
_cell_angle_gamma                 90.006457
_cell_volume                      1323.14648348

loop_
_atom_site_label
_atom_site_type_symbol
_atom_type_description
_atom_site_fract_x
_atom_site_fract_y
_atom_site_fract_z
_atom_type_partial_charge
C1    C     C_R   0.500254 0.737943 0.499401 0.818842
C2    C     C_R   0.444426 0.557689 0.973899 0.072025
C3    C     C_R   0.491232 0.568131 0.864486 0.010666
C4    C     C_R   0.548607 0.521976 0.026909 -0.038058
C5    C     C_R   0.698800 0.510558 0.969775 0.002433
C6    C     C_R   0.744171 0.555278 0.867566 -0.210767
C7    C     C_R   0.641562 0.593486 0.817280 -0.041571
C8    C     C_R   0.508397 0.489817 0.133169 0.400217
C9    C     C_R   0.762946 0.465540 0.128446 -0.321482
C10   C     C_R   0.384560 0.557754 0.808596 -0.087972
C11   C     C_R   0.627819 0.936171 0.499691 -0.136256
C12   C     C_R   0.424175 0.518437 0.698194 0.825206
C13   C     C_R   0.627694 0.063884 0.499973 -0.184430
C14   C     C_R   0.500237 0.128227 0.499269 -0.020250
C15   C     C_R   0.373008 0.063852 0.498014 -0.189675
C16   C     C_R   0.373062 0.936117 0.497925 -0.186646
C17   C     C_R   0.500396 0.871784 0.498955 0.000988
C18   C     C_R   0.952313 0.573069 0.432349 -0.023581
C19   C     C_R   0.101183 0.573004 0.432327 0.005846
C20   C     C_R   0.047758 0.426758 0.567446 0.006470
C21   C     C_R   0.898952 0.426607 0.567326 0.028880
C22   C     C_R   0.500032 0.262065 0.499805 0.785984
C23   C     C_R   0.576752 0.493512 0.300022 0.816541
C24   C     C_R   0.801443 0.464481 0.019395 -0.020039
C25   C     C_R   0.617536 0.484893 0.185848 -0.182617
C26   C     C_R   0.237634 0.582009 0.861129 -0.153090
C27   C     C_R   0.196867 0.606398 0.967517 -0.122084
C28   C     C_R   0.297510 0.589922 0.024523 -0.108099
Cu1   Cu    Cu3+1 0.359340 0.499980 0.500000 0.955857
Cu2   Cu    Cu3+1 0.640660 0.500020 0.500000 0.957116
H1    H     H_    0.844133 0.444386 0.168765 0.208059
H2    H     H_    0.727208 0.111937 0.500839 0.147528
H3    H     H_    0.273466 0.111894 0.497220 0.147667
H4    H     H_    0.273534 0.888044 0.497118 0.151694
H5    H     H_    0.917530 0.631798 0.378365 0.115206
H6    H     H_    0.178688 0.631609 0.378236 0.129855
H7    H     H_    0.082550 0.368050 0.621418 0.134300
H8    H     H_    0.821462 0.368009 0.621428 0.128557
H9    H     H_    0.859409 0.571307 0.830639 0.202350
H10   H     H_    0.154776 0.584105 0.819814 0.166652
H11   H     H_    0.259406 0.608145 0.106959 0.178438
H12   H     H_    0.084877 0.631549 0.006977 0.138420
H13   H     H_    0.727444 0.888153 0.500267 0.144333
N1    N     N_R   0.147940 0.499970 0.499970 -0.167592
N2    N     N_R   0.852060 0.500060 0.499990 -0.160006
O1    O     O_R   0.381250 0.680340 0.500010 -0.595345
O2    O     O_R   0.618820 0.680370 0.500010 -0.576614
O3    O     O_R   0.323240 0.499950 0.650980 -0.581712
O4    O     O_R   0.560810 0.499980 0.650980 -0.584095
O5    O     O_R   0.381180 0.319630 0.499990 -0.599129
O6    O     O_R   0.618750 0.319660 0.499990 -0.590889
O7    O     O_R   0.439190 0.500020 0.349020 -0.549727
O8    O     O_R   0.676760 0.500050 0.349020 -0.593306
C29   C     C_2   0.941165 0.403912 0.960901 0.828714
O9    O     O_2   0.029379 0.371635 0.006853 -0.624110
O10   O     O_R   0.967949 0.374849 0.855346 -0.790464
H14   H     H_    0.065645 0.332158 0.825602 0.330242
O11   O     O_3   0.364198 0.460743 0.184444 -0.627454
C30   C     C_3   0.348636 0.331311 0.199586 0.088452
H15   H     H_    0.245376 0.315251 0.262174 0.172584
H16   H     H_    0.437911 0.289665 0.227513 0.123512
C31   C     C_3   0.337687 0.265783 0.100459 -0.360607
H17   H     H_    0.251534 0.310610 0.071912 0.280818
H18   H     H_    0.443559 0.273441 0.038872 0.215518
C32   C     C_3   0.300510 0.129337 0.120741 -0.885822
H19   H     H_    0.386516 0.082388 0.148365 0.251098
H20   H     H_    0.294213 0.084449 0.047519 0.269927
H21   H     H_    0.193006 0.118739 0.180169 0.253239
C33   C     C_2   0.690011 0.683778 0.730521 0.890251
O12   O     O_2   0.601492 0.754996 0.711031 -0.615077
O13   O     O_R   0.837931 0.692026 0.674650 -0.776341
H22   H     H_    0.857103 0.758193 0.618841 0.320431

loop_
_geom_bond_atom_site_label_1
_geom_bond_atom_site_label_2
_ccdc_geom_bond_type
C7    C33   S    
C2    C4    A    
Cu2   O6    S    
C9    C24   A    
C11   H13   S    
C6    C7    A    
C20   H7    S    
C2    C3    A    
C18   H5    S    
C28   H11   S    
Cu2   N2    S    
C1    C17   S    
C14   C15   A    
C12   O3    A    
Cu1   O1    S    
C22   O5    A    
C32   H21   S    
C8    O11   S    
C10   C26   A    
C31   H17   S    
C31   H18   S    
C12   O4    A    
C26   C27   A    
C9    C25   A    
C30   H15   S    
C3    C10   A    
C13   C14   A    
O10   H14   S    
C8    C25   A    
C11   C13   A    
C27   H12   S    
C26   H10   S    
C23   O7    A    
Cu1   Cu2   S    
C5    C24   A    
C10   C12   S    
Cu1   O5    S    
C27   C28   A    
C5    C6    A    
C1    O2    A    
C20   N1    A    
Cu2   O4    S    
C23   O8    A    
C3    C7    A    
C21   N2    A    
C19   H6    S    
C23   C25   S    
Cu1   N1    S    
C33   O12   D    
Cu2   O8    S    
C29   O10   S    
C1    O1    A    
C30   H16   S    
C9    H1    S    
Cu1   O3    S    
C24   C29   S    
C15   C16   A    
C18   N2    A    
C19   N1    A    
Cu2   O2    S    
O13   H22   S    
C18   C19   A    
C20   C21   A    
C14   C22   S    
C32   H19   S    
C4    C8    A    
C33   O13   S    
C29   O9    D    
C16   C17   A    
C30   C31   S    
C2    C28   A    
C13   H2    S    
C31   C32   S    
C16   H4    S    
O11   C30   S    
C6    H9    S    
C4    C5    A    
C15   H3    S    
C11   C17   A    
C21   H8    S    
C22   O6    A    
C32   H20   S    
Cu1   O7    S    
