data_mof_unit_8326.cif
_audit_creation_date              2012-12-11T15:48:52-0500
_audit_creation_method            fapswitch 2.2
_symmetry_space_group_name_H-M    P1
_symmetry_Int_Tables_number       1
_space_group_crystal_system       triclinic
_cell_length_a                    11.028258
_cell_length_b                    10.986022
_cell_length_c                    18.818298
_cell_angle_alpha                 90.51753
_cell_angle_beta                  89.971048
_cell_angle_gamma                 60.591385
_cell_volume                      1986.05363019

loop_
_atom_site_label
_atom_site_type_symbol
_atom_type_description
_atom_site_fract_x
_atom_site_fract_y
_atom_site_fract_z
_atom_type_partial_charge
C1    C     C_R   0.241280 0.644953 0.610867 0.539522
C2    C     C_R   0.568332 0.153462 0.711569 -0.204066
C3    C     C_R   0.570288 0.154721 0.784549 -0.200601
C4    C     C_R   0.657093 0.624811 0.599109 0.559778
C5    C     C_3   0.934842 0.062452 0.774282 -0.235807
C6    C     C_3   0.918685 0.090804 0.694882 -0.034919
C7    C     C_R   0.662705 0.176476 0.673246 0.037097
C8    C     C_R   0.185748 0.670636 0.836317 0.046354
C9    C     C_R   0.170697 0.571106 0.796803 -0.027120
C10   C     C_R   0.180036 0.566234 0.722889 0.018533
C11   C     C_R   0.209758 0.767684 0.725466 -0.169261
C12   C     C_3   0.681207 0.573890 0.800681 0.327221
C13   C     C_R   0.213710 0.766482 0.799729 0.057436
C14   C     C_3   0.261760 0.417740 0.802105 -0.285028
C15   C     C_3   0.274919 0.413882 0.722174 -0.238637
C16   C     C_R   0.627099 0.229045 0.602135 0.554533
C17   C     C_R   0.198321 0.664758 0.685817 -0.025875
C18   C     C_R   0.668502 0.681631 0.173012 0.007854
C19   C     C_R   0.763812 0.560581 0.207084 0.028836
C20   C     C_R   0.764207 0.548943 0.279185 0.031267
C21   C     C_R   0.582381 0.788016 0.290081 -0.161432
C22   C     C_R   0.582968 0.799931 0.215540 -0.158848
C23   C     C_3   0.728452 0.687069 0.807653 0.040029
C24   C     C_3   0.796934 0.413731 0.193660 -0.277338
C25   C     C_3   0.796066 0.400275 0.273491 -0.253960
C26   C     C_R   0.667120 0.658005 0.321818 0.012317
C27   C     C_R   0.667487 0.127443 0.181447 0.004334
C28   C     C_R   0.223271 0.648550 0.401056 0.542511
C29   C     C_R   0.556276 0.131442 0.217787 -0.020068
C30   C     C_R   0.548261 0.143829 0.290401 0.070980
C31   C     C_R   0.778242 0.118551 0.294641 -0.178189
C32   C     C_R   0.784393 0.108980 0.220670 -0.157612
C33   C     C_3   0.404765 0.226244 0.206955 -0.240498
C34   C     C_3   0.684475 0.654104 0.673173 0.052257
C35   C     C_3   0.394283 0.242972 0.286933 0.116581
C36   C     C_R   0.653138 0.152198 0.329017 -0.000874
C37   C     C_R   0.153957 0.664113 0.180916 0.014705
C38   C     C_R   0.226752 0.724289 0.212039 0.003391
C39   C     C_R   0.238278 0.724407 0.284106 0.018144
C40   C     C_R   0.643590 0.623203 0.393063 0.537017
C41   C     C_R   0.128617 0.582743 0.296861 -0.167221
C42   C     C_R   0.114203 0.583561 0.223084 -0.160955
C43   C     C_3   0.211753 0.867511 0.206951 -0.255849
C44   C     C_3   0.219500 0.868306 0.287052 -0.226590
C45   C     C_3   0.843622 0.603023 0.686398 0.105219
C46   C     C_R   0.182908 0.661953 0.327879 0.012564
C47   C     C_R   0.703673 0.096883 0.894725 0.551338
C48   C     C_R   0.753669 0.708307 0.883207 0.572126
C49   C     C_R   0.120013 0.706214 0.906497 0.551369
C50   C     C_R   0.678703 0.099571 0.106055 0.554611
C51   C     C_R   0.698448 0.692885 0.098893 0.562083
C52   C     C_R   0.617519 0.226121 0.396304 0.532633
C53   C     C_R   0.092333 0.709571 0.112376 0.555890
C54   C     C_3   0.620447 0.828138 0.774458 -0.287939
C55   C     C_3   0.605947 0.813040 0.693446 -0.085026
C56   C     C_3   0.636682 0.572074 0.722931 -0.161880
C57   C     C_3   0.863782 0.638526 0.763837 -0.201769
C58   C     C_R   0.684044 0.148573 0.821827 0.017098
C59   C     C_R   0.783954 0.161211 0.782109 0.069679
C60   C     C_R   0.768725 0.184234 0.709140 0.089226
Cl1   Cl    Cl    0.959531 0.419589 0.670202 -0.630281
Cl2   Cl    Cl    0.294718 0.173034 0.326442 -0.667444
Cl3   Cl    Cl    0.821713 0.403747 0.822603 -0.596276
Cr1   Cr    Cr6+3 0.392960 0.397920 0.502240 1.074861
Cr2   Cr    Cr6+3 0.398340 0.708480 0.501250 1.055331
Cr3   Cr    Cr6+3 0.708670 0.393570 0.496460 1.067606
Cr4   Cr    Cr6+3 0.937650 0.938540 0.007610 1.024103
Cr5   Cr    Cr6+3 0.625330 0.937370 0.994520 1.020403
Cr6   Cr    Cr6+3 0.937940 0.625230 0.001190 1.043552
H1    H     H_    0.660445 0.901185 0.782862 0.125274
H2    H     H_    0.518185 0.873645 0.801913 0.145694
H3    H     H_    0.204379 0.365193 0.821962 0.172349
H4    H     H_    0.359249 0.391610 0.830937 0.144034
H5    H     H_    0.377551 0.394768 0.703128 0.156884
H6    H     H_    0.231644 0.353928 0.694903 0.206353
H7    H     H_    0.512807 0.877365 0.322251 0.182437
H8    H     H_    0.516835 0.900086 0.191454 0.151695
H9    H     H_    0.901871 0.349366 0.169510 0.153363
H10   H     H_    0.710993 0.406248 0.166763 0.140608
H11   H     H_    0.707668 0.387872 0.292839 0.155336
H12   H     H_    0.680647 0.462455 0.703950 0.181574
H13   H     H_    0.899886 0.326335 0.295554 0.171742
H14   H     H_    0.863912 0.116983 0.323477 0.133681
H15   H     H_    0.877678 0.094131 0.194284 0.139058
H16   H     H_    0.352600 0.170081 0.184410 0.173761
H17   H     H_    0.382506 0.323677 0.178901 0.111639
H18   H     H_    0.366147 0.349756 0.305252 0.152860
H19   H     H_    0.095230 0.523561 0.329326 0.170456
H20   H     H_    0.061214 0.531766 0.200179 0.156599
H21   H     H_    0.109771 0.949747 0.187558 0.158789
H22   H     H_    0.657049 0.864344 0.664838 0.153141
H23   H     H_    0.951015 0.547055 0.789325 0.226461
H24   H     H_    0.302925 0.865068 0.180443 0.143868
H25   H     H_    0.312260 0.870159 0.307551 0.185917
H26   H     H_    0.119789 0.944722 0.312910 0.152338
H27   H     H_    0.892035 0.722902 0.763546 0.047396
H28   H     H_    0.878141 0.658958 0.649611 0.122343
H29   H     H_    0.522254 0.615897 0.719590 0.079720
H30   H     H_    0.031126 0.937785 0.620715 0.264048
H31   H     H_    0.938342 0.893270 0.677806 0.230755
H32   H     H_    0.158866 0.944434 0.859370 0.265411
H33   H     H_    0.284768 0.908231 0.802004 0.195358
H34   H     H_    0.484068 0.147702 0.685541 0.149214
H35   H     H_    0.410136 0.842025 0.701047 0.230956
H36   H     H_    0.413460 0.989694 0.688167 0.222562
H37   H     H_    0.529104 0.533427 0.838947 0.236118
H38   H     H_    0.488874 0.701971 0.844823 0.247325
H39   H     H_    0.488510 0.143842 0.810511 0.155740
H40   H     H_    0.958049 0.956556 0.790519 0.132476
H41   H     H_    0.995694 0.106347 0.799701 0.175990
H42   H     H_    0.971011 0.148108 0.674598 0.216415
H43   H     H_    0.217603 0.849435 0.698505 0.146659
N1    N     N_3   0.938280 0.974043 0.648880 -0.646747
N2    N     N_3   0.247244 0.861446 0.837151 -0.630792
N3    N     N_3   0.459697 0.884929 0.672521 -0.592333
N4    N     N_3   0.568754 0.600489 0.850635 -0.543080
O1    O     O_R   0.507380 0.255700 0.581440 -0.531892
O2    O     O_R   0.837170 0.593410 0.915250 -0.434582
O3    O     O_R   0.065200 0.635530 0.931570 -0.523207
O4    O     O_R   0.280320 0.527350 0.578930 -0.488412
O5    O     O_R   0.068260 0.828890 0.091840 -0.525661
O6    O     O_R   0.798870 0.057410 0.079340 -0.507840
O7    O     O_R   0.584930 0.080350 0.076780 -0.516441
O8    O     O_R   0.626960 0.809650 0.067060 -0.500884
O9    O     O_R   0.816040 0.596610 0.076510 -0.506109
O10   O     O_R   0.045610 0.638500 0.081060 -0.513334
O11   O     O_3   0.833640 0.833710 0.001100 -0.289863
O12   O     O_R   0.524480 0.695810 0.424040 -0.502420
O13   O     O_R   0.260510 0.739590 0.584590 -0.529706
O14   O     O_R   0.532300 0.695080 0.573820 -0.469277
O15   O     O_R   0.744840 0.503500 0.576370 -0.458366
O16   O     O_R   0.699120 0.276560 0.571960 -0.483126
O17   O     O_R   0.498940 0.256500 0.419860 -0.480345
O18   O     O_R   0.272500 0.528080 0.429150 -0.495006
O19   O     O_R   0.252060 0.740380 0.423010 -0.511992
O20   O     O_R   0.736390 0.504290 0.414790 -0.510314
O21   O     O_R   0.691300 0.277290 0.422170 -0.515000
O22   O     O_3   0.499990 0.499990 0.499980 -0.286371
O23   O     O_R   0.089400 0.825690 0.930570 -0.511180
O24   O     O_R   0.818460 0.054440 0.929850 -0.488053
O25   O     O_R   0.606060 0.077150 0.915510 -0.542314
O26   O     O_R   0.646550 0.806680 0.917570 -0.498775

loop_
_geom_bond_atom_site_label_1
_geom_bond_atom_site_label_2
_ccdc_geom_bond_type
C21   H7    S    
C15   H6    S    
C21   C26   A    
C34   C56   S    
C8    C13   A    
C51   O8    A    
C57   H23   S    
C27   C29   A    
C25   H11   S    
C6    H42   S    
C2    C7    A    
C50   O6    A    
C56   H29   S    
C43   C44   S    
Cr5   O8    S    
Cr2   O14   S    
C56   H12   S    
Cr1   O22   S    
C40   O20   A    
C12   C23   S    
C45   C57   S    
C29   C30   A    
C55   N3    S    
C30   C35   S    
C28   O18   A    
C1    O13   A    
C10   C15   S    
C31   C36   A    
C5    C6    S    
C20   C25   S    
C10   C17   A    
H32   N2    S    
C40   O12   A    
C29   C33   S    
Cr6   O2    S    
C31   H14   S    
C18   C19   A    
C41   C42   A    
C37   C42   A    
C33   H16   S    
C55   H22   S    
C33   C35   S    
Cr1   O17   S    
C35   H18   S    
C54   H2    S    
C19   C20   A    
C8    C9    A    
C57   H27   S    
Cr3   O22   S    
C47   O24   A    
C41   C46   A    
Cr5   O26   S    
Cr4   O23   S    
C9    C10   A    
C13   N2    S    
C36   C52   S    
C27   C50   S    
C4    O14   A    
C37   C53   S    
C11   H43   S    
Cr6   O9    S    
C34   C55   S    
C21   C22   A    
C52   O17   A    
Cr4   O5    S    
Cr5   O7    S    
C18   C51   S    
C4    O15   A    
Cr3   O16   S    
C32   H15   S    
Cr1   O18   S    
C43   H21   S    
C5    C59   S    
C51   O9    A    
Cr2   O12   S    
C6    C60   S    
C24   C25   S    
C22   H8    S    
C12   Cl3   S    
C48   O2    A    
C58   C59   A    
Cr6   O3    S    
Cr1   O1    S    
H37   N4    S    
C1    O4    A    
C33   H17   S    
C14   H4    S    
C6    N1    S    
C37   C38   A    
H33   N2    S    
Cr4   O11   S    
H35   N3    S    
C24   H10   S    
C31   C32   A    
C54   H1    S    
C28   C46   S    
C52   O21   A    
C9    C14   S    
C48   O26   A    
Cr5   O25   S    
C34   C45   S    
C12   C56   S    
Cr4   O24   S    
Cr5   O11   S    
Cr2   O19   S    
C39   C46   A    
Cr3   O20   S    
Cr2   O22   S    
C24   H9    S    
C7    C16   S    
Cr6   O10   S    
C49   O23   A    
C25   H13   S    
C50   O7    A    
Cr4   O6    S    
C7    C60   A    
C23   C54   S    
Cr3   O15   S    
C23   C57   S    
C41   H19   S    
C54   C55   S    
C11   C17   A    
C23   C48   S    
C27   C32   A    
C18   C22   A    
C14   H3    S    
H36   N3    S    
H31   N1    S    
C28   O19   A    
H30   N1    S    
Cr2   O13   S    
C39   C44   S    
C3    H39   S    
C47   O25   A    
C49   O3    A    
C1    C17   S    
Cr1   O4    S    
C30   C36   A    
C42   H20   S    
C2    C3    A    
C38   C43   S    
C44   H26   S    
C45   H28   S    
C16   O1    A    
C47   C58   S    
C11   C13   A    
C26   C40   S    
C38   C39   A    
Cr3   O21   S    
C20   C26   A    
C2    H34   S    
C45   Cl1   S    
C43   H24   S    
C19   C24   S    
C35   Cl2   S    
C4    C34   S    
C16   O16   A    
H38   N4    S    
C44   H25   S    
C53   O10   A    
C3    C58   A    
C59   C60   A    
C15   H5    S    
Cr6   O11   S    
C5    H41   S    
C14   C15   S    
C53   O5    A    
C5    H40   S    
C8    C49   S    
C12   N4    S    
