data_mof_unit_29085.cif
_audit_creation_date              2013-03-05T16:03:01-0500
_audit_creation_method            fapswitch 2.2
_symmetry_space_group_name_H-M    P1
_symmetry_Int_Tables_number       1
_space_group_crystal_system       triclinic
_cell_length_a                    7.029531
_cell_length_b                    18.561155
_cell_length_c                    20.005871
_cell_angle_alpha                 68.31374
_cell_angle_beta                  92.499879
_cell_angle_gamma                 91.26118
_cell_volume                      2423.17997017

loop_
_atom_site_label
_atom_site_type_symbol
_atom_site_description
_atom_site_fract_x
_atom_site_fract_y
_atom_site_fract_z
_atom_type_partial_charge
O1    O     O_R   0.488990 0.443920 0.942160 -0.610825
O2    O     O_R   0.823840 0.406530 0.087600 -0.519958
O3    O     O_R   0.999650 0.556080 0.057840 -0.558864
C1    C     C_R   0.658276 0.380728 0.113175 0.971484
O4    O     O_R   0.818390 0.434590 0.944530 -0.552114
O5    O     O_R   0.994160 0.584350 0.913750 -0.612803
C2    C     C_R   0.646864 0.421256 0.923744 0.956454
O6    O     O_R   0.494480 0.415650 0.086250 -0.568321
O7    O     O_3   0.662600 0.549100 0.990070 -0.276273
V1    V     V_3+5 0.935320 0.490890 0.001840 1.305649
O8    O     O_R   0.324240 0.593470 0.912400 -0.602050
C3    C     C_R   0.153527 0.614585 0.883938 0.895667
O9    O     O_R   0.329690 0.565410 0.055470 -0.553450
C4    C     C_R   0.164482 0.579850 0.075385 0.994893
V2    V     V_3+5 0.435990 0.509110 0.998160 1.261230
O10   O     O_3   0.158840 0.450900 0.009930 -0.228858
C5    C     C_3   0.097309 0.650795 0.286923 -0.005892
C6    C     C_3   0.351414 0.750542 0.214099 0.502305
C7    C     C_3   0.317152 0.804038 0.259833 -0.317283
H1    H     H_    0.302313 0.865270 0.222865 0.178514
C8    C     C_1   0.100136 0.872885 0.380658 -0.166223
C9    C     C_3   0.154733 0.709446 0.207540 -0.003456
C10   C     C_3   0.102342 0.696082 0.342383 -0.011415
C11   C     C_3   0.120119 0.786098 0.297507 0.141612
C12   C     C_3   0.957064 0.807892 0.236797 -0.234880
C13   C     C_3   0.999661 0.775846 0.175595 -0.077855
C14   C     C_1   0.102579 0.833681 0.343633 -0.016856
C15   C     C_1   0.164385 0.664004 0.158692 0.120761
C16   C     C_1   0.165110 0.626063 0.120326 -0.163031
H2    H     H_    0.828139 0.776918 0.262835 0.217964
H3    H     H_    0.467130 0.561654 0.693466 0.228173
C17   C     C_R   0.985981 0.756845 0.877265 -0.294661
C18   C     C_R   0.940738 0.826778 0.882606 -0.042125
C19   C     C_R   0.982087 0.896195 0.826506 0.325067
C20   C     C_R   0.049285 0.895107 0.761210 0.150591
C21   C     C_R   0.077378 0.822991 0.752615 -0.072622
C22   C     C_R   0.063976 0.753602 0.814673 0.108147
C23   C     C_R   0.130681 0.818057 0.686195 -0.218006
C24   C     C_R   0.210619 0.748017 0.687134 0.076161
C25   C     C_R   0.219255 0.681399 0.751901 0.130130
C26   C     C_R   0.139755 0.683305 0.815187 -0.226476
C27   C     C_R   0.290839 0.744105 0.624839 -0.302570
C28   C     C_R   0.392603 0.679272 0.627233 0.399783
C29   C     C_R   0.395217 0.613454 0.690588 -0.177361
C30   C     C_R   0.306703 0.613748 0.751470 -0.230409
H4    H     H_    0.966401 0.705763 0.924855 0.152835
H5    H     H_    0.282091 0.792351 0.574066 0.154653
H6    H     H_    0.311798 0.560773 0.798571 0.143474
H7    H     H_    0.525778 0.478715 0.300735 0.189053
C31   C     C_R   0.791755 0.219727 0.135342 0.276517
C32   C     C_R   0.782925 0.144688 0.134876 -0.201960
C33   C     C_R   0.696501 0.085558 0.189333 -0.240391
C34   C     C_R   0.628579 0.098552 0.248252 0.339446
C35   C     C_R   0.644887 0.173686 0.252480 -0.036374
C36   C     C_R   0.701747 0.237092 0.190256 -0.046712
C37   C     C_R   0.605620 0.186576 0.316450 -0.213968
C38   C     C_R   0.576639 0.264380 0.312792 0.062606
C39   C     C_R   0.617371 0.328021 0.247645 -0.022044
C40   C     C_R   0.664693 0.314439 0.184866 -0.195393
C41   C     C_R   0.504264 0.282017 0.370966 -0.021562
C42   C     C_R   0.472432 0.359328 0.363168 0.026069
C43   C     C_R   0.532276 0.419721 0.302654 -0.276135
C44   C     C_R   0.615178 0.404833 0.247491 0.309949
H8    H     H_    0.848908 0.131438 0.092870 0.200929
H9    H     H_    0.683557 0.028681 0.186092 0.179494
O11   O     O_R   0.770890 0.084490 0.414040 -0.595283
O12   O     O_R   0.445980 0.065450 0.555510 -0.573186
O13   O     O_R   0.270670 0.915620 0.586180 -0.580638
C45   C     C_R   0.617357 0.079389 0.575900 0.996311
O14   O     O_R   0.441480 0.093500 0.412450 -0.561952
O15   O     O_R   0.266140 0.943870 0.442100 -0.541985
C46   C     C_R   0.607624 0.118500 0.386484 0.966494
O16   O     O_R   0.775410 0.056240 0.558120 -0.571535
O17   O     O_3   0.602660 0.950990 0.510100 -0.252143
V3    V     V_3+5 0.329740 0.009100 0.498130 1.282656
O18   O     O_R   0.936120 0.934420 0.444240 -0.573118
C47   C     C_R   0.101273 0.919980 0.424603 1.011731
O19   O     O_R   0.940610 0.906370 0.587310 -0.592563
C48   C     C_R   0.111793 0.885622 0.616318 0.988659
V4    V     V_3+5 0.829110 0.990690 0.501470 1.273873
O20   O     O_3   0.106080 0.049010 0.489880 -0.283213
C49   C     C_3   0.848704 0.230458 0.724105 -0.346201
C50   C     C_3   0.541319 0.296073 0.659694 -0.038784
C51   C     C_3   0.541893 0.344769 0.711084 0.059336
H10   H     H_    0.914795 0.270200 0.674703 0.110677
H11   H     H_    0.391870 0.352301 0.721383 0.075294
C52   C     C_1   0.633466 0.377333 0.876865 -0.169084
C53   C     C_3   0.639106 0.214805 0.701755 0.179388
C54   C     C_3   0.848502 0.272194 0.780943 0.330939
C55   C     C_3   0.636650 0.296787 0.787900 -0.007916
C56   C     C_3   0.507949 0.221811 0.817698 -0.181766
C57   C     C_3   0.530987 0.170494 0.772099 -0.378253
C58   C     C_1   0.631188 0.341235 0.836980 0.134833
C59   C     C_1   0.636593 0.166781 0.655899 0.034494
C60   C     C_1   0.631050 0.126953 0.619417 -0.177093
H12   H     H_    0.606082 0.116190 0.804800 0.241949
H13   H     H_    0.388671 0.150587 0.759293 0.193726
H14   H     H_    0.355985 0.239343 0.811785 0.147052
N1    N     N_3   0.265864 0.671369 0.394468 -0.133908
H15   H     H_    0.272101 0.704884 0.426485 0.163227
H16   H     H_    0.245405 0.614677 0.430672 0.135575
N2    N     N_3   0.904485 0.619585 0.281939 -0.136728
H17   H     H_    0.899735 0.593107 0.244014 0.187420
H18   H     H_    0.872828 0.574629 0.330171 0.135112
N3    N     N_3   0.926037 0.680297 0.383437 -0.166195
H19   H     H_    0.928391 0.710106 0.418723 0.148089
H20   H     H_    0.920760 0.621710 0.416795 0.136393
N4    N     N_3   0.907104 0.890734 0.210016 -0.210259
H21   H     H_    0.815052 0.904445 0.164769 0.169414
H22   H     H_    0.026669 0.926791 0.196705 0.137163
N5    N     N_3   0.871960 0.827261 0.948788 -0.146498
H23   H     H_    0.744061 0.795926 0.958950 0.159664
H24   H     H_    0.970557 0.797867 0.990030 0.123180
N6    N     N_R   0.977703 0.967133 0.839314 0.246892
O21   O     O_R   0.831088 0.983212 0.868736 -0.373632
O22   O     O_R   0.134247 0.006930 0.835721 -0.358295
N7    N     N_R   0.114995 0.966466 0.709068 0.235441
O23   O     O_R   0.001565 0.025544 0.683870 -0.433442
O24   O     O_R   0.296760 0.977273 0.699394 -0.391904
N8    N     N_R   0.498364 0.681846 0.566233 0.227147
O25   O     O_R   0.604736 0.623924 0.569943 -0.334551
O26   O     O_R   0.507790 0.745582 0.509760 -0.440902
N9    N     N_3   0.228428 0.584059 0.313700 -0.156683
H25   H     H_    0.184038 0.544882 0.363226 0.082587
H26   H     H_    0.220040 0.552778 0.279656 0.137610
N10   N     N_R   0.925865 0.271578 0.089397 0.230871
O27   O     O_R   0.075221 0.292545 0.118711 -0.359060
O28   O     O_R   0.930126 0.278333 0.022444 -0.367479
N11   N     N_R   0.518932 0.037748 0.297410 0.217542
O29   O     O_R   0.335784 0.046300 0.297461 -0.415645
O30   O     O_R   0.591651 0.968944 0.328184 -0.432241
N12   N     N_3   0.457275 0.222606 0.437740 -0.204480
H27   H     H_    0.312004 0.226009 0.445396 0.145711
H28   H     H_    0.533877 0.233361 0.479085 0.083910
N13   N     N_3   0.386580 0.376276 0.419273 -0.219523
H29   H     H_    0.258751 0.405073 0.398216 0.116653
H30   H     H_    0.476164 0.414673 0.433119 0.117037
N14   N     N_R   0.725178 0.465931 0.198686 0.211174
O31   O     O_R   0.909583 0.459661 0.201710 -0.445783
O32   O     O_R   0.647673 0.532631 0.162227 -0.366700
N15   N     N_3   0.970082 0.342081 0.755591 -0.170485
H31   H     H_    0.111780 0.325103 0.765003 0.090844
H32   H     H_    0.954450 0.371704 0.700083 0.128095
N16   N     N_R   0.416447 0.800046 0.141632 0.192512
O33   O     O_R   0.481282 0.870152 0.128423 -0.482858
O34   O     O_R   0.420381 0.773251 0.089985 -0.408914
N17   N     N_3   0.343241 0.283182 0.638694 -0.206657
H33   H     H_    0.281009 0.336491 0.607946 0.123600
H34   H     H_    0.261338 0.260805 0.684070 0.086564
N18   N     N_3   0.643742 0.336263 0.592667 -0.206026
H35   H     H_    0.763109 0.366701 0.601016 0.128273
H36   H     H_    0.556491 0.377420 0.554659 0.157753
N19   N     N_R   0.607845 0.425522 0.675891 0.232118
O35   O     O_R   0.516597 0.469170 0.617451 -0.395454
O36   O     O_R   0.717485 0.459493 0.709559 -0.425265
N20   N     N_3   0.544661 0.176908 0.894608 -0.119737
H37   H     H_    0.459920 0.126807 0.909293 0.194170
H38   H     H_    0.496708 0.208360 0.924406 0.151004
N21   N     N_3   0.970743 0.161539 0.747596 -0.141174
H39   H     H_    0.888464 0.111423 0.766622 0.243341
H40   H     H_    0.038064 0.158444 0.703124 0.162362
N22   N     N_R   0.926432 0.222001 0.853094 0.247012
O37   O     O_R   0.011284 0.253594 0.894705 -0.369074
O38   O     O_R   0.905188 0.146977 0.878341 -0.340121
N23   N     N_R   0.496368 0.689612 0.247178 0.215378
O39   O     O_R   0.560909 0.670950 0.313239 -0.426199
O40   O     O_R   0.537294 0.643905 0.213885 -0.394786
N24   N     N_3   0.480858 0.804065 0.308315 -0.138277
H41   H     H_    0.584531 0.840428 0.276914 0.160944
H42   H     H_    0.449371 0.829723 0.344788 0.202526
N25   N     N_3   0.825553 0.742198 0.156788 -0.141331
H43   H     H_    0.736276 0.788287 0.132591 0.209730
H44   H     H_    0.847676 0.722153 0.115365 0.141467
N26   N     N_3   0.062723 0.838225 0.108713 -0.171557
H45   H     H_    0.948387 0.866065 0.074392 0.139438
H46   H     H_    0.134537 0.882720 0.119126 0.173751

loop_
_geom_bond_atom_site_label_1
_geom_bond_atom_site_label_2
_geom_bond_distance
_ccdc_geom_bond_type
C10   N1    1.477487 S    
N25   H43   1.025222 S    
C25   C26   1.418539 A    
N10   O27   1.301781 A    
C36   C40   1.428353 A    
N17   H33   1.046230 S    
C11   C14   1.504605 S    
C1    O6    1.325427 A    
C41   N12   1.429491 S    
N6    O21   1.301541 A    
C55   C56   1.577673 S    
N9    H25   1.045169 S    
N23   O39   1.299506 A    
C34   C35   1.429847 A    
C37   C38   1.437328 A    
O13   V3    2.014741 S    
N25   H44   1.044520 S    
C5    C10   1.619697 S    
C49   C54   1.595065 S    
C15   C16   1.218631 T    
N17   H34   1.041375 S    
C51   H11   1.104944 S    
C6    C7    1.606940 S    
N15   H32   1.043228 S    
N21   H39   1.038525 S    
O5    C3    1.307261 A    
C23   C24   1.421041 A    
O19   V4    1.990770 S    
N9    H26   1.044835 S    
C23   C48   1.496686 S    
C13   N26   1.487141 S    
V2    O10   2.185809 S    
C10   N3    1.480330 S    
C57   H12   1.108408 S    
N4    H21   1.043451 S    
C19   C20   1.415513 A    
C34   N11   1.429172 S    
N26   H45   1.045171 S    
O8    V2    1.990893 S    
N20   H38   1.045566 S    
C5    N9    1.479082 S    
O11   C46   1.318744 A    
C53   C57   1.563625 S    
N12   H27   1.045899 S    
C37   C46   1.500180 S    
C10   C11   1.582776 S    
N21   H40   1.046190 S    
C45   O16   1.309199 A    
O1    V2    1.978929 S    
N19   O36   1.300936 A    
C6    C9    1.588175 S    
O7    V1    2.182163 S    
N22   O38   1.301602 A    
C42   C43   1.385599 A    
C49   C53   1.573174 S    
C28   N8    1.441805 S    
C50   N18   1.481311 S    
O13   C48   1.305423 A    
N24   H42   1.041048 S    
C50   C53   1.585261 S    
C8    C14   1.215921 T    
N23   O40   1.300461 A    
O17   V4    1.727734 S    
O9    C4    1.308525 A    
N2    H17   1.044491 S    
C51   C55   1.588658 S    
C12   H2    1.104594 S    
C9    C15   1.512793 S    
C6    N23   1.481226 S    
N8    O26   1.302170 A    
C57   H13   1.111001 S    
C31   C32   1.396290 A    
C24   C27   1.416475 A    
C35   C37   1.425225 A    
C25   C30   1.413195 A    
C53   C59   1.496228 S    
O17   V3    2.182077 S    
C32   C33   1.380307 A    
C18   N5    1.432382 S    
N13   H29   1.045138 S    
O18   C47   1.305860 A    
N16   O34   1.303307 A    
H3    C29   1.077591 S    
C56   C57   1.558050 S    
O4    C2    1.306589 A    
O19   C48   1.314317 A    
V3    O20   1.728050 S    
C38   C41   1.435628 A    
C12   C13   1.587657 S    
C41   C42   1.406853 A    
O12   C45   1.306157 A    
C20   C21   1.430040 A    
O2    C1    1.300758 A    
C5    N2    1.476186 S    
C3    C26   1.491763 S    
N3    H20   1.045623 S    
C51   N19   1.474875 S    
C50   C51   1.600062 S    
C31   C36   1.429131 A    
C43   C44   1.386519 A    
C18   C19   1.395530 A    
N5    H24   1.045398 S    
N26   H46   1.039209 S    
C17   C22   1.410421 A    
C11   C12   1.577471 S    
N2    H18   1.045172 S    
O3    C4    1.310298 A    
N14   O32   1.299704 A    
C31   N10   1.428894 S    
N12   H28   1.045178 S    
N24   H41   1.042221 S    
N1    H16   1.044852 S    
C13   N25   1.459245 S    
O6    V2    1.998225 S    
O9    V2    1.989850 S    
C28   C29   1.397801 A    
C9    C13   1.591213 S    
C44   N14   1.430473 S    
C50   N17   1.476855 S    
C20   N7    1.431726 S    
O12   V3    1.961447 S    
C27   C28   1.398013 A    
C4    C16   1.453823 S    
O2    V1    2.021726 S    
C54   N22   1.487016 S    
O15   C47   1.311109 A    
C29   C30   1.393519 A    
C42   N13   1.432276 S    
C55   C58   1.499858 S    
N22   O37   1.301800 A    
C30   H6    1.081624 S    
C39   C44   1.425007 A    
N13   H30   1.045057 S    
C35   C36   1.426331 A    
N20   H37   1.046379 S    
N10   O28   1.299994 A    
H7    C43   1.083298 S    
N5    H23   1.045687 S    
O1    C2    1.309603 A    
C6    N16   1.486585 S    
C17   H4    1.078393 S    
C32   H8    1.083326 S    
O18   V4    1.990241 S    
V4    O20   2.185711 S    
C45   C60   1.450371 S    
O5    V1    2.014633 S    
N6    O22   1.301397 A    
O8    C3    1.309226 A    
C19   N6    1.432531 S    
C49   H10   1.105875 S    
O11   V4    1.994096 S    
N3    H19   1.044973 S    
C5    C9    1.621421 S    
N18   H35   1.042980 S    
N1    H15   1.044031 S    
N16   O33   1.304251 A    
C17   C18   1.386034 A    
C7    H1    1.107623 S    
N7    O24   1.300712 A    
C7    C11   1.575634 S    
N11   O29   1.300746 A    
O4    V1    1.961537 S    
O3    V1    1.964004 S    
V1    O10   1.728095 S    
N7    O23   1.298930 A    
O15   V3    1.964108 S    
C49   N21   1.470394 S    
C38   C39   1.433820 A    
C54   N15   1.474157 S    
C52   C58   1.216324 T    
C1    C40   1.505182 S    
C21   C23   1.431560 A    
O16   V4    1.995961 S    
N4    H22   1.043210 S    
N18   H36   1.043340 S    
C27   H5    1.078066 S    
C56   H14   1.112132 S    
C22   C26   1.416531 A    
C59   C60   1.214800 T    
C39   C40   1.423295 A    
N14   O31   1.300830 A    
C24   C25   1.422636 A    
C56   N20   1.468239 S    
C2    C52   1.451578 S    
C12   N4    1.474192 S    
C21   C22   1.425538 A    
C7    N24   1.472419 S    
C8    C47   1.450563 S    
O14   V3    2.021881 S    
N8    O25   1.300776 A    
O14   C46   1.303887 A    
N11   O30   1.300568 A    
C54   C55   1.593892 S    
N15   H31   1.039482 S    
C33   H9    1.082979 S    
O7    V2    1.730992 S    
C33   C34   1.392772 A    
N19   O35   1.300826 A    
