data_mof_unit_63223.cif
_audit_creation_date              2012-12-10T19:57:50-0500
_audit_creation_method            fapswitch 2.2
_symmetry_space_group_name_H-M    P1
_symmetry_Int_Tables_number       1
_space_group_crystal_system       triclinic
_cell_length_a                    38.852913
_cell_length_b                    32.09167
_cell_length_c                    21.745888
_cell_angle_alpha                 89.668356
_cell_angle_beta                  124.334197
_cell_angle_gamma                 89.992849
_cell_volume                      22389.1140185

loop_
_atom_site_label
_atom_site_type_symbol
_atom_type_description
_atom_site_fract_x
_atom_site_fract_y
_atom_site_fract_z
_atom_type_partial_charge
C1    C     C_R   0.419292 0.500080 0.419241 0.908579
C2    C     C_R   0.580708 0.499926 0.580759 0.908247
C3    C     C_R   0.919292 0.000080 0.419241 0.908629
C4    C     C_R   0.080708 0.999926 0.580761 0.908317
C5    C     C_R   0.271795 0.522692 0.316825 -0.180985
C6    C     C_R   0.728056 0.499892 0.672031 -0.181161
C7    C     C_R   0.771784 0.023831 0.315526 -0.180957
C8    C     C_R   0.228101 0.992908 0.673099 -0.181046
C9    C     C_R   0.293304 0.500520 0.293201 0.170310
C10   C     C_R   0.706692 0.499855 0.706578 0.170858
C11   C     C_R   0.793304 0.000516 0.293190 0.170200
C12   C     C_R   0.206692 0.999858 0.706582 0.170848
C13   C     C_R   0.271561 0.478365 0.226413 -0.185258
C14   C     C_R   0.728578 0.499958 0.784264 -0.185573
C15   C     C_R   0.771572 0.977215 0.227694 -0.185261
C16   C     C_R   0.228533 0.006955 0.783184 -0.185498
C17   C     C_1   0.162203 0.500333 0.162551 -0.071148
C18   C     C_1   0.837793 0.500099 0.837368 -0.071383
C19   C     C_1   0.662203 0.000330 0.162550 -0.071120
C20   C     C_1   0.337793 0.000111 0.837358 -0.071365
C21   C     C_1   0.337726 0.500406 0.337616 -0.073077
C22   C     C_1   0.662272 0.499781 0.662262 -0.072779
C23   C     C_1   0.837726 0.000406 0.337610 -0.073104
C24   C     C_1   0.162271 0.999781 0.662268 -0.072748
C25   C     C_1   0.375038 0.500265 0.374945 -0.182601
C26   C     C_1   0.624961 0.499790 0.625001 -0.182329
C27   C     C_1   0.875038 0.000265 0.374942 -0.182615
C28   C     C_1   0.124961 0.999789 0.625005 -0.182331
C29   C     C_1   0.124894 0.500184 0.125238 -0.180079
C30   C     C_1   0.875104 0.500074 0.874739 -0.180118
C31   C     C_1   0.624893 0.000183 0.125238 -0.180055
C32   C     C_1   0.375104 0.000080 0.874736 -0.180087
C33   C     C_R   0.500075 0.419302 0.000128 0.910551
C34   C     C_R   0.000075 0.919302 0.000128 0.910536
C35   C     C_R   0.499764 0.501914 0.880508 0.973489
C36   C     C_R   0.500233 0.498080 0.119491 0.973159
C37   C     C_R   0.999765 0.001915 0.880508 0.973452
C38   C     C_R   0.000233 0.998080 0.119492 0.973162
C39   C     C_R   0.499926 0.580692 0.999886 0.901162
C40   C     C_R   0.999926 0.080692 0.999887 0.901124
C41   C     C_R   0.501593 0.499759 0.620835 0.974932
C42   C     C_R   0.498422 0.500232 0.379182 0.974982
C43   C     C_R   0.001592 0.999758 0.620834 0.974963
C44   C     C_R   0.998421 0.000231 0.379181 0.975018
C45   C     C_R   0.000008 0.419407 0.000166 0.903356
C46   C     C_R   0.500008 0.919407 0.000166 0.903292
C47   C     C_R   0.080641 0.500021 0.080732 0.907496
C48   C     C_R   0.919359 0.500028 0.919265 0.907957
C49   C     C_R   0.580641 0.000021 0.080731 0.907419
C50   C     C_R   0.419359 0.000028 0.919265 0.907876
C51   C     C_R   0.999991 0.580667 0.999832 0.897241
C52   C     C_R   0.499991 0.080667 0.999832 0.897165
C53   C     C_R   0.963562 0.728398 0.978310 0.425498
C54   C     C_R   0.036728 0.728163 0.021137 0.426569
C55   C     C_R   0.463615 0.228396 0.978633 0.425443
C56   C     C_R   0.536680 0.228164 0.020845 0.426570
C57   C     C_R   0.000107 0.706629 0.999581 -0.084737
C58   C     C_R   0.500109 0.206629 0.999595 -0.084728
C59   C     C_R   0.536330 0.271728 0.019747 -0.290580
C60   C     C_R   0.464109 0.271942 0.980253 -0.287546
C61   C     C_R   0.036380 0.771726 0.020040 -0.290585
C62   C     C_R   0.964054 0.771944 0.979931 -0.287589
C63   C     C_R   0.500252 0.293385 0.000123 0.034281
C64   C     C_R   0.000250 0.793385 0.000112 0.034264
C65   C     C_1   0.000057 0.662136 0.999480 0.072673
C66   C     C_1   0.500058 0.162136 0.999488 0.072653
C67   C     C_1   0.500282 0.337783 0.000267 0.000378
C68   C     C_1   0.000281 0.837783 0.000261 0.000380
C69   C     C_1   0.500229 0.375075 0.000269 -0.182035
C70   C     C_1   0.000229 0.875075 0.000267 -0.182021
C71   C     C_2   0.527825 0.527668 0.811239 0.524136
C72   C     C_2   0.472030 0.472489 0.188637 0.524771
C73   C     C_2   0.027833 0.027661 0.811245 0.524255
C74   C     C_2   0.972033 0.972486 0.188639 0.524754
C75   C     C_1   0.000021 0.624864 0.999543 -0.167067
C76   C     C_1   0.500021 0.124864 0.999545 -0.167047
C77   C     C_R   0.962302 0.272074 0.969020 -0.291096
C78   C     C_R   0.037429 0.271750 0.031640 -0.288927
C79   C     C_R   0.462299 0.772074 0.968972 -0.291106
C80   C     C_R   0.537433 0.771750 0.031687 -0.288976
C81   C     C_R   0.999892 0.293467 0.000440 0.036065
C82   C     C_R   0.499893 0.793467 0.000439 0.036093
C83   C     C_R   0.537511 0.728206 0.030476 0.424504
C84   C     C_R   0.462118 0.728504 0.969752 0.427656
C85   C     C_R   0.037507 0.228207 0.030428 0.424509
C86   C     C_R   0.962121 0.228503 0.969803 0.427697
C87   C     C_R   0.499786 0.706689 0.999975 -0.086944
C88   C     C_R   0.999786 0.206689 0.999976 -0.086962
C89   C     C_1   0.999938 0.337872 0.000516 0.000361
C90   C     C_1   0.499939 0.837872 0.000516 0.000326
C91   C     C_1   0.499748 0.662181 0.999835 0.069662
C92   C     C_1   0.999748 0.162182 0.999836 0.069693
C93   C     C_1   0.499782 0.624901 0.999792 -0.158795
C94   C     C_1   0.999782 0.124902 0.999793 -0.158754
C95   C     C_1   0.999975 0.375170 0.000450 -0.190619
C96   C     C_1   0.499976 0.875170 0.000451 -0.190644
C97   C     C_2   0.498344 0.507132 0.813226 -0.419770
C98   C     C_2   0.501649 0.492812 0.186766 -0.422073
C99   C     C_2   0.998345 0.007138 0.813226 -0.419758
C100  C     C_2   0.001649 0.992814 0.186766 -0.422091
C101  C     C_2   0.522082 0.530982 0.738208 -0.317988
C102  C     C_2   0.477770 0.469108 0.261653 -0.317105
C103  C     C_2   0.022087 0.030978 0.738212 -0.318086
C104  C     C_2   0.977772 0.969107 0.261655 -0.317236
C105  C     C_2   0.507569 0.498294 0.692472 -0.396880
C106  C     C_2   0.492499 0.501697 0.307597 -0.398338
C107  C     C_2   0.007566 0.998294 0.692469 -0.396677
C108  C     C_2   0.992498 0.001697 0.307596 -0.398264
C109  C     C_R   0.228133 0.478334 0.183123 -0.180989
C110  C     C_R   0.772007 0.500069 0.827580 -0.180960
C111  C     C_R   0.728144 0.977183 0.184408 -0.181045
C112  C     C_R   0.271962 0.007075 0.826486 -0.181148
C113  C     C_R   0.206623 0.500460 0.206789 0.169357
C114  C     C_R   0.793372 0.500083 0.793033 0.167669
C115  C     C_R   0.706623 0.000454 0.206786 0.169455
C116  C     C_R   0.293372 0.000102 0.793010 0.167529
C117  C     C_R   0.228362 0.522668 0.273521 -0.183092
C118  C     C_R   0.771486 0.500005 0.715347 -0.182589
C119  C     C_R   0.728351 0.023807 0.272225 -0.183070
C120  C     C_R   0.271531 0.993028 0.716403 -0.182374
H1    H     H_    0.933214 0.289083 0.944219 0.166503
H2    H     H_    0.066561 0.288488 0.056545 0.166922
H3    H     H_    0.433208 0.789083 0.944134 0.166494
H4    H     H_    0.566568 0.788487 0.056631 0.166878
H5    H     H_    0.470418 0.495853 0.762358 0.125929
H6    H     H_    0.529660 0.503894 0.237707 0.126404
H7    H     H_    0.970413 0.995871 0.762354 0.125955
H8    H     H_    0.029659 0.003900 0.237706 0.126450
H9    H     H_    0.530386 0.559654 0.722885 0.175395
H10   H     H_    0.469240 0.440503 0.276749 0.176309
H11   H     H_    0.030399 0.059648 0.722896 0.175309
H12   H     H_    0.969246 0.940500 0.276754 0.176288
H13   H     H_    0.502556 0.468505 0.710266 0.158105
H14   H     H_    0.497698 0.531451 0.289980 0.157527
H15   H     H_    0.002546 0.968506 0.710257 0.158131
H16   H     H_    0.997694 0.031451 0.289976 0.157590
H17   H     H_    0.288144 0.461168 0.207977 0.137338
H18   H     H_    0.712106 0.499951 0.811169 0.137149
H19   H     H_    0.788163 0.959131 0.210257 0.137500
H20   H     H_    0.212026 0.012366 0.809258 0.136757
H21   H     H_    0.211369 0.461117 0.131437 0.140699
H22   H     H_    0.788885 0.500129 0.887750 0.142120
H23   H     H_    0.711388 0.959078 0.133724 0.140635
H24   H     H_    0.288806 0.012560 0.885821 0.142184
H25   H     H_    0.211775 0.539849 0.291966 0.141130
H26   H     H_    0.787959 0.500016 0.688445 0.142560
H27   H     H_    0.711756 0.041877 0.289668 0.141024
H28   H     H_    0.288037 0.987614 0.690331 0.142697
H29   H     H_    0.288563 0.539879 0.368542 0.141786
H30   H     H_    0.711178 0.499833 0.611860 0.141147
H31   H     H_    0.788544 0.041908 0.366240 0.141835
H32   H     H_    0.211257 0.987423 0.613764 0.141325
H33   H     H_    0.436323 0.288896 0.965768 0.168392
H34   H     H_    0.564172 0.288521 0.034446 0.167686
H35   H     H_    0.936225 0.788899 0.965207 0.168400
H36   H     H_    0.064265 0.788519 0.034975 0.167711
O1    O     O_R   0.439010 0.534430 0.439020 -0.616491
O2    O     O_R   0.560990 0.534430 0.560980 -0.620997
O3    O     O_R   0.939010 0.034430 0.439020 -0.616529
O4    O     O_R   0.060990 0.034430 0.560980 -0.620987
O5    O     O_R   0.060990 0.500040 0.112010 -0.616474
O6    O     O_R   0.939010 0.500040 0.887990 -0.616836
O7    O     O_R   0.560990 0.000040 0.112010 -0.616421
O8    O     O_R   0.439010 0.000040 0.887990 -0.616804
O9    O     O_R   0.060980 0.499970 0.009870 -0.614675
O10   O     O_R   0.939020 0.499970 0.990130 -0.615005
O11   O     O_R   0.560980 0.999970 0.009870 -0.614644
O12   O     O_R   0.439020 0.999970 0.990130 -0.614953
O13   O     O_R   0.000010 0.561020 0.051000 -0.613819
O14   O     O_R   0.999990 0.561020 0.949000 -0.613645
O15   O     O_R   0.500010 0.061020 0.051000 -0.613880
O16   O     O_R   0.499990 0.061020 0.949000 -0.613516
O17   O     O_R   0.439010 0.465570 0.438980 -0.620478
O18   O     O_R   0.560990 0.465570 0.561020 -0.615244
O19   O     O_R   0.939010 0.965570 0.438980 -0.620519
O20   O     O_R   0.060990 0.965570 0.561020 -0.615317
O21   O     O_R   0.500010 0.534430 0.590460 -0.617674
O22   O     O_R   0.499990 0.534430 0.409540 -0.626608
O23   O     O_R   0.000010 0.034430 0.590460 -0.617741
O24   O     O_R   0.999990 0.034430 0.409540 -0.626516
O25   O     O_R   0.500010 0.465570 0.590420 -0.625691
O26   O     O_R   0.499990 0.465570 0.409580 -0.616885
O27   O     O_R   0.000010 0.965570 0.590420 -0.625617
O28   O     O_R   0.999990 0.965570 0.409580 -0.616999
O29   O     O_R   0.534430 0.439010 0.034350 -0.625533
O30   O     O_R   0.465570 0.439010 0.965650 -0.609581
O31   O     O_R   0.034430 0.939010 0.034350 -0.625523
O32   O     O_R   0.965570 0.939010 0.965650 -0.609578
O33   O     O_R   0.534420 0.500000 0.943920 -0.571739
O34   O     O_R   0.465580 0.500000 0.056080 -0.572003
O35   O     O_R   0.034420 1.000000 0.943920 -0.571672
O36   O     O_R   0.965580 0.000000 0.056080 -0.572006
O37   O     O_R   0.465560 0.500000 0.875080 -0.636672
O38   O     O_R   0.534440 0.500000 0.124920 -0.636687
O39   O     O_R   0.965560 0.000000 0.875080 -0.636665
O40   O     O_R   0.034440 0.000000 0.124920 -0.636674
O41   O     O_R   0.534430 0.560990 0.034430 -0.605926
O42   O     O_R   0.465570 0.560990 0.965570 -0.621897
O43   O     O_R   0.034430 0.060990 0.034430 -0.605903
O44   O     O_R   0.965570 0.060990 0.965570 -0.621886
O45   O     O_R   0.000000 0.439050 0.051090 -0.615076
O46   O     O_R   0.000000 0.439050 0.948910 -0.615319
O47   O     O_R   0.500000 0.939050 0.051090 -0.614961
O48   O     O_R   0.500000 0.939050 0.948910 -0.615425
Zn1   Zn    Zn3+2 0.500000 0.545980 0.500000 0.956659
Zn2   Zn    Zn3+2 0.000000 0.045980 0.500000 0.956635
Zn3   Zn    Zn3+2 0.500000 0.454020 0.500000 0.959898
Zn4   Zn    Zn3+2 0.000000 0.954020 0.500000 0.959767
Zn5   Zn    Zn3+2 0.545980 0.500000 0.045940 0.985180
Zn6   Zn    Zn3+2 0.454020 0.500000 0.954060 0.985047
Zn7   Zn    Zn3+2 0.045980 0.000000 0.045940 0.985339
Zn8   Zn    Zn3+2 0.954020 0.000000 0.954060 0.985120
Zn9   Zn    Zn3+2 0.000010 0.500050 0.068180 0.971704
Zn10  Zn    Zn3+2 0.999990 0.500050 0.931820 0.971622
Zn11  Zn    Zn3+2 0.500010 0.000050 0.068180 0.971867
Zn12  Zn    Zn3+2 0.499990 0.000050 0.931820 0.971738
O49   O     O_3   0.559205 0.548534 0.874585 -0.591231
C121  C     C_3   0.595465 0.553537 0.875054 0.111028
H37   H     H_    0.590820 0.578864 0.835913 0.136127
H38   H     H_    0.604238 0.524017 0.860286 0.140370
C122  C     C_3   0.631429 0.565827 0.952870 -0.815681
H39   H     H_    0.637070 0.541087 0.993540 0.257321
H40   H     H_    0.660152 0.570099 0.954029 0.201790
H41   H     H_    0.623987 0.595490 0.969049 0.255431
O50   O     O_3   0.440464 0.451874 0.125156 -0.589779
C123  C     C_3   0.404072 0.447513 0.124448 0.110487
H42   H     H_    0.395684 0.477231 0.139368 0.139254
H43   H     H_    0.408299 0.422245 0.163376 0.138101
C124  C     C_3   0.367992 0.435616 0.046461 -0.806166
H44   H     H_    0.375002 0.405757 0.030023 0.258521
H45   H     H_    0.339166 0.431874 0.045136 0.199930
H46   H     H_    0.362766 0.460345 0.006051 0.255127
O51   O     O_3   0.059228 0.048508 0.874602 -0.591158
C125  C     C_3   0.095481 0.053512 0.875048 0.110825
H47   H     H_    0.090835 0.078852 0.835928 0.135885
H48   H     H_    0.104239 0.023998 0.860239 0.140567
C126  C     C_3   0.131459 0.065777 0.952868 -0.815735
H49   H     H_    0.137103 0.041023 0.993518 0.257467
H50   H     H_    0.160176 0.070051 0.954008 0.201430
H51   H     H_    0.124033 0.095434 0.969091 0.255429
O52   O     O_3   0.940472 0.951866 0.125162 -0.589805
C127  C     C_3   0.904079 0.947499 0.124451 0.110486
H52   H     H_    0.895685 0.977216 0.139364 0.139347
H53   H     H_    0.908309 0.922232 0.163383 0.138070
C128  C     C_3   0.868003 0.935595 0.046466 -0.806008
H54   H     H_    0.875018 0.905737 0.030036 0.258505
H55   H     H_    0.839177 0.931848 0.045139 0.200003
H56   H     H_    0.862774 0.960323 0.006051 0.255137
O53   O     O_3   0.928187 0.707018 0.960410 -0.594389
C129  C     C_3   0.900456 0.705772 0.882132 0.097666
H57   H     H_    0.915737 0.692042 0.856220 0.137334
H58   H     H_    0.888742 0.737604 0.858894 0.138792
C130  C     C_3   0.863363 0.678639 0.861571 -0.798786
H59   H     H_    0.847009 0.691713 0.885700 0.258330
H60   H     H_    0.841251 0.677470 0.800055 0.203247
H61   H     H_    0.874077 0.646478 0.883300 0.256339
O54   O     O_3   0.072055 0.706589 0.038896 -0.594289
C131  C     C_3   0.099644 0.704283 0.117169 0.098819
H62   H     H_    0.084173 0.690257 0.142664 0.136999
H63   H     H_    0.111534 0.735795 0.140981 0.139439
C132  C     C_3   0.136598 0.676810 0.137509 -0.799822
H64   H     H_    0.153143 0.690148 0.113800 0.259461
H65   H     H_    0.158601 0.674815 0.199020 0.201878
H66   H     H_    0.125699 0.644949 0.115205 0.256230
O55   O     O_3   0.428300 0.207014 0.961050 -0.594474
C133  C     C_3   0.400403 0.205764 0.882806 0.097901
H67   H     H_    0.415548 0.192031 0.856649 0.137439
H68   H     H_    0.388651 0.237596 0.859607 0.138784
C134  C     C_3   0.363366 0.178631 0.862573 -0.799176
H69   H     H_    0.347146 0.191708 0.886950 0.258135
H70   H     H_    0.341125 0.177458 0.801086 0.203568
H71   H     H_    0.374116 0.146471 0.884268 0.256250
O56   O     O_3   0.571951 0.206593 0.038307 -0.594282
C135  C     C_3   0.599689 0.204269 0.116550 0.098971
H72   H     H_    0.584336 0.190236 0.142258 0.136978
H73   H     H_    0.611619 0.235776 0.140343 0.139452
C136  C     C_3   0.636586 0.176793 0.136584 -0.800153
H74   H     H_    0.653015 0.190138 0.112659 0.259474
H75   H     H_    0.658705 0.174784 0.198068 0.201797
H76   H     H_    0.625647 0.144937 0.114293 0.256225
O57   O     O_3   0.424891 0.707187 0.937012 -0.592807
C137  C     C_3   0.413098 0.705690 0.987628 0.100682
H77   H     H_    0.405598 0.737474 0.997273 0.138084
H78   H     H_    0.438244 0.691613 0.041894 0.134892
C138  C     C_3   0.374413 0.678817 0.955284 -0.797812
H79   H     H_    0.381114 0.646704 0.945882 0.259737
H80   H     H_    0.364781 0.677435 0.994594 0.201410
H81   H     H_    0.348480 0.692252 0.901505 0.258432
O58   O     O_3   0.574742 0.706640 0.063257 -0.593763
C139  C     C_3   0.585826 0.704359 0.011729 0.107831
H82   H     H_    0.592109 0.735987 0.998904 0.135094
H83   H     H_    0.560774 0.689214 0.959082 0.142284
C140  C     C_3   0.625266 0.678290 0.045235 -0.804600
H84   H     H_    0.619847 0.646403 0.058161 0.262493
H85   H     H_    0.634242 0.676120 0.005080 0.198574
H86   H     H_    0.651137 0.692902 0.097256 0.257982
O59   O     O_3   0.924899 0.207184 0.937110 -0.592757
C141  C     C_3   0.913129 0.205704 0.987760 0.100649
H87   H     H_    0.905626 0.237491 0.997386 0.138017
H88   H     H_    0.938289 0.191643 0.042030 0.134889
C142  C     C_3   0.874454 0.178821 0.955476 -0.797759
H89   H     H_    0.881158 0.146705 0.946096 0.259749
H90   H     H_    0.864839 0.177453 0.994812 0.201371
H91   H     H_    0.848507 0.192239 0.901693 0.258458
O60   O     O_3   0.074736 0.206642 0.063162 -0.593710
C143  C     C_3   0.085779 0.204352 0.011579 0.107849
H92   H     H_    0.092039 0.235978 0.998707 0.135088
H93   H     H_    0.060714 0.189193 0.958961 0.142268
C144  C     C_3   0.125222 0.178294 0.045044 -0.804551
H94   H     H_    0.119828 0.146411 0.058022 0.262517
H95   H     H_    0.134164 0.176113 0.004841 0.198484
H96   H     H_    0.151107 0.192922 0.097028 0.258008

loop_
_geom_bond_atom_site_label_1
_geom_bond_atom_site_label_2
_ccdc_geom_bond_type
C87   C91   S    
C139  C140  S    
C55   O55   S    
C142  H89   S    
C137  H77   S    
C41   C105  S    
O12   Zn11  S    
O47   Zn11  S    
O25   Zn3   S    
C47   O9    A    
C86   C88   A    
C48   O6    A    
C129  H58   S    
C5    H29   S    
C135  H72   S    
C9    C13   A    
C60   H33   S    
C62   C64   A    
C11   C15   A    
C12   C16   A    
C127  H53   S    
C33   C69   S    
C129  C130  S    
C128  H54   S    
C125  H48   S    
C80   C83   A    
C15   H19   S    
C127  C128  S    
C50   O8    A    
C7    C119  A    
C51   O13   A    
O1    Zn1   S    
C38   C100  S    
C74   C100  D    
O8    Zn12  S    
C125  C126  S    
C124  H44   S    
C66   C76   T    
C92   C94   T    
C143  H92   S    
C2    C26   S    
O46   Zn10  S    
C42   C106  S    
C46   O47   A    
C54   C61   A    
C39   O42   A    
O31   Zn7   S    
C120  H28   S    
C72   O50   S    
C134  H70   S    
O29   Zn5   S    
C141  H87   S    
C20   C116  S    
C142  H91   S    
O2    Zn1   S    
C102  H10   S    
C71   O49   S    
C40   O43   A    
C140  H86   S    
C86   O59   S    
O13   Zn9   S    
C84   O57   S    
C59   C63   A    
C56   C59   A    
O20   Zn4   S    
O34   Zn6   S    
C138  H80   S    
O32   Zn8   S    
C9    C21   S    
C42   O22   A    
C43   O27   A    
C36   O38   A    
O4    Zn2   S    
C73   C103  S    
C46   C96   S    
C128  H56   S    
C103  C107  D    
O16   Zn12  S    
O35   Zn7   S    
C52   O16   A    
C79   C82   A    
C83   O58   S    
C17   C113  S    
C71   C97   D    
C1    O17   A    
O53   C129  S    
C140  H84   S    
C29   C47   S    
C36   O34   A    
C64   C68   S    
C30   C48   S    
C8    H32   S    
C124  H46   S    
C132  H64   S    
C62   H35   S    
O52   C127  S    
C11   C23   S    
O36   Zn8   S    
C13   C109  A    
C33   O30   A    
O51   C125  S    
C110  C114  A    
C111  H23   S    
C136  H74   S    
C3    O3    A    
C79   C84   A    
C16   H20   S    
O50   C123  S    
C3    C27   S    
C144  H95   S    
C4    O20   A    
C80   C82   A    
C10   C14   A    
O49   C121  S    
C116  C120  A    
C6    H30   S    
C5    C9    A    
C122  H39   S    
C121  H38   S    
C8    C12   A    
O54   C131  S    
O58   C139  S    
C133  H68   S    
C113  C117  A    
C78   C85   A    
C115  C119  A    
C50   O12   A    
C134  H71   S    
C45   C95   S    
C112  C116  A    
C121  C122  S    
C74   C104  S    
O6    Zn10  S    
C85   C88   A    
C14   C110  A    
C21   C25   T    
C100  H8    S    
C24   C28   T    
C40   C94   S    
C52   C76   S    
C133  C134  S    
C132  H66   S    
C90   C96   T    
O48   Zn12  S    
C137  H78   S    
C136  H75   S    
C131  H62   S    
O15   Zn11  S    
O39   Zn8   S    
O37   Zn6   S    
C72   C102  S    
C56   C58   A    
C135  H73   S    
C71   C101  S    
C34   O31   A    
O42   Zn6   S    
C49   O7    A    
C77   H1    S    
O10   Zn9   S    
C106  H14   S    
C137  C138  S    
C123  H42   S    
C136  H76   S    
C109  H21   S    
C55   C60   A    
C103  H11   S    
C54   C57   A    
C101  H9    S    
C83   C87   A    
C135  C136  S    
C17   C29   T    
C19   C31   T    
C44   O24   A    
C42   O26   A    
C43   O23   A    
C122  H41   S    
C20   C32   T    
C119  H27   S    
C117  H25   S    
C139  H82   S    
C39   C93   S    
C107  H15   S    
O7    Zn11  S    
C14   H18   S    
C45   O46   A    
C143  H93   S    
C34   C70   S    
C73   O51   S    
C81   C89   S    
C46   O48   A    
C39   O41   A    
C35   O33   A    
C134  H69   S    
C41   O25   A    
C141  H88   S    
O19   Zn4   S    
C31   C49   S    
C59   H34   S    
C142  H90   S    
C143  C144  S    
C97   H5    S    
C53   C57   A    
C99   H7    S    
C40   O44   A    
C129  H57   S    
C141  C142  S    
C89   C95   T    
C61   C64   A    
C138  H79   S    
C91   C93   T    
C77   C81   A    
C2    O2    A    
C127  H52   S    
C43   C107  S    
O45   Zn9   S    
C7    H31   S    
C3    O19   A    
C128  H55   S    
O18   Zn3   S    
C125  H47   S    
C61   H36   S    
C37   O39   A    
C104  C108  D    
C38   O36   A    
C16   C112  A    
C80   H4    S    
C41   O21   A    
C12   C24   S    
C105  H13   S    
C51   O14   A    
C57   C65   S    
C6    C10   A    
C108  H16   S    
O14   Zn10  S    
O28   Zn4   S    
C130  H61   S    
C124  H45   S    
O33   Zn5   S    
C78   C81   A    
C130  H59   S    
C1    O1    A    
O21   Zn1   S    
C35   O37   A    
C47   O5    A    
C98   H6    S    
C48   O10   A    
C122  H40   S    
O60   C143  S    
C22   C26   T    
C55   C58   A    
C56   O56   S    
C54   O54   S    
C33   O29   A    
O59   C141  S    
C84   C87   A    
C18   C114  S    
C72   C98   D    
C144  H94   S    
C7    C11   A    
O44   Zn8   S    
C60   C63   A    
C51   C75   S    
C49   O11   A    
C138  H81   S    
C104  H12   S    
O22   Zn1   S    
O26   Zn3   S    
C110  H22   S    
O40   Zn7   S    
C58   C66   S    
C88   C92   S    
C38   O40   A    
C18   C30   T    
C23   C27   T    
O55   C133  S    
C44   O28   A    
C139  H83   S    
C109  C113  A    
O23   Zn2   S    
C1    C25   S    
O27   Zn4   S    
C74   O52   S    
O11   Zn12  S    
O24   Zn2   S    
C52   O15   A    
C4    C28   S    
C44   C108  S    
C101  C105  D    
C63   C67   S    
C15   C111  A    
C118  H26   S    
C132  H65   S    
O57   C137  S    
C79   H3    S    
C10   C22   S    
C5    C117  A    
C67   C69   T    
C13   H17   S    
C131  H63   S    
C53   C62   A    
C130  H60   S    
C19   C115  S    
O56   C135  S    
O17   Zn3   S    
C53   O53   S    
C82   C90   S    
C34   O32   A    
C32   C50   S    
C114  C118  A    
C45   O45   A    
C37   O35   A    
C77   C86   A    
C123  H43   S    
C126  H50   S    
C126  H51   S    
C131  C132  S    
C37   C99   S    
C8    C120  A    
O3    Zn2   S    
C85   O60   S    
C144  H96   S    
C73   C99   D    
O5    Zn9   S    
C36   C98   S    
C123  C124  S    
C65   C75   T    
C112  H24   S    
O30   Zn6   S    
C140  H85   S    
C35   C97   S    
C2    O18   A    
O38   Zn5   S    
C121  H37   S    
C4    O4    A    
C102  C106  D    
O43   Zn7   S    
C78   H2    S    
O41   Zn5   S    
C133  H67   S    
O9    Zn10  S    
C68   C70   T    
C111  C115  A    
C126  H49   S    
C6    C118  A    
