data_mof_unit_42508.cif
_audit_creation_date              2013-03-05T15:43:17-0500
_audit_creation_method            fapswitch 2.2
_symmetry_space_group_name_H-M    P1
_symmetry_Int_Tables_number       1
_space_group_crystal_system       triclinic
_cell_length_a                    10.65169
_cell_length_b                    10.699123
_cell_length_c                    10.041175
_cell_angle_alpha                 88.769755
_cell_angle_beta                  87.634693
_cell_angle_gamma                 89.983209
_cell_volume                      1143.09114896

loop_
_atom_site_label
_atom_site_type_symbol
_atom_site_description
_atom_site_fract_x
_atom_site_fract_y
_atom_site_fract_z
_atom_type_partial_charge
O1    O     O_R   0.499980 0.319060 0.613040 -0.563002
O2    O     O_R   0.500020 0.319100 0.386900 -0.618308
C1    C     C_R   0.491128 0.262406 0.501823 0.801602
O3    O     O_R   0.316750 0.499980 0.613090 -0.560725
O4    O     O_R   0.316790 0.500020 0.386950 -0.570652
C2    C     C_R   0.259958 0.494228 0.504082 0.870172
Zn1   Zn    Zn3+2 0.499970 0.499970 0.650990 1.082354
Zn2   Zn    Zn3+2 0.500030 0.500030 0.349010 1.070113
O5    O     O_R   0.499980 0.680900 0.613100 -0.598230
O6    O     O_R   0.500020 0.680940 0.386960 -0.617753
O7    O     O_R   0.683210 0.499980 0.613050 -0.617178
O8    O     O_R   0.683250 0.500020 0.386910 -0.599180
C3    C     C_R   0.502130 0.737396 0.498273 0.929626
C4    C     C_R   0.739474 0.499337 0.497033 0.915223
H1    H     H_    0.123927 0.662277 0.390236 0.193448
C5    C     C_R   0.105050 0.311024 0.677314 0.232175
C6    C     C_R   0.040057 0.199095 0.705989 -0.200083
H2    H     H_    0.079101 0.131067 0.774095 0.243666
C7    C     C_R   0.920222 0.179678 0.658815 0.311671
C8    C     C_R   0.862940 0.277288 0.588886 -0.210472
H3    H     H_    0.767477 0.265162 0.558586 0.170932
C9    C     C_R   0.929429 0.388318 0.554167 -0.033275
C10   C     C_R   0.056087 0.398828 0.583819 -0.014108
C11   C     C_R   0.126410 0.495024 0.514772 -0.120836
C12   C     C_R   0.068865 0.588466 0.440161 -0.154815
C13   C     C_R   0.940773 0.589845 0.432683 0.378864
C14   C     C_R   0.871845 0.490192 0.490303 -0.144118
C15   C     C_2   0.455791 0.933484 0.394613 -0.112796
C16   C     C_2   0.508890 0.869559 0.492961 -0.186614
H4    H     H_    0.414200 0.887012 0.311899 0.194827
H5    H     H_    0.556653 0.914238 0.572308 0.217154
C17   C     C_2   0.459834 0.068459 0.393305 -0.222882
C18   C     C_2   0.456349 0.132389 0.507141 0.156463
H6    H     H_    0.478843 0.114126 0.296903 0.204468
C19   C     C_2   0.554466 0.585925 0.920433 -0.040556
N1    N     N_2   0.501340 0.501330 0.852150 -0.149195
H7    H     H_    0.594718 0.667267 0.868414 0.180497
H8    H     H_    0.482539 0.416623 0.898988 0.239968
C20   C     C_2   0.569675 0.573516 0.068485 -0.058590
N2    N     N_2   0.501380 0.501360 0.147810 -0.021683
H9    H     H_    0.643536 0.627887 0.110855 0.170677
N3    N     N_R   0.407763 0.078359 0.631784 0.221127
O9    O     O_R   0.466682 0.094240 0.741139 -0.285969
O10   O     O_R   0.303804 0.014199 0.636189 -0.354656
N4    N     N_R   0.383171 0.468912 0.105177 0.297280
O11   O     O_R   0.338676 0.358411 0.135995 -0.316923
O12   O     O_R   0.305878 0.555795 0.067252 -0.308226
N5    N     N_R   0.197031 0.346740 0.769483 0.225483
O13   O     O_R   0.181098 0.450664 0.833093 -0.291343
O14   O     O_R   0.273941 0.263838 0.816092 -0.311949
N6    N     N_R   0.853837 0.064794 0.689476 0.239300
O15   O     O_R   0.907248 0.974073 0.754468 -0.325768
O16   O     O_R   0.740339 0.048663 0.649952 -0.389419
Cl1   Cl    Cl    0.869868 0.718202 0.351849 -0.547788

loop_
_geom_bond_atom_site_label_1
_geom_bond_atom_site_label_2
_geom_bond_distance
_ccdc_geom_bond_type
O4    Zn2   1.973155 S    
C19   C20   1.505090 S    
C10   C11   1.424076 A    
C4    C14   1.412265 S    
Zn1   N1    2.020901 S    
C19   N1    1.291699 D    
Zn2   O8    2.003717 S    
C2    C11   1.422160 S    
C17   C18   1.343818 D    
C5    N5    1.432728 S    
C7    C8    1.399815 A    
C15   H4    1.086979 S    
O2    C1    1.292086 A    
C16   H5    1.082625 S    
N4    O11   1.300252 A    
C8    H3    1.081975 S    
Zn1   O7    1.973156 S    
C13   C14   1.396236 A    
O4    C2    1.300673 A    
N3    O10   1.301724 A    
O3    Zn1   2.003716 S    
C18   N3    1.443624 S    
C13   Cl1   1.765600 S    
N5    O14   1.300105 A    
C15   C16   1.334077 D    
C6    C7    1.396837 A    
O8    C4    1.278960 A    
C6    H2    1.082730 S    
C5    C10   1.427624 A    
C9    C14   1.406253 A    
N4    O12   1.302754 A    
N2    N4    1.392949 S    
O7    C4    1.288037 A    
H1    C12   1.085329 S    
O3    C2    1.274901 A    
N3    O9    1.301317 A    
C1    C18   1.438973 S    
N6    O16   1.300585 A    
N1    H8    1.027955 S    
C7    N6    1.439402 S    
C15   C17   1.444528 S    
C11   C12   1.393514 A    
C20   H9    1.084856 S    
C3    C16   1.415632 S    
C20   N2    1.298354 D    
Zn1   O5    1.964793 S    
O5    C3    1.289648 A    
C9    C10   1.398607 A    
N5    O13   1.301734 A    
Zn2   N2    2.019486 S    
C19   H7    1.084561 S    
C12   C13   1.369611 A    
O1    Zn1   1.980743 S    
Zn2   O6    1.980743 S    
O2    Zn2   1.964793 S    
N6    O15   1.301849 A    
C8    C9    1.413013 A    
C5    C6    1.401969 A    
O1    C1    1.288881 A    
O6    C3    1.282859 A    
C17   H6    1.086415 S    
