data_mof_unit_67624.cif
_audit_creation_date              2012-12-10T18:19:56-0500
_audit_creation_method            fapswitch 2.2
_symmetry_space_group_name_H-M    P1
_symmetry_Int_Tables_number       1
_space_group_crystal_system       triclinic
_cell_length_a                    10.589983
_cell_length_b                    10.625586
_cell_length_c                    9.443634
_cell_angle_alpha                 89.573036
_cell_angle_beta                  90.762089
_cell_angle_gamma                 89.758809
_cell_volume                      1062.50942717

loop_
_atom_site_label
_atom_site_type_symbol
_atom_type_description
_atom_site_fract_x
_atom_site_fract_y
_atom_site_fract_z
_atom_type_partial_charge
C1    C     C_R   0.501324 0.259736 0.500341 0.874853
C2    C     C_R   0.498666 0.740264 0.499658 0.874830
C3    C     C_3   0.466775 0.958937 0.627446 0.471810
C4    C     C_3   0.533196 0.041063 0.372554 0.471778
C5    C     C_3   0.501103 0.615476 0.050135 -0.349963
C6    C     C_3   0.498900 0.384524 0.949866 -0.349989
C7    C     C_3   0.402729 0.558160 0.948818 0.517594
C8    C     C_3   0.597271 0.441843 0.051183 0.517552
C9    C     C_3   0.598491 0.555423 0.951996 0.496832
C10   C     C_3   0.401509 0.444577 0.048003 0.496868
C11   C     C_R   0.259662 0.500350 0.499096 0.841989
C12   C     C_R   0.740338 0.499638 0.500903 0.842035
C13   C     C_3   0.043224 0.398153 0.564860 0.558858
C14   C     C_3   0.956776 0.601818 0.435136 0.558861
C15   C     C_3   0.957351 0.396033 0.432041 -0.290680
C16   C     C_3   0.042649 0.603941 0.567958 -0.290744
C17   C     C_3   0.877095 0.498867 0.502614 -0.097555
C18   C     C_3   0.122905 0.501106 0.497385 -0.097519
C19   C     C_3   0.961994 0.498998 0.636815 -0.261587
C20   C     C_3   0.038006 0.500974 0.363186 -0.261525
C21   C     C_3   0.583680 0.038443 0.596553 0.448766
C22   C     C_3   0.416289 0.961557 0.403447 0.448448
C23   C     C_3   0.618441 0.956594 0.467907 -0.470351
C24   C     C_3   0.381530 0.043417 0.532086 -0.470732
C25   C     C_3   0.499426 0.876823 0.499277 -0.222357
C26   C     C_3   0.500551 0.123176 0.500720 -0.222352
Cu1   Cu    Cu3+1 0.500030 0.499990 0.643150 1.049970
Cu2   Cu    Cu3+1 0.499970 0.500010 0.356850 1.049968
H1    H     H_    0.919173 0.311358 0.378516 0.168594
H2    H     H_    0.080832 0.688610 0.621489 0.168520
H3    H     H_    0.928834 0.497175 0.747727 0.176333
H4    H     H_    0.071163 0.502804 0.252272 0.176336
H5    H     H_    0.712772 0.917612 0.442351 0.194890
H6    H     H_    0.287202 0.082435 0.557593 0.194959
H7    H     H_    0.501237 0.710601 0.097112 0.170638
H8    H     H_    0.498827 0.289394 0.902903 0.170737
N1    N     N_3   0.500090 0.499970 0.858290 -0.240773
N2    N     N_3   0.499910 0.500030 0.141710 -0.240759
O1    O     O_R   0.500060 0.316850 0.620870 -0.586620
O2    O     O_R   0.499940 0.683150 0.379130 -0.586614
O3    O     O_R   0.500000 0.316860 0.379090 -0.514155
O4    O     O_R   0.500000 0.683140 0.620910 -0.514108
O5    O     O_R   0.316880 0.499960 0.620870 -0.535376
O6    O     O_R   0.683120 0.500040 0.379130 -0.535339
O7    O     O_R   0.316830 0.499970 0.379090 -0.560529
O8    O     O_R   0.683170 0.500030 0.620910 -0.560515
O9    O     O_3   0.100309 0.292791 0.631703 -0.598035
C27   C     C_3   0.005778 0.212040 0.682486 -0.366831
H9    H     H_    0.946508 0.174771 0.594341 0.188941
H10   H     H_    0.945920 0.259649 0.761874 0.167646
H11   H     H_    0.051989 0.130467 0.736120 0.173339
O10   O     O_3   0.899694 0.707152 0.368237 -0.598044
C28   C     C_3   0.994227 0.788061 0.317770 -0.366872
H12   H     H_    0.054537 0.740508 0.238766 0.167903
H13   H     H_    0.053044 0.825584 0.406148 0.188661
H14   H     H_    0.948021 0.869448 0.263777 0.173495
O11   O     O_3   0.667012 0.089318 0.698745 -0.589944
C29   C     C_3   0.742983 0.992287 0.756857 -0.360149
H15   H     H_    0.808582 0.954366 0.676602 0.178085
H16   H     H_    0.685262 0.915299 0.802847 0.220076
H17   H     H_    0.801498 0.031853 0.843902 0.156141
O12   O     O_3   0.332995 0.910733 0.301183 -0.590074
C30   C     C_3   0.256632 0.007690 0.243583 -0.360882
H18   H     H_    0.190382 0.044389 0.323839 0.178031
H19   H     H_    0.198849 0.968460 0.155748 0.156276
H20   H     H_    0.313968 0.085511 0.198805 0.220240
O13   O     O_3   0.436183 0.904842 0.759528 -0.541117
C31   C     C_3   0.386053 0.998042 0.847882 -0.305845
H21   H     H_    0.290850 0.028316 0.809836 0.156494
H22   H     H_    0.450093 0.080096 0.857180 0.178197
H23   H     H_    0.375283 0.957507 0.955419 0.186417
O14   O     O_3   0.563912 0.095193 0.240530 -0.540940
C32   C     C_3   0.612878 0.001746 0.151687 -0.305671
H24   H     H_    0.547701 0.920660 0.141809 0.178837
H25   H     H_    0.707607 0.969966 0.189662 0.156302
H26   H     H_    0.624298 0.042606 0.044393 0.186576
O15   O     O_3   0.298461 0.619150 0.883309 -0.534577
C33   C     C_3   0.225546 0.679336 0.986600 -0.319867
H27   H     H_    0.279457 0.755763 0.039109 0.187579
H28   H     H_    0.190418 0.611300 0.066553 0.172493
H29   H     H_    0.141909 0.722965 0.933671 0.168175
O16   O     O_3   0.701555 0.380875 0.116686 -0.534562
C34   C     C_3   0.774447 0.320666 0.013398 -0.319769
H30   H     H_    0.809370 0.388628 0.933268 0.172443
H31   H     H_    0.720592 0.244098 0.961116 0.187669
H32   H     H_    0.858210 0.277240 0.066270 0.168174
O17   O     O_3   0.704644 0.612799 0.890384 -0.560850
C35   C     C_3   0.776133 0.674328 0.995747 -0.347278
H33   H     H_    0.805283 0.609013 0.082894 0.218605
H34   H     H_    0.723498 0.756032 0.038443 0.160550
H35   H     H_    0.863498 0.711075 0.947153 0.170593
O18   O     O_3   0.295353 0.387204 0.109613 -0.560889
C36   C     C_3   0.223884 0.325649 0.004256 -0.347468
H36   H     H_    0.276533 0.243938 0.961588 0.160679
H37   H     H_    0.194739 0.390946 0.917087 0.218576
H38   H     H_    0.136516 0.288901 0.052848 0.170590

loop_
_geom_bond_atom_site_label_1
_geom_bond_atom_site_label_2
_ccdc_geom_bond_type
C7    C10   S    
O17   C35   S    
C30   H19   S    
C11   C18   S    
C36   H36   S    
C32   H24   S    
Cu1   O4    S    
C21   C26   S    
C19   H3    S    
O15   C33   S    
C21   O11   S    
C13   C18   S    
C8    O16   S    
C24   C26   S    
C31   H23   S    
C33   H28   S    
Cu2   O2    S    
C29   H16   S    
Cu2   O3    S    
C27   H11   S    
C14   O10   S    
C34   H30   S    
Cu1   O1    S    
C31   H21   S    
C23   H5    S    
C22   C25   S    
C12   C17   S    
C11   O5    A    
C18   C20   S    
C7    O15   S    
C29   H17   S    
C27   H10   S    
C30   H20   S    
C10   O18   S    
C36   H37   S    
C5    N2    S    
C32   H25   S    
C14   C17   S    
C3    C24   S    
C8    N2    S    
C15   H1    S    
C28   H13   S    
C15   C20   S    
Cu2   O7    S    
C13   C19   S    
O13   C31   S    
C14   C20   S    
C3    C25   S    
C12   O8    A    
C5    C7    S    
C4    C23   S    
C33   H27   S    
C8    C9    S    
C6    C8    S    
C29   H15   S    
C28   H12   S    
Cu2   O6    S    
C24   H6    S    
C5    C9    S    
O12   C30   S    
C2    O2    A    
C22   O12   S    
C4    C22   S    
O9    C27   S    
C35   H35   S    
Cu2   N2    S    
C9    N1    S    
C7    N1    S    
C6    N1    S    
Cu1   O8    S    
C1    O3    A    
C27   H9    S    
C34   H31   S    
C35   H34   S    
C36   H38   S    
C13   C15   S    
C1    C26   S    
C32   H26   S    
C14   C16   S    
C11   O7    A    
C4    O14   S    
O10   C28   S    
C13   O9    S    
C20   H4    S    
C28   H14   S    
C15   C17   S    
C3    O13   S    
O14   C32   S    
C6    C10   S    
C4    C26   S    
C10   N2    S    
C21   C23   S    
C12   O6    A    
C9    O17   S    
C33   H29   S    
O11   C29   S    
C2    O4    A    
C16   C19   S    
C5    H7    S    
O18   C36   S    
C17   C19   S    
C6    H8    S    
C2    C25   S    
C22   C24   S    
C23   C25   S    
C3    C21   S    
C1    O1    A    
C30   H18   S    
Cu1   O5    S    
C34   H32   S    
C35   H33   S    
C16   C18   S    
O16   C34   S    
Cu1   Cu2   S    
C31   H22   S    
C16   H2    S    
Cu1   N1    S    
