data_mof_unit_8301.cif
_audit_creation_date              2012-12-11T14:04:20-0500
_audit_creation_method            fapswitch 2.2
_symmetry_space_group_name_H-M    P1
_symmetry_Int_Tables_number       1
_space_group_crystal_system       triclinic
_cell_length_a                    18.959413
_cell_length_b                    11.150202
_cell_length_c                    18.769456
_cell_angle_alpha                 90.132263
_cell_angle_beta                  90.222252
_cell_angle_gamma                 90.483078
_cell_volume                      3967.70535575

loop_
_atom_site_label
_atom_site_type_symbol
_atom_type_description
_atom_site_fract_x
_atom_site_fract_y
_atom_site_fract_z
_atom_type_partial_charge
C1    C     C_R   0.239579 0.466425 0.647687 0.585736
C2    C     C_R   0.994562 0.659611 0.574395 -0.034397
C3    C     C_R   0.507663 0.166289 0.424526 -0.035479
C4    C     C_R   0.494560 0.159597 0.574396 -0.034433
C5    C     C_R   0.008471 0.887309 0.430645 -0.072083
C6    C     C_R   0.976976 0.876493 0.575593 -0.079690
C7    C     C_R   0.508449 0.387308 0.430652 -0.072004
C8    C     C_R   0.476945 0.376465 0.575599 -0.079663
C9    C     C_R   0.997007 0.991790 0.469278 -0.122441
C10   C     C_R   0.980046 0.985990 0.541232 -0.120553
C11   C     C_R   0.496959 0.491778 0.469286 -0.122630
C12   C     C_R   0.760566 0.467822 0.352895 0.573391
C13   C     C_R   0.479994 0.485964 0.541240 -0.120735
C14   C     C_R   0.991760 0.770122 0.538501 0.016483
C15   C     C_R   0.002519 0.774478 0.463754 0.017976
C16   C     C_R   0.491746 0.270106 0.538504 0.016493
C17   C     C_R   0.502509 0.274471 0.463757 0.017982
C18   C     C_R   0.994747 0.553142 0.533598 -0.006714
C19   C     C_R   0.015881 0.558370 0.462175 -0.004993
C20   C     C_R   0.494753 0.053127 0.533597 -0.006727
C21   C     C_R   0.515882 0.058361 0.462173 -0.004946
C22   C     C_R   0.977801 0.440253 0.562970 -0.076487
C23   C     C_R   0.739581 0.966420 0.647691 0.585751
C24   C     C_R   0.036450 0.451935 0.427825 -0.086429
C25   C     C_R   0.477826 0.940233 0.562973 -0.076379
C26   C     C_R   0.536464 0.951931 0.427823 -0.086410
C27   C     C_R   0.992026 0.335989 0.525501 -0.045603
C28   C     C_R   0.020880 0.341926 0.457992 -0.053225
C29   C     C_R   0.492079 0.835965 0.525515 -0.045700
C30   C     C_R   0.520932 0.841911 0.458005 -0.053478
C31   C     C_2   0.238885 0.895143 0.929249 -0.101359
C32   C     C_2   0.741799 0.935285 0.086132 -0.104991
C33   C     C_2   0.738885 0.395140 0.929250 -0.101369
C34   C     C_R   0.260565 0.967820 0.352894 0.573353
C35   C     C_2   0.241804 0.435286 0.086131 -0.104983
C36   C     C_2   0.246598 0.896945 0.085732 -0.104239
C37   C     C_2   0.730109 0.983907 0.933105 -0.106842
C38   C     C_2   0.746596 0.396943 0.085733 -0.104239
C39   C     C_2   0.230104 0.483913 0.933105 -0.106833
C40   C     C_R   0.228242 0.875649 0.648665 0.585954
C41   C     C_R   0.771797 0.875809 0.351337 0.582576
C42   C     C_R   0.728241 0.375644 0.648663 0.585975
C43   C     C_R   0.271799 0.375804 0.351342 0.582531
C44   C     C_2   0.187816 0.917320 0.048829 -0.159212
C45   C     C_2   0.298842 0.879078 0.538316 0.211352
C46   C     C_2   0.762508 0.057984 0.979271 -0.160086
C47   C     C_2   0.687814 0.417329 0.048829 -0.159209
C48   C     C_2   0.262537 0.557957 0.979262 -0.160077
C49   C     C_2   0.182888 0.891726 0.973199 -0.156336
C50   C     C_2   0.777935 0.022310 0.052770 -0.148102
C51   C     C_2   0.682886 0.391738 0.973198 -0.156346
C52   C     C_2   0.277955 0.522284 0.052763 -0.148108
C53   C     C_2   0.042920 0.656433 0.933026 -0.107597
C54   C     C_2   0.016045 0.663216 0.087193 -0.106014
C55   C     C_2   0.542922 0.156433 0.933026 -0.107597
C56   C     C_2   0.703067 0.876662 0.462415 0.212718
C57   C     C_2   0.516045 0.163216 0.087193 -0.106016
C58   C     C_2   0.036441 0.564718 0.051833 -0.150050
C59   C     C_2   0.059132 0.566827 0.977339 -0.163537
C60   C     C_2   0.536443 0.064719 0.051833 -0.150048
C61   C     C_2   0.559134 0.066828 0.977339 -0.163533
C62   C     C_R   0.027283 0.654051 0.646310 0.539433
C63   C     C_R   0.973026 0.655839 0.353491 0.528234
C64   C     C_R   0.527283 0.154049 0.646311 0.539438
C65   C     C_R   0.473027 0.155838 0.353490 0.528199
C66   C     C_R   0.224801 0.516823 0.858739 0.537397
C67   C     C_2   0.798843 0.379053 0.538314 0.211283
C68   C     C_R   0.760201 0.463632 0.150670 0.546945
C69   C     C_R   0.724801 0.016822 0.858740 0.537387
C70   C     C_R   0.260202 0.963633 0.150670 0.546944
C71   C     C_R   0.225913 0.869233 0.854776 0.532968
C72   C     C_R   0.771172 0.875950 0.148461 0.548418
C73   C     C_R   0.725912 0.369232 0.854776 0.532970
C74   C     C_R   0.271173 0.375951 0.148461 0.548427
C75   C     C_R   0.060940 0.648332 0.858203 0.539026
C76   C     C_R   0.972476 0.652496 0.150676 0.548311
C77   C     C_R   0.560941 0.148332 0.858203 0.539027
C78   C     C_2   0.203034 0.376683 0.462405 0.212752
C79   C     C_R   0.472476 0.152496 0.150676 0.548311
C80   C     C_2   0.258295 0.935471 0.586614 -0.127107
C81   C     C_2   0.741632 0.935319 0.413134 -0.131307
C82   C     C_2   0.758296 0.435455 0.586608 -0.127065
C83   C     C_2   0.241637 0.435315 0.413142 -0.131313
C84   C     C_2   0.251492 0.917227 0.422670 -0.020786
C85   C     C_2   0.748691 0.914507 0.578459 -0.014524
C86   C     C_2   0.751491 0.417230 0.422671 -0.020740
C87   C     C_2   0.248682 0.414519 0.578448 -0.014727
C88   C     C_2   0.305126 0.930236 0.468761 -0.035254
C89   C     C_R   0.007665 0.666293 0.424526 -0.035451
C90   C     C_2   0.696550 0.930057 0.531267 -0.039393
C91   C     C_2   0.805131 0.430206 0.468758 -0.035232
C92   C     C_2   0.196528 0.430055 0.531267 -0.039393
Cr1   Cr    Cr6+3 0.113970 0.508630 0.747920 1.039158
Cr2   Cr    Cr6+3 0.887700 0.820070 0.250200 1.028375
Cr3   Cr    Cr6+3 0.612300 0.320070 0.749800 1.030455
Cr4   Cr    Cr6+3 0.387700 0.320070 0.250200 1.028351
Cr5   Cr    Cr6+3 0.886030 0.508630 0.252080 1.035883
Cr6   Cr    Cr6+3 0.613970 0.008630 0.747920 1.039145
Cr7   Cr    Cr6+3 0.386030 0.008630 0.252080 1.035885
Cr8   Cr    Cr6+3 0.269200 0.666740 0.749850 1.085589
Cr9   Cr    Cr6+3 0.730800 0.666740 0.250150 1.082671
Cr10  Cr    Cr6+3 0.769200 0.166740 0.749850 1.085600
Cr11  Cr    Cr6+3 0.230800 0.166740 0.250150 1.082712
Cr12  Cr    Cr6+3 0.112300 0.820070 0.749800 1.030436
H1    H     H_    0.355084 0.971586 0.453929 0.157630
H2    H     H_    0.708444 0.897812 0.949121 0.109194
H3    H     H_    0.789171 0.344460 0.063286 0.100984
H4    H     H_    0.208399 0.397847 0.949130 0.109168
H5    H     H_    0.292573 0.907447 0.948311 0.100039
H6    H     H_    0.692747 0.899821 0.064403 0.097790
H7    H     H_    0.792574 0.407426 0.948313 0.100041
H8    H     H_    0.192745 0.399841 0.064408 0.097785
H9    H     H_    0.030688 0.476529 0.075699 0.153578
H10   H     H_    0.083652 0.486333 0.956675 0.137351
H11   H     H_    0.530690 0.976530 0.075700 0.153574
H12   H     H_    0.648166 0.976649 0.544430 0.150477
H13   H     H_    0.583656 0.986335 0.956676 0.137360
H14   H     H_    0.025108 0.752439 0.066036 0.098083
H15   H     H_    0.016613 0.736807 0.951179 0.108638
H16   H     H_    0.525109 0.252440 0.066036 0.098083
H17   H     H_    0.516615 0.236807 0.951179 0.108637
H18   H     H_    0.200725 0.880407 0.438827 0.100645
H19   H     H_    0.798462 0.873585 0.563765 0.106012
H20   H     H_    0.700718 0.380441 0.438834 0.100690
H21   H     H_    0.298458 0.373632 0.563738 0.105968
H22   H     H_    0.240678 0.025832 0.575789 0.144209
H23   H     H_    0.855098 0.471522 0.453921 0.157655
H24   H     H_    0.757089 0.027868 0.422631 0.122875
H25   H     H_    0.740685 0.525815 0.575781 0.144660
H26   H     H_    0.257131 0.527842 0.422661 0.122899
H27   H     H_    0.999887 0.076776 0.442684 0.142396
H28   H     H_    0.969490 0.065435 0.571502 0.164084
H29   H     H_    0.499820 0.576768 0.442692 0.142280
H30   H     H_    0.469421 0.565396 0.571513 0.164081
H31   H     H_    0.023515 0.895860 0.375341 0.135961
H32   H     H_    0.961468 0.875525 0.631034 0.135860
H33   H     H_    0.523498 0.395872 0.375350 0.135964
H34   H     H_    0.148137 0.476604 0.544449 0.150539
H35   H     H_    0.461437 0.375484 0.631040 0.135845
H36   H     H_    0.060206 0.453548 0.375409 0.136813
H37   H     H_    0.953289 0.432192 0.614777 0.154703
H38   H     H_    0.560217 0.953549 0.375405 0.136784
H39   H     H_    0.453314 0.932162 0.614780 0.154718
H40   H     H_    0.981381 0.250846 0.549189 0.170320
H41   H     H_    0.028884 0.262023 0.427550 0.168673
H42   H     H_    0.481465 0.750812 0.549220 0.170121
H43   H     H_    0.528965 0.762003 0.427572 0.168610
H44   H     H_    0.143499 0.963513 0.072689 0.153506
H45   H     H_    0.129823 0.878644 0.952353 0.149695
H46   H     H_    0.785223 0.141985 0.960619 0.139646
H47   H     H_    0.643500 0.463530 0.072688 0.153506
H48   H     H_    0.285289 0.641925 0.960602 0.139665
H49   H     H_    0.364736 0.599422 0.466593 0.355260
H50   H     H_    0.628031 0.600428 0.531095 0.355553
H51   H     H_    0.864716 0.099402 0.466585 0.355335
H52   H     H_    0.128219 0.100175 0.531129 0.355538
H53   H     H_    0.824365 0.062625 0.077417 0.153199
H54   H     H_    0.629818 0.378673 0.952352 0.149698
H55   H     H_    0.324394 0.562575 0.077406 0.153208
H56   H     H_    0.289175 0.844469 0.063283 0.100994
O1    O     O_R   0.043230 0.549300 0.667990 -0.515957
O2    O     O_R   0.832470 0.905110 0.169660 -0.515697
O3    O     O_R   0.667530 0.405110 0.830340 -0.514343
O4    O     O_R   0.332470 0.405110 0.169660 -0.515703
O5    O     O_R   0.054010 0.748440 0.822860 -0.501514
O6    O     O_R   0.945990 0.748440 0.177140 -0.501504
O7    O     O_R   0.554010 0.248440 0.822860 -0.501521
O8    O     O_R   0.445990 0.248440 0.177140 -0.501502
O9    O     O_3   0.165160 0.665150 0.749190 -0.302175
O10   O     O_3   0.834840 0.665150 0.250810 -0.255149
O11   O     O_3   0.665160 0.165150 0.749190 -0.302180
O12   O     O_R   0.956770 0.549300 0.332010 -0.516481
O13   O     O_3   0.334840 0.165150 0.250810 -0.255170
O14   O     O_R   0.178620 0.457600 0.674100 -0.490213
O15   O     O_R   0.821380 0.457600 0.325900 -0.498764
O16   O     O_R   0.678620 0.957600 0.674100 -0.490204
O17   O     O_R   0.321380 0.957600 0.325900 -0.498748
O18   O     O_R   0.284680 0.542100 0.669460 -0.432386
O19   O     O_R   0.715320 0.542100 0.330540 -0.437169
O20   O     O_R   0.784680 0.042100 0.669460 -0.432382
O21   O     O_R   0.215320 0.042100 0.330540 -0.437172
O22   O     O_R   0.262860 0.790390 0.676650 -0.413689
O23   O     O_R   0.543230 0.049300 0.667990 -0.515983
O24   O     O_R   0.737140 0.790390 0.323350 -0.423973
O25   O     O_R   0.762860 0.290390 0.676650 -0.413713
O26   O     O_R   0.237140 0.290390 0.323350 -0.423935
O27   O     O_R   0.167460 0.907030 0.670940 -0.509568
O28   O     O_R   0.832540 0.907030 0.329060 -0.518390
O29   O     O_R   0.667460 0.407030 0.670940 -0.509486
O30   O     O_R   0.332540 0.407030 0.329060 -0.518407
O31   O     O_R   0.053950 0.750220 0.675100 -0.491399
O32   O     O_R   0.946050 0.750220 0.324900 -0.503220
O33   O     O_R   0.553950 0.250220 0.675100 -0.491386
O34   O     O_R   0.456770 0.049300 0.332010 -0.516459
O35   O     O_R   0.446050 0.250220 0.324900 -0.503239
O36   O     O_R   0.043300 0.547370 0.827390 -0.503192
O37   O     O_R   0.956700 0.547370 0.172610 -0.516310
O38   O     O_R   0.543300 0.047370 0.827390 -0.503195
O39   O     O_R   0.456700 0.047370 0.172610 -0.516311
O40   O     O_R   0.178690 0.455820 0.821860 -0.512269
O41   O     O_R   0.821310 0.455820 0.178140 -0.501628
O42   O     O_R   0.678690 0.955820 0.821860 -0.512268
O43   O     O_R   0.321310 0.955820 0.178140 -0.501627
O44   O     O_R   0.284750 0.540170 0.828860 -0.500971
O45   O     O_R   0.262920 0.788600 0.824420 -0.526195
O46   O     O_R   0.715250 0.540170 0.171140 -0.522955
O47   O     O_R   0.784750 0.040170 0.828860 -0.500957
O48   O     O_R   0.215250 0.040170 0.171140 -0.522945
O49   O     O_2   0.365171 0.698210 0.602586 -0.309849
O50   O     O_2   0.250066 0.662068 0.543731 -0.338425
O51   O     O_3   0.360789 0.687708 0.464056 -0.570504
O52   O     O_2   0.641199 0.685361 0.401732 -0.311487
O53   O     O_2   0.757683 0.664227 0.459535 -0.333231
O54   O     O_3   0.646620 0.682418 0.539873 -0.560980
O55   O     O_2   0.865163 0.198170 0.602584 -0.309843
O56   O     O_R   0.737080 0.788600 0.175580 -0.508248
O57   O     O_2   0.750051 0.162061 0.543741 -0.338412
O58   O     O_3   0.860771 0.187659 0.464058 -0.570664
O59   O     O_2   0.141134 0.185467 0.401635 -0.311284
O60   O     O_2   0.257548 0.164183 0.459568 -0.333459
O61   O     O_3   0.146401 0.182475 0.539779 -0.560882
O62   O     O_R   0.762920 0.288600 0.824420 -0.526193
O63   O     O_R   0.237080 0.288600 0.175580 -0.508233
O64   O     O_R   0.167530 0.905110 0.830340 -0.514340
S1    S     S_3+6 0.319334 0.726655 0.539577 -0.041578
S2    S     S_3+6 0.686868 0.721904 0.463581 -0.037775
S3    S     S_3+6 0.819325 0.226626 0.539579 -0.041626
S4    S     S_3+6 0.186753 0.221942 0.463538 -0.037747

loop_
_geom_bond_atom_site_label_1
_geom_bond_atom_site_label_2
_ccdc_geom_bond_type
C44   C49   S    
C1    C87   S    
C21   C26   A    
C55   H17   S    
C35   C74   S    
C8    C13   A    
Cr5   O15   S    
C37   C69   S    
C2    C18   A    
C43   C83   S    
C13   H30   S    
C57   C79   S    
C42   C82   S    
H50   O54   S    
C92   H34   S    
Cr2   O6    S    
C53   C59   D    
C56   C81   D    
C32   C72   S    
C40   O27   A    
C3    C65   S    
C24   H36   S    
C7    C11   A    
O61   S4    S    
Cr1   O9    S    
C28   H41   S    
Cr5   O12   S    
C32   H6    S    
C73   O62   A    
C34   O21   A    
C8    H35   S    
Cr9   O19   S    
C25   H39   S    
C27   C28   A    
Cr2   O28   S    
Cr7   O17   S    
C48   C52   S    
C86   C91   D    
C11   H29   S    
C54   C58   D    
C55   C77   S    
C62   O1    A    
C15   C89   A    
C20   C25   A    
Cr9   O56   S    
C70   O48   A    
C63   O32   A    
Cr1   O14   S    
Cr11  O13   S    
Cr10  O20   S    
O60   S4    D    
H51   O58   S    
C18   C19   A    
C8    C16   A    
Cr4   O30   S    
Cr6   O23   S    
C6    H32   S    
O53   S2    D    
Cr11  O63   S    
Cr12  O5    S    
C64   O23   A    
C78   C83   D    
Cr4   O35   S    
C43   O30   A    
C16   C17   A    
C7    C17   A    
C58   H9    S    
Cr4   O8    S    
C41   O24   A    
C76   O6    A    
C33   H7    S    
C67   S3    S    
O59   S4    D    
Cr8   O22   S    
C9    C10   A    
Cr2   O2    S    
C39   C48   D    
C66   O44   A    
C75   O36   A    
C52   H55   S    
C56   C90   S    
C68   O41   A    
Cr8   O18   S    
C69   O42   A    
Cr3   O33   S    
Cr11  O21   S    
C87   C92   D    
C78   S4    S    
C63   C89   S    
C53   C75   S    
Cr11  O26   S    
C34   C84   S    
C31   C49   D    
O54   S2    S    
Cr8   O44   S    
C67   C91   S    
C36   C70   S    
C40   O22   A    
C9    H27   S    
C50   H53   S    
C25   C29   A    
C39   H4    S    
C1    O14   A    
C69   O47   A    
Cr10  O25   S    
C79   O39   A    
Cr4   O13   S    
Cr6   O38   S    
C61   H13   S    
Cr5   O37   S    
C30   H43   S    
Cr1   O40   S    
Cr11  O48   S    
C83   H26   S    
Cr5   O41   S    
C29   H42   S    
H49   O51   S    
C36   H56   S    
C57   C60   D    
C47   C51   S    
C23   O16   A    
C43   O26   A    
C78   C92   S    
C58   C59   S    
Cr12  O31   S    
C74   O63   A    
Cr5   O10   S    
Cr4   O4    S    
C41   O28   A    
C60   C61   S    
C4    C16   A    
C46   H46   S    
C5    C9    A    
C29   C30   A    
C19   C89   A    
Cr3   O3    S    
C38   H3    S    
C6    C14   A    
Cr6   O16   S    
C1    O18   A    
Cr7   O13   S    
Cr1   O1    S    
C85   C90   D    
C41   C81   S    
C64   O33   A    
C45   C88   S    
C40   C80   S    
C27   H40   S    
C31   H5    S    
Cr9   O10   S    
C75   O5    A    
C45   S1    S    
Cr10  O11   S    
C82   H25   S    
C32   C50   D    
C38   C47   D    
Cr9   O24   S    
C91   H23   S    
C49   H45   S    
O57   S3    D    
C57   H16   S    
C54   C76   S    
Cr6   O11   S    
C42   O25   A    
C33   C73   S    
C72   O56   A    
C47   H47   S    
C26   C30   A    
C90   H12   S    
C22   C27   A    
C12   O15   A    
C81   H24   S    
C86   H20   S    
C79   O8    A    
O50   S1    D    
C36   C44   D    
Cr1   O36   S    
C33   C51   D    
C54   H14   S    
O58   S3    S    
C87   H21   S    
Cr10  O62   S    
C24   C28   A    
C7    H33   S    
C65   O34   A    
Cr10  O47   S    
C70   O43   A    
C5    H31   S    
Cr12  O27   S    
C46   C50   S    
C44   H44   S    
C71   O64   A    
Cr7   O43   S    
Cr8   O9    S    
C18   C22   A    
C84   H18   S    
C85   H19   S    
Cr6   O42   S    
C84   C88   D    
C77   O38   A    
C38   C68   S    
C34   O17   A    
Cr3   O7    S    
C6    C10   A    
Cr8   O45   S    
C53   H15   S    
C62   O31   A    
C56   S2    S    
C77   O7    A    
C23   O20   A    
C4    C64   S    
C51   H54   S    
C12   C86   S    
C76   O37   A    
C48   H48   S    
C19   C24   A    
O52   S2    D    
C37   H2    S    
O49   S1    D    
Cr2   O10   S    
C74   O4    A    
C88   H1    S    
C11   C13   A    
C42   O29   A    
C63   O12   A    
C68   O46   A    
C80   H22   S    
C23   C85   S    
C59   H10   S    
C55   C61   D    
C22   H37   S    
C31   C71   S    
C39   C66   S    
C3    C17   A    
C45   C80   D    
O55   S3    D    
C2    C14   A    
Cr2   O32   S    
C5    C15   A    
C3    C21   A    
Cr9   O46   S    
Cr3   O29   S    
C4    C20   A    
C10   H28   S    
C71   O45   A    
C12   O19   A    
Cr7   O34   S    
C20   C21   A    
C67   C82   D    
C73   O3    A    
O51   S1    S    
Cr7   O39   S    
C35   C52   D    
C72   O2    A    
C14   C15   A    
H52   O61   S    
C60   H11   S    
C37   C46   D    
C26   H38   S    
Cr3   O11   S    
Cr12  O64   S    
C66   O40   A    
C35   H8    S    
C2    C62   S    
Cr12  O9    S    
C65   O35   A    
