data_mof_unit_46357.cif
_audit_creation_date              2012-12-10T20:31:07-0500
_audit_creation_method            fapswitch 2.2
_symmetry_space_group_name_H-M    P1
_symmetry_Int_Tables_number       1
_space_group_crystal_system       triclinic
_cell_length_a                    14.890754
_cell_length_b                    10.670121
_cell_length_c                    9.866742
_cell_angle_alpha                 90.464953
_cell_angle_beta                  90.666836
_cell_angle_gamma                 90.165793
_cell_volume                      1567.52383182

loop_
_atom_site_label
_atom_site_type_symbol
_atom_type_description
_atom_site_fract_x
_atom_site_fract_y
_atom_site_fract_z
_atom_type_partial_charge
C1    C     C_R   0.503264 0.259977 0.499467 0.922346
C2    C     C_R   0.187316 0.384415 0.512835 0.452018
C3    C     C_R   0.231921 0.498964 0.497022 -0.267003
C4    C     C_R   0.327227 0.500267 0.499279 0.997058
C5    C     C_R   0.186774 0.612587 0.481216 0.442323
C6    C     C_R   0.503657 0.064807 0.620963 -0.008959
C7    C     C_R   0.516577 0.128212 0.499890 -0.221831
C8    C     C_R   0.545112 0.062560 0.383167 0.519799
C9    C     C_R   0.546795 0.932113 0.387244 -0.287889
C10   C     C_R   0.516198 0.870911 0.502861 -0.243693
C11   C     C_R   0.503357 0.937323 0.622413 0.097740
C12   C     C_R   0.906158 0.613650 0.492610 0.030351
C13   C     C_3   0.428187 0.931688 0.721132 0.489304
C14   C     C_3   0.428761 0.073758 0.720397 -0.527083
C15   C     C_R   0.453798 0.410065 0.069330 0.096076
C16   C     C_R   0.502618 0.739802 0.500574 0.922276
C17   C     C_R   0.551623 0.582102 0.073640 -0.067340
C18   C     C_R   0.551579 0.582172 0.929656 -0.028877
C19   C     C_R   0.454159 0.409764 0.926851 0.079862
C20   C     C_3   0.355875 0.384367 0.917195 -0.482281
C21   C     C_3   0.355007 0.385202 0.070898 0.441187
C22   C     C_R   0.672798 0.500114 0.500758 0.869346
C23   C     C_R   0.951833 0.272112 0.542951 0.377961
C24   C     C_R   0.813121 0.612706 0.489896 -0.205304
C25   C     C_R   0.767787 0.499843 0.502996 -0.076764
C26   C     C_R   0.812238 0.387001 0.521065 -0.161474
C27   C     C_R   0.905485 0.385149 0.523788 -0.058391
C28   C     C_R   0.952912 0.499015 0.507366 -0.018995
C29   C     C_3   0.897466 0.134051 0.695162 -0.162452
C30   C     C_3   0.255952 0.219334 0.409539 -0.216762
C31   C     C_3   0.245774 0.756608 0.337680 -0.263678
C32   C     C_3   0.515282 0.099043 0.158818 -0.241764
C33   C     C_R   0.045362 0.271367 0.539022 0.577174
C34   C     C_R   0.093476 0.383590 0.518732 -0.182310
C35   C     C_R   0.046684 0.498434 0.504559 -0.154235
C36   C     C_R   0.093381 0.613174 0.488090 -0.030941
C37   C     C_R   0.046019 0.726478 0.479981 -0.226890
C38   C     C_R   0.953014 0.726767 0.480935 0.600114
F1    F     F_    0.456359 0.883544 0.844314 -0.657701
F2    F     F_    0.306868 0.485421 0.121942 -0.649945
F3    F     F_    0.087913 0.159888 0.554784 -0.613032
F4    F     F_    0.908952 0.837632 0.470040 -0.638390
H1    H     H_    0.775492 0.698939 0.477796 0.185195
H2    H     H_    0.773576 0.301432 0.532201 0.178852
H3    H     H_    0.337250 0.293381 0.115595 0.036880
H4    H     H_    0.080581 0.815469 0.471607 0.230221
H5    H     H_    0.859656 0.209160 0.748585 0.117752
H6    H     H_    0.964287 0.120393 0.744410 0.187367
H7    H     H_    0.859046 0.045529 0.705791 0.208726
H8    H     H_    0.306562 0.274598 0.354021 0.144494
H9    H     H_    0.194695 0.205381 0.345249 0.187625
H10   H     H_    0.285387 0.125610 0.428629 0.172955
H11   H     H_    0.281082 0.848219 0.333822 0.175818
H12   H     H_    0.567602 0.879279 0.298906 0.182413
H13   H     H_    0.180182 0.767236 0.283918 0.170889
H14   H     H_    0.287740 0.687173 0.283338 0.241121
H15   H     H_    0.531230 0.163779 0.075080 0.178777
H16   H     H_    0.443637 0.113963 0.185770 0.123934
H17   H     H_    0.525349 0.002355 0.119472 0.193303
H18   H     H_    0.365743 0.887972 0.679388 0.113215
H19   H     H_    0.366641 0.114717 0.675785 0.204306
H20   H     H_    0.451271 0.116413 0.818259 0.220809
H21   H     H_    0.591924 0.650035 0.129277 0.138179
H22   H     H_    0.591797 0.650206 0.876637 0.159365
H23   H     H_    0.317739 0.463048 0.871191 0.255552
H24   H     H_    0.340918 0.290704 0.872346 0.166628
N1    N     N_R   0.499390 0.499140 0.142800 -0.084169
N2    N     N_R   0.499390 0.499180 0.857150 -0.093085
O1    O     O_R   0.500010 0.316790 0.614690 -0.612254
O2    O     O_3   0.236279 0.276039 0.535441 -0.575348
O3    O     O_3   0.234870 0.723945 0.474860 -0.634754
O4    O     O_3   0.573700 0.125809 0.269151 -0.580843
O5    O     O_R   0.500000 0.316760 0.385350 -0.596034
O6    O     O_R   0.367850 0.499990 0.614680 -0.608088
O7    O     O_R   0.367840 0.499950 0.385340 -0.594908
O8    O     O_R   0.500000 0.683240 0.614650 -0.595921
O9    O     O_R   0.499990 0.683210 0.385310 -0.630132
O10   O     O_R   0.632160 0.500050 0.614660 -0.628683
O11   O     O_R   0.632150 0.500010 0.385320 -0.609956
O12   O     O_3   0.905800 0.160117 0.556003 -0.543924
Zn1   Zn    Zn3+2 0.500010 0.500020 0.653130 0.992385
Zn2   Zn    Zn3+2 0.499990 0.499980 0.346870 1.000389

loop_
_geom_bond_atom_site_label_1
_geom_bond_atom_site_label_2
_ccdc_geom_bond_type
C30   H9    S    
C35   C36   A    
C32   H16   S    
C26   H2    S    
C7    C8    A    
C32   O4    S    
C13   H18   S    
C29   H7    S    
C15   C19   A    
C21   F2    S    
C26   C27   A    
C29   H5    S    
N2    Zn1   S    
C20   H24   S    
C36   C37   A    
C22   O11   A    
C38   F4    S    
C18   N2    A    
C14   H20   S    
C5    C36   A    
C34   C35   A    
C4    O7    A    
C19   C20   S    
C28   C35   A    
C8    C9    A    
C23   C33   A    
C22   C25   S    
C23   C27   A    
C23   O12   S    
C9    C10   A    
C4    O6    A    
C2    C34   A    
C31   O3    S    
C30   H8    S    
C16   O8    A    
C13   C14   S    
C32   H15   S    
C30   O2    S    
C17   C18   A    
C21   H3    S    
C8    O4    S    
C17   N1    A    
C29   H6    S    
C20   H23   S    
C24   C25   A    
C22   O10   A    
C6    C11   A    
C25   C26   A    
C14   H19   S    
C1    O1    A    
C37   C38   A    
C6    C14   S    
C15   N1    A    
C33   C34   A    
C19   N2    A    
C31   H11   S    
C12   C28   A    
C31   H14   S    
O6    Zn1   S    
C3    C4    S    
O5    Zn2   S    
C30   H10   S    
C1    C7    S    
C3    C5    A    
O8    Zn1   S    
O11   Zn2   S    
O7    Zn2   S    
C6    C7    A    
C12   C24   A    
C1    O5    A    
C2    C3    A    
C33   F3    S    
C5    O3    S    
C10   C16   S    
C17   H21   S    
C11   C13   S    
O10   Zn1   S    
C18   H22   S    
C29   O12   S    
O9    Zn2   S    
C12   C38   A    
C13   F1    S    
O1    Zn1   S    
C10   C11   A    
C15   C21   S    
C20   C21   S    
N1    Zn2   S    
C27   C28   A    
C24   H1    S    
C16   O9    A    
C9    H12   S    
C32   H17   S    
C31   H13   S    
C37   H4    S    
C2    O2    S    
