data_mof_unit_54721.cif
_audit_creation_date              2012-12-10T17:22:51-0500
_audit_creation_method            fapswitch 2.2
_symmetry_space_group_name_H-M    P1
_symmetry_Int_Tables_number       1
_space_group_crystal_system       triclinic
_cell_length_a                    10.152711
_cell_length_b                    10.568886
_cell_length_c                    10.61792
_cell_angle_alpha                 90.176555
_cell_angle_beta                  94.655829
_cell_angle_gamma                 80.989023
_cell_volume                      1121.50498686

loop_
_atom_site_label
_atom_site_type_symbol
_atom_type_description
_atom_site_fract_x
_atom_site_fract_y
_atom_site_fract_z
_atom_type_partial_charge
C1    C     C_R   0.445472 0.500004 0.265877 0.975539
C2    C     C_3   0.497947 0.122791 0.493472 -0.113688
C3    C     C_3   0.578509 0.944372 0.407072 -0.189353
C4    C     C_3   0.415224 0.054868 0.579506 -0.271242
C5    C     C_2   0.419577 0.479619 0.130241 -0.233624
C6    C     C_2   0.584190 0.466755 0.870525 -0.221497
C7    C     C_2   0.509761 0.396383 0.068962 -0.198182
C8    C     C_2   0.505954 0.397760 0.931853 -0.205236
C9    C     C_2   0.073348 0.489358 0.489397 0.510170
C10   C     C_2   0.926669 0.510654 0.510556 0.517589
C11   C     C_2   0.232509 0.953396 0.431329 0.449017
C12   C     C_R   0.555306 0.488199 0.734388 1.064422
C13   C     C_2   0.762934 0.045244 0.551940 0.464066
C14   C     C_2   0.398747 0.101775 0.251707 0.537016
C15   C     C_2   0.583801 0.903660 0.740124 0.560442
C16   C     C_2   0.422890 0.309138 0.868503 0.469500
C17   C     C_2   0.620020 0.300258 0.129409 0.504993
C18   C     C_2   0.690141 0.529770 0.938871 0.453070
C19   C     C_2   0.302376 0.559750 0.060723 0.442579
C20   C     C_R   0.499081 0.257495 0.496754 0.965942
C21   C     C_R   0.498779 0.742368 0.496220 0.966858
C22   C     C_3   0.453434 0.047350 0.378738 -0.016959
C23   C     C_3   0.540062 0.952507 0.608727 -0.023244
C24   C     C_3   0.372630 0.977859 0.464045 -0.081976
C25   C     C_3   0.621901 0.021144 0.523269 -0.032192
C26   C     C_3   0.496618 0.876837 0.494085 -0.072512
F1    F     F_    0.880355 0.598322 0.596837 -0.611998
F2    F     F_    0.119662 0.401786 0.403023 -0.676813
H1    H     H_    0.644701 0.896390 0.337069 0.187591
H2    H     H_    0.706069 0.265808 0.077321 0.075980
H3    H     H_    0.703933 0.527923 0.041244 0.067433
H4    H     H_    0.278749 0.546420 0.960575 0.080118
H5    H     H_    0.344116 0.098889 0.647108 0.209288
H6    H     H_    0.880441 0.381906 0.384089 0.165868
H7    H     H_    0.119525 0.617992 0.615979 0.178338
H8    H     H_    0.154298 0.988377 0.492300 0.074394
H9    H     H_    0.811262 0.091828 0.481713 0.088629
H10   H     H_    0.316853 0.181418 0.244705 0.066768
H11   H     H_    0.617885 0.967971 0.810991 0.117781
H12   H     H_    0.334718 0.288109 0.910598 0.083326
N1    N     N_2   0.157310 0.552180 0.551120 -0.211953
N2    N     N_2   0.842690 0.447820 0.448880 -0.228100
O1    O     O_R   0.568940 0.489500 0.307530 -0.622473
O2    O     O_2   0.824168 0.012254 0.653105 -0.556438
O3    O     O_2   0.445245 0.056531 0.155987 -0.545005
O4    O     O_2   0.579591 0.792853 0.768613 -0.557753
O5    O     O_2   0.457915 0.251919 0.774297 -0.628237
O6    O     O_2   0.613649 0.253080 0.232699 -0.591680
O7    O     O_2   0.764776 0.583685 0.880934 -0.453163
O8    O     O_2   0.230617 0.642366 0.115006 -0.480634
O9    O     O_R   0.431060 0.510500 0.692470 -0.629111
O10   O     O_R   0.348880 0.522990 0.340350 -0.532386
O11   O     O_R   0.651120 0.477010 0.659650 -0.538478
O12   O     O_R   0.610000 0.297210 0.483560 -0.620291
O13   O     O_R   0.390000 0.702790 0.516440 -0.612407
O14   O     O_R   0.389940 0.330700 0.516390 -0.569289
O15   O     O_R   0.610060 0.669300 0.483610 -0.568368
O16   O     O_2   0.206059 0.893738 0.336501 -0.504698
Zn1   Zn    Zn3+2 0.646930 0.477640 0.478080 1.057138
Zn2   Zn    Zn3+2 0.353070 0.522360 0.521920 1.065126

loop_
_geom_bond_atom_site_label_1
_geom_bond_atom_site_label_2
_ccdc_geom_bond_type
C10   F1    S    
C2    C22   S    
C2    C4    S    
C21   C26   S    
C21   O15   A    
C14   O3    D    
C5    C19   S    
C14   H10   S    
C11   O16   D    
C9    C10   S    
C9    N1    D    
C12   O11   A    
H6    N2    S    
C17   O6    D    
O1    Zn1   S    
C20   O14   A    
C13   C25   S    
C12   O9    A    
C14   C22   S    
C15   C23   S    
O11   Zn1   S    
C7    C8    S    
C8    C16   S    
O13   Zn2   S    
C17   H2    S    
C19   O8    D    
C15   H11   S    
H7    N1    S    
C16   H12   S    
C6    C18   S    
C19   H4    S    
C16   O5    D    
C20   O12   A    
C11   H8    S    
C18   H3    S    
C23   C26   S    
C24   C26   S    
C2    C25   S    
C5    C7    D    
O12   Zn1   S    
C23   C25   S    
C6    C12   S    
C4    C24   S    
C1    O10   A    
C22   C24   S    
O15   Zn1   S    
C10   N2    D    
N1    Zn2   S    
C2    C20   S    
C11   C24   S    
C1    C5    S    
C3    C25   S    
C9    F2    S    
C3    H1    S    
N2    Zn1   S    
C21   O13   A    
C4    C23   S    
C4    H5    S    
C3    C22   S    
C6    C8    D    
O9    Zn2   S    
O10   Zn2   S    
C15   O4    D    
C13   H9    S    
C1    O1    A    
C13   O2    D    
O14   Zn2   S    
C18   O7    D    
C7    C17   S    
C3    C26   S    
