data_mof_unit_27687.cif
_audit_creation_date              2012-12-10T16:50:08-0500
_audit_creation_method            fapswitch 2.2
_symmetry_space_group_name_H-M    P1
_symmetry_Int_Tables_number       1
_space_group_crystal_system       triclinic
_cell_length_a                    7.873076
_cell_length_b                    8.564304
_cell_length_c                    10.595249
_cell_angle_alpha                 92.3948
_cell_angle_beta                  84.910859
_cell_angle_gamma                 93.759498
_cell_volume                      709.597567936

loop_
_atom_site_label
_atom_site_type_symbol
_atom_type_description
_atom_site_fract_x
_atom_site_fract_y
_atom_site_fract_z
_atom_type_partial_charge
C1    C     C_R   0.545458 0.794334 0.497013 0.934384
C2    C     C_R   0.463480 0.650492 0.941605 0.090360
C3    C     C_R   0.504121 0.512357 0.871608 -0.085700
C4    C     C_R   0.548786 0.378982 0.928007 -0.200843
C5    C     C_R   0.547163 0.378153 0.057083 -0.238599
C6    C     C_R   0.501136 0.510790 0.128794 -0.078459
C7    C     C_2   0.569101 0.958075 0.494441 -0.389597
C8    C     C_2   0.430953 0.041890 0.503878 -0.397027
C9    C     C_R   0.501124 0.503214 0.739071 0.860317
C10   C     C_R   0.454579 0.205672 0.502655 0.948344
C11   C     C_R   0.499843 0.501530 0.260980 0.845290
C12   C     C_R   0.428755 0.789343 0.883368 -0.181353
C13   C     C_R   0.394682 0.924818 0.956489 -0.132970
C14   C     C_R   0.395443 0.924351 0.087797 -0.142949
C15   C     C_R   0.428262 0.788190 0.146502 -0.171810
C16   C     C_R   0.462461 0.649767 0.073824 0.099972
H1    H     H_    0.581970 0.274788 0.871895 0.147207
H2    H     H_    0.990863 0.630675 0.585701 0.182725
H3    H     H_    0.430367 0.795211 0.781491 0.141065
H4    H     H_    0.369155 0.030705 0.911095 0.139123
H5    H     H_    0.372142 0.029908 0.144501 0.131155
H6    H     H_    0.429231 0.793297 0.248439 0.149555
H7    H     H_    0.579761 0.273544 0.101481 0.142674
H8    H     H_    0.699621 0.009073 0.485012 0.181505
H9    H     H_    0.300428 0.990885 0.512971 0.181001
N1    N     N_2   0.950330 0.457950 0.466250 -0.072560
N2    N     N_2   0.049670 0.542050 0.533750 -0.157085
O1    O     O_R   0.389250 0.738570 0.508280 -0.621207
O2    O     O_R   0.678390 0.711630 0.486650 -0.624686
O3    O     O_R   0.355400 0.513470 0.694050 -0.610836
O4    O     O_R   0.644540 0.486530 0.672420 -0.615788
O5    O     O_R   0.321610 0.288370 0.513350 -0.653939
O6    O     O_R   0.610750 0.261430 0.491720 -0.623883
O7    O     O_R   0.355460 0.513470 0.327580 -0.643420
O8    O     O_R   0.644600 0.486530 0.305950 -0.629894
Zn1   Zn    Zn3+2 0.306930 0.517990 0.514440 0.925069
Zn2   Zn    Zn3+2 0.693070 0.482010 0.485560 0.930832
C17   C     C_3   0.011994 0.318429 0.399014 -0.150028
C18   C     C_3   0.925477 0.282495 0.276034 -0.363279
C19   C     C_3   0.015477 0.157617 0.192918 -0.963263
H10   H     H_    0.146245 0.203054 0.159181 0.265369
H11   H     H_    0.022900 0.050002 0.246722 0.271698
H12   H     H_    0.943251 0.127386 0.108925 0.273625
H13   H     H_    0.791344 0.238214 0.297117 0.258308
H14   H     H_    0.929503 0.390465 0.220878 0.251412
H15   H     H_    0.146023 0.333608 0.368019 0.242353
H16   H     H_    0.989605 0.217021 0.461769 0.155835

loop_
_geom_bond_atom_site_label_1
_geom_bond_atom_site_label_2
_ccdc_geom_bond_type
C1    O1    A    
N1    Zn2   S    
C18   H13   S    
C3    C9    S    
N2    Zn1   S    
C2    C16   A    
H2    N2    S    
C5    H7    S    
O3    Zn1   S    
C18   H14   S    
C2    C12   A    
C11   O8    A    
C2    C3    A    
N1    N2    D    
C7    C8    D    
C15   H6    S    
C13   C14   A    
C8    H9    S    
O1    Zn1   S    
C17   H16   S    
C5    C6    A    
C9    O3    A    
C4    H1    S    
O5    Zn1   S    
C14   H5    S    
C19   H11   S    
C19   H10   S    
O8    Zn2   S    
C10   O6    A    
O7    Zn1   S    
C11   O7    A    
C17   C18   S    
C17   H15   S    
C1    O2    A    
C6    C16   A    
C7    H8    S    
C10   O5    A    
C6    C11   S    
C12   C13   A    
C12   H3    S    
C8    C10   S    
O2    Zn2   S    
C18   C19   S    
C9    O4    A    
C14   C15   A    
N1    C17   S    
C13   H4    S    
C1    C7    S    
C19   H12   S    
O6    Zn2   S    
C3    C4    A    
C15   C16   A    
O4    Zn2   S    
C4    C5    A    
