data_mof_unit_65821.cif
_audit_creation_date              2012-12-10T17:57:04-0500
_audit_creation_method            fapswitch 2.2
_symmetry_space_group_name_H-M    P1
_symmetry_Int_Tables_number       1
_space_group_crystal_system       triclinic
_cell_length_a                    18.674347
_cell_length_b                    18.583222
_cell_length_c                    18.789068
_cell_angle_alpha                 109.242702
_cell_angle_beta                  109.575983
_cell_angle_gamma                 109.029612
_cell_volume                      5054.00746544

loop_
_atom_site_label
_atom_site_type_symbol
_atom_type_description
_atom_site_fract_x
_atom_site_fract_y
_atom_site_fract_z
_atom_type_partial_charge
C1    C     C_R   0.381625 0.379863 0.501672 0.874587
C2    C     C_3   0.810189 0.504086 0.811295 0.099128
C3    C     C_3   0.849736 0.579778 0.791012 0.065329
C4    C     C_3   0.737687 0.507312 0.835078 -0.017328
C5    C     C_R   0.244681 0.322941 0.499806 -0.236669
C6    C     C_R   0.178364 0.260430 0.498937 0.192964
C7    C     C_R   0.185850 0.188003 0.500963 -0.078441
C8    C     C_R   0.258930 0.179852 0.505922 -0.242872
C9    C     C_R   0.326038 0.243255 0.508585 0.207706
C10   C     C_R   0.317063 0.314033 0.503485 -0.067617
C11   C     C_R   0.319136 0.578478 0.322027 -0.231918
C12   C     C_R   0.617212 0.496245 0.620140 0.865021
C13   C     C_R   0.256788 0.581966 0.259372 0.192965
C14   C     C_R   0.184215 0.502564 0.187812 -0.082741
C15   C     C_R   0.173437 0.422090 0.180975 -0.229905
C16   C     C_R   0.235941 0.418649 0.243503 0.193266
C17   C     C_R   0.309752 0.497921 0.313575 -0.077312
C18   C     C_R   0.756624 0.759746 0.576959 0.156392
C19   C     C_R   0.820707 0.820174 0.574168 -0.240528
C20   C     C_R   0.814397 0.808922 0.495073 -0.114559
C21   C     C_R   0.743786 0.736316 0.415457 0.186831
C22   C     C_R   0.674905 0.677586 0.416660 0.142254
C23   C     C_R   0.619702 0.620465 0.499632 0.898917
C24   C     C_R   0.684149 0.687385 0.497843 -0.101507
C25   C     C_R   0.999457 0.379791 0.879243 0.885834
C26   C     C_R   0.877129 0.503039 0.879159 0.873498
C27   C     C_R   0.996855 0.620302 0.117038 0.889225
C28   C     C_R   0.118036 0.501387 0.119653 0.882626
C29   C     C_R   0.002960 0.881934 0.380970 0.885626
C30   C     C_R   0.119889 0.121082 0.500683 0.878343
C31   C     C_R   0.997622 0.118662 0.619013 0.885012
C32   C     C_R   0.880259 0.877708 0.497756 0.892442
C33   C     C_R   0.079745 0.318736 0.821225 0.193157
C34   C     C_R   0.377769 0.498789 0.379450 0.882798
C35   C     C_R   0.076402 0.253231 0.755504 -0.231152
C36   C     C_R   0.996104 0.184203 0.684456 -0.078778
C37   C     C_R   0.916810 0.177991 0.678344 0.195225
C38   C     C_R   0.920163 0.243510 0.744146 -0.236116
C39   C     C_R   0.000514 0.313542 0.814151 -0.077393
C40   C     C_R   0.997358 0.760697 0.175530 0.156875
C41   C     C_R   0.008512 0.830442 0.245164 0.188055
C42   C     C_R   0.008022 0.820180 0.315925 -0.116000
C43   C     C_R   0.007810 0.748098 0.323382 -0.241346
C44   C     C_R   0.004565 0.681992 0.258668 0.146240
C45   C     C_3   0.687621 0.409502 0.653806 -0.398753
C46   C     C_R   0.997548 0.687530 0.183698 -0.095437
C47   C     C_3   0.762633 0.413568 0.725730 -0.084174
C48   C     C_3   0.775713 0.574944 0.717070 0.001669
C49   C     C_3   0.671057 0.513439 0.765951 -0.471244
C50   C     C_3   0.686820 0.497689 0.687168 0.063858
H1    H     H_    0.239818 0.378599 0.496809 0.157055
H2    H     H_    0.624359 0.355724 0.635162 0.144719
H3    H     H_    0.603891 0.464103 0.744325 0.161207
O1    O     O_R   0.408680 0.356690 0.448540 -0.615154
O2    O     O_R   0.049540 0.460010 0.906120 -0.616804
O3    O     O_R   0.853500 0.448290 0.905220 -0.639022
O4    O     O_R   0.956960 0.551660 0.905160 -0.632744
O5    O     O_R   0.945110 0.539900 0.088450 -0.623678
O6    O     O_R   0.048570 0.643270 0.088390 -0.618051
O7    O     O_R   0.037700 0.448250 0.089410 -0.624858
O8    O     O_R   0.141150 0.551620 0.089350 -0.617541
O9    O     O_R   0.948590 0.908340 0.356800 -0.616510
O10   O     O_R   0.052580 0.908350 0.460820 -0.626530
O11   O     O_R   0.039640 0.091520 0.447910 -0.621798
O12   O     O_R   0.408060 0.460070 0.551440 -0.625721
O13   O     O_R   0.143620 0.091540 0.551930 -0.626340
O14   O     O_R   0.947420 0.091470 0.539000 -0.618837
O15   O     O_R   0.051410 0.091490 0.643030 -0.625859
O16   O     O_R   0.856380 0.908290 0.447890 -0.613369
O17   O     O_R   0.960370 0.908300 0.551910 -0.626238
O18   O     O_R   0.592410 0.448290 0.540650 -0.627868
O19   O     O_R   0.591790 0.551670 0.643550 -0.637366
O20   O     O_R   0.591940 0.539930 0.448560 -0.617951
O21   O     O_R   0.591320 0.643310 0.551460 -0.619966
O22   O     O_R   0.408210 0.448330 0.356450 -0.618564
O23   O     O_R   0.407590 0.551710 0.459350 -0.624830
O24   O     O_R   0.946090 0.356640 0.906180 -0.624099
Zn1   Zn    Zn3+2 0.500420 0.430970 0.431290 0.939117
Zn2   Zn    Zn3+2 0.499580 0.569030 0.568710 0.938605
Zn3   Zn    Zn3+2 0.928250 0.430930 0.997320 0.937952
Zn4   Zn    Zn3+2 0.066410 0.568980 0.997240 0.934221
Zn5   Zn    Zn3+2 0.930570 0.999900 0.430450 0.940922
Zn6   Zn    Zn3+2 0.069430 0.999920 0.569370 0.947784
H4    H     H_    0.693028 0.393000 0.594007 0.218511
C51   C     C_3   0.767398 0.574944 0.927823 -0.914491
H5    H     H_    0.710487 0.559997 0.938522 0.245802
H6    H     H_    0.816817 0.571343 0.977320 0.248934
H7    H     H_    0.792398 0.642441 0.939014 0.249403
H8    H     H_    0.771132 0.635624 0.742296 0.170902
C52   C     C_3   0.907324 0.674989 0.866909 -0.968737
H9    H     H_    0.964379 0.684306 0.920057 0.277792
H10   H     H_    0.934595 0.718095 0.842763 0.241847
H11   H     H_    0.869928 0.699865 0.892212 0.249269
C53   C     C_3   0.102698 0.273681 0.498622 -0.869446
H12   H     H_    0.113253 0.338847 0.506478 0.228153
H13   H     H_    0.042021 0.223428 0.436095 0.256362
H14   H     H_    0.094263 0.269307 0.553106 0.234185
H15   H     H_    0.263951 0.124092 0.508466 0.164940
C54   C     C_3   0.406022 0.234176 0.519863 -0.916317
H16   H     H_    0.462811 0.295576 0.540052 0.237435
H17   H     H_    0.426218 0.216632 0.571524 0.229831
H18   H     H_    0.390869 0.181615 0.458146 0.249627
H19   H     H_    0.376087 0.638654 0.377132 0.155448
C55   C     C_3   0.267792 0.670036 0.271306 -0.872946
H20   H     H_    0.208055 0.673210 0.266294 0.232506
H21   H     H_    0.323508 0.724234 0.335876 0.229015
H22   H     H_    0.280572 0.681138 0.221237 0.257199
H23   H     H_    0.116585 0.361826 0.125897 0.158063
C56   C     C_3   0.221546 0.330973 0.235685 -0.874494
H24   H     H_    0.226903 0.331260 0.296482 0.232723
H25   H     H_    0.155878 0.277170 0.181384 0.228989
H26   H     H_    0.270561 0.316463 0.223075 0.257445
C57   C     C_3   0.767161 0.774803 0.664802 -0.871559
H27   H     H_    0.832435 0.829804 0.718719 0.227237
H28   H     H_    0.717586 0.791023 0.673913 0.256584
H29   H     H_    0.759759 0.715696 0.670273 0.236721
H30   H     H_    0.875662 0.877498 0.634109 0.164194
C58   C     C_3   0.743359 0.719435 0.330525 -0.870828
H31   H     H_    0.809736 0.753438 0.340264 0.234835
H32   H     H_    0.718495 0.648761 0.289040 0.238424
H33   H     H_    0.701589 0.740950 0.295605 0.245239
C59   C     C_3   0.591297 0.606532 0.332354 -0.861632
H34   H     H_    0.533535 0.594758 0.341378 0.229589
H35   H     H_    0.579644 0.625327 0.281049 0.238635
H36   H     H_    0.594330 0.544993 0.308902 0.252347
C60   C     C_3   0.167295 0.391031 0.898648 -0.874961
H37   H     H_    0.221160 0.378711 0.896769 0.228890
H38   H     H_    0.180660 0.454181 0.899663 0.257062
H39   H     H_    0.168044 0.396168 0.959522 0.232751
H40   H     H_    0.136565 0.256122 0.759099 0.158245
C61   C     C_3   0.829171 0.101687 0.604767 -0.876916
H41   H     H_    0.827012 0.039242 0.598071 0.234826
H42   H     H_    0.775080 0.104115 0.616047 0.227102
H43   H     H_    0.817375 0.102612 0.543222 0.256676
H44   H     H_    0.860057 0.240716 0.740646 0.157796
C62   C     C_3   0.983506 0.764430 0.092955 -0.907773
H45   H     H_    0.047131 0.804249 0.100084 0.252858
H46   H     H_    0.949892 0.698510 0.036664 0.244288
H47   H     H_    0.940336 0.792658 0.077060 0.242422
H48   H     H_    0.732439 0.360338 0.738724 0.171141
C63   C     C_3   0.022474 0.915349 0.244308 -0.862153
H49   H     H_    0.066188 0.932667 0.217582 0.237523
H50   H     H_    0.958892 0.908521 0.204278 0.244892
H51   H     H_    0.055333 0.971680 0.310484 0.233913
H52   H     H_    0.009036 0.743102 0.379667 0.165930
C64   C     C_3   0.009741 0.607377 0.271635 -0.853323
H53   H     H_    0.062820 0.599124 0.262402 0.230070
H54   H     H_    0.023799 0.619254 0.338007 0.228562
H55   H     H_    0.946693 0.545916 0.224905 0.256300
C65   C     C_3   0.822433 0.390410 0.693633 -0.929026
H56   H     H_    0.850038 0.433367 0.669818 0.247707
H57   H     H_    0.876654 0.394280 0.745622 0.245193
H58   H     H_    0.784156 0.322064 0.639023 0.249363
C66   C     C_3   0.796488 0.572540 0.643500 -0.959523
H59   H     H_    0.801295 0.513597 0.612493 0.254240
H60   H     H_    0.746181 0.574108 0.592784 0.258688
H61   H     H_    0.859707 0.631078 0.670290 0.248868
H62   H     H_    0.894996 0.567697 0.768908 0.193170
H63   H     H_    0.675895 0.578901 0.794279 0.211034
H64   H     H_    0.701942 0.443321 0.830531 0.170482

loop_
_geom_bond_atom_site_label_1
_geom_bond_atom_site_label_2
_ccdc_geom_bond_type
C29   O10   A    
C60   H37   S    
O12   Zn2   S    
C30   O11   A    
C29   C42   S    
C41   C42   A    
C35   C36   A    
O23   Zn2   S    
C1    O1    A    
C61   H43   S    
C55   H21   S    
C7    C8    A    
C4    H64   S    
C51   H5    S    
C31   O14   A    
C40   C62   S    
C33   C39   A    
C3    C52   S    
C25   O24   A    
C22   C24   A    
C36   C37   A    
C57   H27   S    
O19   Zn2   S    
C63   H50   S    
C5    C6    A    
O24   Zn3   S    
C15   C16   A    
C3    C48   S    
O1    Zn1   S    
C18   C19   A    
C8    H15   S    
C58   H31   S    
O16   Zn5   S    
O13   Zn6   S    
C52   H10   S    
C11   C17   A    
C19   C20   A    
C8    C9    A    
C6    C53   S    
C65   H58   S    
C47   H48   S    
C3    H62   S    
C1    O12   A    
O20   Zn1   S    
C13   C14   A    
O2    Zn4   S    
C9    C10   A    
C31   C36   S    
C66   H60   S    
O5    Zn3   S    
C34   O22   A    
C57   H29   S    
C28   O8    A    
C28   O7    A    
O9    Zn5   S    
C9    C54   S    
C7    C30   S    
C21   C22   A    
C23   O20   A    
C62   H47   S    
C18   C57   S    
C55   H20   S    
O22   Zn1   S    
C44   C46   A    
C16   C56   S    
C22   C59   S    
C6    C7    A    
C64   H54   S    
C45   C47   S    
C31   O15   A    
C51   H6    S    
O6    Zn4   S    
C66   H61   S    
C62   H46   S    
C63   H51   S    
C16   C17   A    
C32   O17   A    
C4    C51   S    
C60   H39   S    
C37   C61   S    
O10   Zn6   S    
C58   H33   S    
C15   H23   S    
C2    C4    S    
C43   C44   A    
C41   C63   S    
C37   C38   A    
C43   H52   S    
C64   H55   S    
C44   C64   S    
C54   H16   S    
C47   C65   S    
O3    Zn3   S    
C23   C24   S    
C2    C26   S    
C38   H44   S    
C13   C55   S    
C53   H13   S    
O17   Zn6   S    
C35   H40   S    
O11   Zn5   S    
C66   H59   S    
C30   O13   A    
C27   C46   S    
C40   C41   A    
C54   H17   S    
C12   O18   A    
C48   H8    S    
C18   C24   A    
C56   H26   S    
C45   H4    S    
C42   C43   A    
C40   C46   A    
C23   O21   A    
C59   H35   S    
C61   H41   S    
C52   H11   S    
C64   H53   S    
C20   C32   S    
C51   H7    S    
C48   C66   S    
C29   O9    A    
O7    Zn3   S    
C60   H38   S    
C65   H56   S    
O15   Zn6   S    
C49   H63   S    
C1    C10   S    
C25   O2    A    
O4    Zn4   S    
C62   H45   S    
C61   H42   S    
C27   O5    A    
C26   O3    A    
C21   C58   S    
C12   C50   S    
C32   O16   A    
C2    C47   S    
C11   H19   S    
C53   H14   S    
C4    C49   S    
O21   Zn2   S    
C45   H2    S    
C59   H36   S    
C56   H25   S    
C2    C3    S    
C5    C10   A    
C27   O6    A    
C63   H49   S    
C25   C39   S    
C11   C13   A    
C52   H9    S    
C38   C39   A    
C45   C50   S    
C49   H3    S    
C48   C50   S    
C33   C60   S    
C33   C35   A    
C65   H57   S    
O18   Zn1   S    
C12   O19   A    
C53   H12   S    
C26   O4    A    
C58   H32   S    
C54   H18   S    
C20   C21   A    
C19   H30   S    
O14   Zn5   S    
C49   C50   S    
C17   C34   S    
C14   C15   A    
C5    H1    S    
O8    Zn4   S    
C14   C28   S    
C59   H34   S    
C56   H24   S    
C55   H22   S    
C34   O23   A    
C57   H28   S    
