data_mof_unit_23925.cif
_audit_creation_date              2012-12-11T14:03:19-0500
_audit_creation_method            fapswitch 2.2
_symmetry_space_group_name_H-M    P1
_symmetry_Int_Tables_number       1
_space_group_crystal_system       triclinic
_cell_length_a                    6.935843
_cell_length_b                    11.410267
_cell_length_c                    18.666724
_cell_angle_alpha                 90.000063
_cell_angle_beta                  92.849796
_cell_angle_gamma                 89.999966
_cell_volume                      1475.45423982

loop_
_atom_site_label
_atom_site_type_symbol
_atom_type_description
_atom_site_fract_x
_atom_site_fract_y
_atom_site_fract_z
_atom_type_partial_charge
O1    O     O_R   0.330540 0.606360 0.598870 -0.538946
O2    O     O_R   0.669460 0.106360 0.401130 -0.538946
O3    O     O_R   0.026770 0.620470 0.750430 -0.535733
O4    O     O_R   0.973230 0.120470 0.249570 -0.535732
O5    O     O_R   0.856460 0.393640 0.750930 -0.542797
O6    O     O_R   0.143540 0.893640 0.249070 -0.542796
C1    C     C_R   0.198645 0.648482 0.774503 0.775763
C2    C     C_R   0.801355 0.148482 0.225497 0.775763
O7    O     O_R   0.000920 0.620350 0.599420 -0.542758
O8    O     O_R   0.999080 0.120350 0.400580 -0.542757
O9    O     O_R   0.830430 0.393520 0.598850 -0.541744
O10   O     O_R   0.169570 0.893520 0.401150 -0.541744
C3    C     C_R   0.166678 0.647925 0.574559 0.810268
C4    C     C_R   0.833322 0.147925 0.425441 0.810268
O11   O     O_R   0.356570 0.606480 0.750960 -0.538790
O12   O     O_R   0.643430 0.106480 0.249040 -0.538791
O13   O     O_3   0.176990 0.425580 0.674890 -0.380179
O14   O     O_3   0.823010 0.925580 0.325110 -0.380179
V1    V     V_3+5 0.902170 0.513810 0.674910 1.481094
V2    V     V_3+5 0.097830 0.013810 0.325090 1.481096
O15   O     O_R   0.500800 0.379530 0.599380 -0.548886
O16   O     O_R   0.499200 0.879530 0.400620 -0.548887
C5    C     C_R   0.666554 0.352055 0.574473 0.765520
C6    C     C_R   0.333446 0.852055 0.425527 0.765520
O17   O     O_R   0.526650 0.379650 0.750390 -0.545272
O18   O     O_R   0.473350 0.879650 0.249610 -0.545273
C7    C     C_R   0.698534 0.351268 0.774245 0.697713
C8    C     C_R   0.301466 0.851268 0.225755 0.697713
V3    V     V_3+5 0.402160 0.486190 0.674900 1.466668
V4    V     V_3+5 0.597840 0.986190 0.325100 1.466666
O19   O     O_3   0.677210 0.574420 0.674910 -0.367665
O20   O     O_3   0.322790 0.074420 0.325090 -0.367665
C9    C     C_R   0.709957 0.071150 0.879813 -0.147699
C10   C     C_R   0.290038 0.571148 0.120187 -0.147697
H1    H     H_    0.683539 0.114702 0.767964 0.143548
H2    H     H_    0.316463 0.614700 0.232036 0.143549
H3    H     H_    0.728816 0.940409 0.997184 0.137209
H4    H     H_    0.271164 0.440406 0.002816 0.137208
H5    H     H_    0.700238 0.977850 0.869257 0.142030
H6    H     H_    0.299754 0.477847 0.130743 0.142029
C11   C     C_R   0.714053 0.269074 0.834287 -0.051005
C12   C     C_R   0.285947 0.769075 0.165713 -0.051004
C13   C     C_R   0.795966 0.353137 0.181084 0.365714
C14   C     C_R   0.204044 0.853137 0.818916 0.365714
C15   C     C_R   0.786758 0.434240 0.125427 -0.155155
C16   C     C_R   0.213257 0.934241 0.874572 -0.155153
C17   C     C_R   0.768654 0.397440 0.054330 -0.247062
C18   C     C_R   0.231357 0.897441 0.945670 -0.247061
C19   C     C_R   0.758739 0.276837 0.036533 0.080647
C20   C     C_R   0.241261 0.776837 0.963467 0.080646
C21   C     C_R   0.766345 0.193631 0.093651 0.007778
C22   C     C_R   0.233650 0.693630 0.906349 0.007777
C23   C     C_R   0.741481 0.236069 0.964036 0.087405
C24   C     C_R   0.258516 0.736069 0.035964 0.087404
C25   C     C_R   0.729814 0.113498 0.950429 0.119405
C26   C     C_R   0.270178 0.613496 0.049571 0.119405
C27   C     C_R   0.737332 0.033914 0.007237 -0.201795
C28   C     C_R   0.262653 0.533912 0.992763 -0.201793
C29   C     C_R   0.755819 0.073036 0.077624 -0.189323
C30   C     C_R   0.244167 0.573034 0.922376 -0.189322
C31   C     C_R   0.734774 0.312555 0.904290 -0.227723
C32   C     C_R   0.265224 0.812556 0.095710 -0.227721
C33   C     C_R   0.700890 0.148613 0.822112 -0.138491
C34   C     C_R   0.299110 0.648612 0.177888 -0.138491
C35   C     C_R   0.785613 0.232652 0.165871 -0.166147
C36   C     C_R   0.214388 0.732652 0.834129 -0.166148
H7    H     H_    0.743272 0.406401 0.909960 0.105180
H8    H     H_    0.256725 0.906403 0.090040 0.105180
H9    H     H_    0.762606 0.466107 0.014746 0.142395
H10   H     H_    0.237411 0.966108 0.985254 0.142394
H11   H     H_    0.794201 0.527126 0.137253 0.166471
H12   H     H_    0.205824 0.027128 0.862747 0.166470
H13   H     H_    0.761302 0.007334 0.119508 0.120108
H14   H     H_    0.238678 0.507332 0.880493 0.120107
C37   C     C_2   0.831986 0.233827 0.484625 -0.297419
C38   C     C_2   0.168014 0.733827 0.515375 -0.297419
H15   H     H_    0.969637 0.270691 0.503645 0.148302
H16   H     H_    0.030363 0.770691 0.496355 0.148302
C39   C     C_2   0.667890 0.266256 0.515228 -0.319326
C40   C     C_2   0.332110 0.766256 0.484772 -0.319324
H17   H     H_    0.530238 0.229410 0.496194 0.150952
H18   H     H_    0.469762 0.729410 0.503806 0.150951
Cl1   Cl    Cl    0.820216 0.405622 0.269871 -0.690260
Cl2   Cl    Cl    0.179804 0.905623 0.730128 -0.690259

loop_
_geom_bond_atom_site_label_1
_geom_bond_atom_site_label_2
_ccdc_geom_bond_type
C9    C25   A    
C10   C26   A    
C15   H11   S    
O13   V3    S    
C14   C36   A    
C11   C31   A    
O4    C2    A    
V1    O19   S    
C17   C19   A    
O9    V1    S    
C9    H5    S    
C10   H6    S    
C38   H16   S    
O3    C1    A    
C27   C29   A    
C28   C30   A    
C13   Cl1   S    
C21   C35   A    
C15   C17   A    
C30   H14   S    
C31   H7    S    
C17   H9    S    
O7    C3    A    
C22   C30   A    
O5    C7    A    
C23   C31   A    
C6    C40   S    
O6    C8    A    
C14   C16   A    
C19   C21   A    
C20   C22   A    
O3    V1    S    
O14   V4    S    
C12   C32   A    
C16   H12   S    
C9    C33   A    
C18   C20   A    
C2    C35   S    
C2    O12   A    
H4    C28   S    
C8    C12   S    
C10   C34   A    
O7    V1    S    
O11   V3    S    
C16   C18   A    
C23   C25   A    
O17   V3    S    
C24   C26   A    
C40   H18   S    
O8    C4    A    
O8    V2    S    
C39   H17   S    
C1    O11   A    
C24   C32   A    
O15   V3    S    
C37   H15   S    
C7    C11   S    
C3    C38   S    
C13   C35   A    
O10   V2    S    
O1    V3    S    
C20   C24   A    
C13   C15   A    
O18   V4    S    
C25   C27   A    
O16   C6    A    
C21   C29   A    
C11   C33   A    
C12   C34   A    
C22   C36   A    
V2    O20   S    
C29   H13   S    
O16   V4    S    
C38   C40   D    
C18   H10   S    
C14   Cl2   S    
O5    V1    S    
O17   C7    A    
O6    V2    S    
O10   C6    A    
O18   C8    A    
C32   H8    S    
O2    V4    S    
C4    C37   S    
O15   C5    A    
V3    O19   S    
C1    C36   S    
V4    O20   S    
C37   C39   D    
C19   C23   A    
O9    C5    A    
O13   V1    S    
C26   C28   A    
O14   V2    S    
O2    C4    A    
O4    V2    S    
O1    C3    A    
H1    C33   S    
C5    C39   S    
H2    C34   S    
O12   V4    S    
H3    C27   S    
